REMARK  Name = ZINC01227896
REMARK  7 active torsions:
REMARK  status: ('A' for Active; 'I' for Inactive)
REMARK    1  A    between atoms: C_1  and  C_2
REMARK    2  A    between atoms: C_9  and  C_17
REMARK    3  A    between atoms: C_11  and  C_15
REMARK    4  A    between atoms: C_12  and  N_14
REMARK    5  A    between atoms: C_19  and  O_25
REMARK    6  A    between atoms: C_20  and  O_24
REMARK    7  A    between atoms: O_25  and  C_26
REMARK                            x       y       z     vdW  Elec       q    Type
REMARK                         _______ _______ _______ _____ _____    ______ ____
ROOT
ATOM      1  C   UNL     1       4.253   9.325   1.977  0.00  0.00    +0.086 C 
ATOM      2  C   UNL     1       3.182   8.482   1.335  0.00  0.00    +0.110 A 
ATOM      3  C   UNL     1       1.981   9.029   1.069  0.00  0.00    +0.088 A 
ATOM      4  C   UNL     1       0.972   8.244   0.466  0.00  0.00    +0.144 A 
ATOM      5  C   UNL     1       1.248   6.927   0.166  0.00  0.00    +0.092 A 
ATOM      6  C   UNL     1       2.515   6.412   0.467  0.00  0.00    +0.345 A 
ATOM      7  O   UNL     1       2.778   5.249   0.209  0.00  0.00    -0.245 OA
ATOM      8  O   UNL     1       3.442   7.200   1.040  0.00  0.00    -0.427 OA
ATOM      9  C   UNL     1       0.208   6.050  -0.474  0.00  0.00    +0.105 C 
ATOM     10  C   UNL     1      -0.894   6.894  -1.054  0.00  0.00    +0.098 C 
ATOM     11  C   UNL     1      -1.050   8.189  -0.693  0.00  0.00    +0.199 C 
ATOM     12  O   UNL     1      -0.234   8.784   0.194  0.00  0.00    -0.441 OA
ENDROOT
BRANCH   9  13
ATOM     13  C   UNL     1      -0.368   5.119   0.561  0.00  0.00    -0.030 A 
ATOM     14  C   UNL     1      -0.254   3.751   0.398  0.00  0.00    +0.054 A 
ATOM     15  C   UNL     1      -0.787   2.893   1.346  0.00  0.00    +0.163 A 
ATOM     16  C   UNL     1      -1.427   3.411   2.468  0.00  0.00    +0.173 A 
ATOM     17  C   UNL     1      -1.532   4.784   2.629  0.00  0.00    +0.063 A 
ATOM     18  C   UNL     1      -1.002   5.635   1.676  0.00  0.00    +0.023 A 
ATOM     19 BR   UNL     1      -2.399   5.494   4.153  0.00  0.00    -0.046 Br
BRANCH  16  20
ATOM     20  O   UNL     1      -1.946   2.573   3.405  0.00  0.00    -0.503 OA
ATOM     21  H   UNL     1      -1.327   2.339   4.110  0.00  0.00    +0.292 HD
ENDBRANCH  16  20
BRANCH  15  22
ATOM     22  O   UNL     1      -0.682   1.547   1.184  0.00  0.00    -0.491 OA
ATOM     23  C   UNL     1      -0.013   1.086   0.008  0.00  0.00    +0.277 C 
ENDBRANCH  15  22
ENDBRANCH   9  13
BRANCH  11  24
ATOM     24  N   UNL     1      -2.072   8.917  -1.250  0.00  0.00    -0.328 N 
ATOM     25  H   UNL     1      -2.196   9.847  -1.002  0.00  0.00    +0.145 HD
ATOM     26  H   UNL     1      -2.669   8.502  -1.892  0.00  0.00    +0.145 HD
ENDBRANCH  11  24
BRANCH  10  27
ATOM     27  C   UNL     1      -1.796   6.315  -2.004  0.00  0.00    +0.101 C 
ATOM     28  N   UNL     1      -2.511   5.857  -2.758  0.00  0.00    -0.191 NA
ENDBRANCH  10  27
TORSDOF 5
