REMARK  Name = ZINC39634816
REMARK  13 active torsions:
REMARK  status: ('A' for Active; 'I' for Inactive)
REMARK    1  A    between atoms: C_1  and  C_2
REMARK    2  A    between atoms: C_2  and  C_3
REMARK    3  A    between atoms: C_2  and  N_4
REMARK    4  A    between atoms: N_4  and  C_5
REMARK    5  A    between atoms: N_4  and  C_32
REMARK    6  A    between atoms: C_5  and  C_6
REMARK    7  A    between atoms: C_6  and  N_7
REMARK    8  A    between atoms: C_8  and  C_10
REMARK    9  A    between atoms: C_21  and  C_23
REMARK   10  A    between atoms: C_25  and  O_30
REMARK   11  A    between atoms: O_30  and  C_31
REMARK   12  A    between atoms: C_32  and  C_33
REMARK   13  A    between atoms: C_32  and  C_34
REMARK                            x       y       z     vdW  Elec       q    Type
REMARK                         _______ _______ _______ _____ _____    ______ ____
ROOT
ATOM      1  C   UNL     1       4.114   4.223  -1.385  0.00  0.00    +0.100 C 
ATOM      2  C   UNL     1       5.065   3.463  -2.337  0.00  0.00    +0.121 C 
ATOM      3  N   UNL     1       5.540   4.492  -3.292  0.00  0.00    -0.296 N 
ATOM      4  C   UNL     1       5.745   5.702  -2.459  0.00  0.00    +0.115 C 
ATOM      5  C   UNL     1       4.566   5.691  -1.465  0.00  0.00    -0.004 C 
ATOM      6  C   UNL     1       5.027   6.178  -0.095  0.00  0.00    -0.010 C 
ATOM      7  C   UNL     1       5.416   7.656  -0.187  0.00  0.00    -0.082 C 
ATOM      8  N   UNL     1       4.262   8.440  -0.644  0.00  0.00    +0.379 N 
ATOM      9  C   UNL     1       3.884   8.029  -2.002  0.00  0.00    -0.082 C 
ATOM     10  C   UNL     1       3.430   6.566  -1.986  0.00  0.00    -0.010 C 
ATOM     11  C   UNL     1       5.741   4.358  -4.618  0.00  0.00    +0.248 C 
ATOM     12  O   UNL     1       6.215   5.278  -5.257  0.00  0.00    -0.270 OA
ATOM     13  H   UNL     1       3.485   8.288  -0.019  0.00  0.00    -0.086 HD
ATOM     14  H   UNL     1       4.503   9.420  -0.646  0.00  0.00    -0.086 HD
ENDROOT
BRANCH  11  15
ATOM     15  C   UNL     1       5.385   3.094  -5.296  0.00  0.00    +0.054 A 
ATOM     16  C   UNL     1       5.729   1.870  -4.721  0.00  0.00    +0.059 A 
ATOM     17  C   UNL     1       5.391   0.690  -5.361  0.00  0.00    +0.121 A 
ATOM     18  C   UNL     1       4.713   0.725  -6.572  0.00  0.00    +0.047 A 
ATOM     19  C   UNL     1       4.371   1.936  -7.144  0.00  0.00    +0.019 A 
ATOM     20  C   UNL     1       4.698   3.120  -6.512  0.00  0.00    +0.030 A 
ATOM     21 BR   UNL     1       4.222   4.774  -7.295  0.00  0.00    -0.050 Br
BRANCH  17  22
ATOM     22  O   UNL     1       5.725  -0.504  -4.804  0.00  0.00    -0.495 OA
ATOM     23  C   UNL     1       5.345  -1.682  -5.519  0.00  0.00    +0.277 C 
ENDBRANCH  17  22
ENDBRANCH  11  15
BRANCH   1  25
ATOM     24  N   UNL     1       1.675   4.277  -0.981  0.00  0.00    -0.317 N 
ATOM     25  C   UNL     1       2.687   4.088  -1.850  0.00  0.00    +0.218 C 
ATOM     26  O   UNL     1       2.450   3.809  -3.006  0.00  0.00    -0.275 OA
ATOM     27  H   UNL     1       1.865   4.500  -0.056  0.00  0.00    +0.149 HD
BRANCH  24  28
ATOM     28  C   UNL     1       0.287   4.144  -1.432  0.00  0.00    +0.085 C 
BRANCH  28  29
ATOM     29  C   UNL     1      -0.658   4.407  -0.258  0.00  0.00    -0.059 C 
BRANCH  29  30
ATOM     30  N   UNL     1      -2.040   4.125  -0.670  0.00  0.00    +0.384 N 
ATOM     31  H   UNL     1      -2.091   3.196  -1.062  0.00  0.00    -0.081 HD
BRANCH  30  33
ATOM     32  C   UNL     1      -1.716   6.423  -1.451  0.00  0.00    -0.014 C 
ATOM     33  C   UNL     1      -2.460   5.106  -1.679  0.00  0.00    -0.074 C 
ATOM     34  C   UNL     1      -2.135   4.573  -3.076  0.00  0.00    -0.014 C 
ENDBRANCH  30  33
BRANCH  30  35
ATOM     35  C   UNL     1      -2.926   4.213   0.498  0.00  0.00    -0.074 C 
ATOM     36  C   UNL     1      -4.339   3.782   0.099  0.00  0.00    -0.014 C 
ATOM     37  C   UNL     1      -2.405   3.294   1.604  0.00  0.00    -0.014 C 
ENDBRANCH  30  35
ENDBRANCH  29  30
ENDBRANCH  28  29
ENDBRANCH  24  28
ENDBRANCH   1  25
TORSDOF 8
