REMARK  Name = ZINC04144338
REMARK  3 active torsions:
REMARK  status: ('A' for Active; 'I' for Inactive)
REMARK    1  A    between atoms: C_4  and  N_7
REMARK    2  A    between atoms: C_9  and  C_17
REMARK    3  A    between atoms: C_10  and  C_12
REMARK                            x       y       z     vdW  Elec       q    Type
REMARK                         _______ _______ _______ _____ _____    ______ ____
ROOT
ATOM      1  C   UNL     1       5.745  -3.626  -0.081  0.00  0.00    +0.096 C 
ATOM      2  C   UNL     1       5.336  -4.375   1.153  0.00  0.00    +0.067 A 
ATOM      3  C   UNL     1       4.377  -5.341   1.099  0.00  0.00    +0.113 A 
ATOM      4  N   UNL     1       4.018  -6.006   2.247  0.00  0.00    -0.295 N 
ATOM      5  H   UNL     1       3.335  -6.694   2.213  0.00  0.00    +0.172 HD
ATOM      6  C   UNL     1       4.610  -5.707   3.418  0.00  0.00    +0.328 A 
ATOM      7  O   UNL     1       4.280  -6.303   4.426  0.00  0.00    -0.247 OA
ATOM      8  N   UNL     1       5.562  -4.759   3.491  0.00  0.00    -0.275 N 
ATOM      9  H   UNL     1       5.978  -4.560   4.344  0.00  0.00    +0.173 HD
ATOM     10  C   UNL     1       5.942  -4.084   2.389  0.00  0.00    +0.260 A 
ATOM     11  O   UNL     1       6.806  -3.227   2.461  0.00  0.00    -0.267 OA
ATOM     12  N   UNL     1       3.776  -5.651  -0.095  0.00  0.00    -0.303 N 
ATOM     13  C   UNL     1       4.365  -5.311  -1.283  0.00  0.00    +0.017 C 
ATOM     14  C   UNL     1       5.316  -4.355  -1.329  0.00  0.00    +0.024 C 
ATOM     15  C   UNL     1       5.936  -4.010  -2.543  0.00  0.00    +0.162 C 
ATOM     16  O   UNL     1       6.784  -3.141  -2.553  0.00  0.00    -0.292 OA
ATOM     17  C   UNL     1       5.569  -4.698  -3.829  0.00  0.00    +0.080 C 
ATOM     18  C   UNL     1       5.087  -6.118  -3.516  0.00  0.00    +0.014 C 
ATOM     19  C   UNL     1       3.921  -6.027  -2.534  0.00  0.00    +0.051 C 
ATOM     20  H   UNL     1       2.925  -6.116  -0.098  0.00  0.00    +0.153 HD
ENDROOT
BRANCH   1  23
ATOM     21  N   UNL     1       3.623  -0.651  -0.037  0.00  0.00    -0.239 N 
ATOM     22  C   UNL     1       3.784  -2.001  -0.051  0.00  0.00    +0.119 A 
ATOM     23  C   UNL     1       5.109  -2.260  -0.063  0.00  0.00    +0.011 A 
ATOM     24  C   UNL     1       5.793  -1.026  -0.057  0.00  0.00    +0.104 A 
ATOM     25  N   UNL     1       4.894  -0.062  -0.046  0.00  0.00    -0.166 NA
BRANCH  21  29
ATOM     26  C   UNL     1      -0.017   1.379   0.010  0.00  0.00    +0.000 A 
ATOM     27  C   UNL     1       1.170   2.089   0.002  0.00  0.00    +0.002 A 
ATOM     28  C   UNL     1       2.377   1.419  -0.013  0.00  0.00    +0.028 A 
ATOM     29  C   UNL     1       2.400   0.031  -0.021  0.00  0.00    +0.065 A 
ATOM     30  C   UNL     1       1.206  -0.680  -0.013  0.00  0.00    +0.028 A 
ATOM     31  C   UNL     1       0.002  -0.004   0.002  0.00  0.00    +0.002 A 
ENDBRANCH  21  29
BRANCH  24  32
ATOM     32  C   UNL     1       7.260  -0.846  -0.065  0.00  0.00    +0.040 A 
ATOM     33  C   UNL     1       8.005   0.133  -0.667  0.00  0.00    +0.018 A 
ATOM     34  C   UNL     1       9.377   0.096  -0.536  0.00  0.00    +0.008 A 
ATOM     35  C   UNL     1       9.946  -0.906   0.182  0.00  0.00    +0.046 A 
ATOM     36  S   UNL     1       8.521  -1.843   0.712  0.00  0.00    -0.095 S 
ENDBRANCH  24  32
ENDBRANCH   1  23
TORSDOF 3
