REMARK  Name = ZINC06383624
REMARK  6 active torsions:
REMARK  status: ('A' for Active; 'I' for Inactive)
REMARK    1  A    between atoms: C_1  and  C_2
REMARK    2  A    between atoms: C_3  and  O_20
REMARK    3  A    between atoms: C_4  and  O_19
REMARK    4  A    between atoms: C_10  and  C_13
REMARK    5  A    between atoms: C_13  and  N_50
REMARK    6  A    between atoms: O_20  and  C_21
REMARK                            x       y       z     vdW  Elec       q    Type
REMARK                         _______ _______ _______ _____ _____    ______ ____
ROOT
ATOM      1  C   UNL     1      -1.185   3.328  -2.443  0.00  0.00    +0.090 C 
ATOM      2  C   UNL     1      -1.163   4.094  -1.145  0.00  0.00    +0.148 A 
ATOM      3  C   UNL     1      -1.172   3.408   0.026  0.00  0.00    +0.208 A 
ATOM      4  C   UNL     1      -1.157   4.106   1.247  0.00  0.00    +0.173 A 
ATOM      5  C   UNL     1      -1.121   5.517   1.208  0.00  0.00    +0.063 A 
ATOM      6  C   UNL     1      -1.099   6.273   2.393  0.00  0.00    +0.019 A 
ATOM      7  C   UNL     1      -1.070   7.629   2.330  0.00  0.00    +0.052 A 
ATOM      8  C   UNL     1      -1.062   8.284   1.083  0.00  0.00    +0.184 A 
ATOM      9  O   UNL     1      -1.034   9.617   1.034  0.00  0.00    -0.288 OA
ATOM     10  C   UNL     1      -1.083   7.545  -0.102  0.00  0.00    +0.026 A 
ATOM     11  C   UNL     1      -1.113   6.164  -0.049  0.00  0.00    +0.144 A 
ATOM     12  O   UNL     1      -1.134   5.431  -1.180  0.00  0.00    -0.456 OA
ENDROOT
BRANCH   4  13
ATOM     13  O   UNL     1      -1.171   3.444   2.425  0.00  0.00    -0.503 OA
ATOM     14  H   UNL     1      -0.292   3.232   2.767  0.00  0.00    +0.292 HD
ENDBRANCH   4  13
BRANCH  10  15
ATOM     15  C   UNL     1      -1.074   8.251  -1.434  0.00  0.00    -0.035 C 
BRANCH  15  21
ATOM     16  C   UNL     1      -3.167   7.254  -2.130  0.00  0.00    -0.078 C 
ATOM     17  C   UNL     1      -4.637   7.553  -2.430  0.00  0.00    -0.019 C 
ATOM     18  C   UNL     1      -4.727   8.483  -3.643  0.00  0.00    -0.004 C 
ATOM     19  C   UNL     1      -3.937   9.763  -3.355  0.00  0.00    -0.019 C 
ATOM     20  C   UNL     1      -2.487   9.399  -3.029  0.00  0.00    -0.078 C 
ATOM     21  N   UNL     1      -2.468   8.524  -1.838  0.00  0.00    +0.383 N 
ATOM     22  H   UNL     1      -2.952   9.000  -1.067  0.00  0.00    -0.081 HD
ENDBRANCH  15  21
ENDBRANCH  10  15
BRANCH   3  23
ATOM     23  O   UNL     1      -1.202   2.048   0.019  0.00  0.00    -0.449 OA
BRANCH  23  24
ATOM     24  C   UNL     1      -0.017   1.383   0.010  0.00  0.00    +0.129 A 
ATOM     25  C   UNL     1       1.177   2.091   0.002  0.00  0.00    +0.048 A 
ATOM     26  C   UNL     1       2.380   1.414  -0.013  0.00  0.00    +0.023 A 
ATOM     27  C   UNL     1       2.397   0.031  -0.021  0.00  0.00    +0.041 A 
ATOM     28  C   UNL     1       1.208  -0.677  -0.013  0.00  0.00    +0.023 A 
ATOM     29  C   UNL     1       0.002  -0.004   0.002  0.00  0.00    +0.048 A 
ATOM     30 CL   UNL     1       3.911  -0.818  -0.040  0.00  0.00    -0.084 Cl
ENDBRANCH  23  24
ENDBRANCH   3  23
TORSDOF 5
