REMARK  Name = ZINC25362321
REMARK  5 active torsions:
REMARK  status: ('A' for Active; 'I' for Inactive)
REMARK    1  A    between atoms: C_1  and  C_2
REMARK    2  A    between atoms: C_5  and  C_8
REMARK    3  A    between atoms: C_10  and  C_13
REMARK    4  A    between atoms: C_13  and  S_14
REMARK    5  A    between atoms: S_14  and  C_15
REMARK                            x       y       z     vdW  Elec       q    Type
REMARK                         _______ _______ _______ _____ _____    ______ ____
ROOT
ATOM      1  C   UNL     1      -7.229   1.893   0.728  0.00  0.00    +0.227 A 
ATOM      2  N   UNL     1      -6.010   2.179   1.118  0.00  0.00    -0.213 NA
ATOM      3  C   UNL     1      -5.244   2.366   0.033  0.00  0.00    +0.090 A 
ATOM      4  C   UNL     1      -6.020   2.194  -1.053  0.00  0.00    +0.221 A 
ATOM      5  O   UNL     1      -7.259   1.893  -0.616  0.00  0.00    -0.443 OA
ENDROOT
BRANCH   1  10
ATOM      6  C   UNL     1     -11.699   0.814   4.187  0.00  0.00    +0.044 C 
ATOM      7  C   UNL     1     -10.529   1.097   3.281  0.00  0.00    -0.050 A 
ATOM      8  C   UNL     1     -10.697   1.065   1.908  0.00  0.00    +0.004 A 
ATOM      9  C   UNL     1      -9.630   1.323   1.073  0.00  0.00    +0.013 A 
ATOM     10  C   UNL     1      -8.378   1.616   1.617  0.00  0.00    +0.037 A 
ATOM     11  C   UNL     1      -8.214   1.641   3.002  0.00  0.00    +0.013 A 
ATOM     12  C   UNL     1      -9.290   1.386   3.826  0.00  0.00    +0.004 A 
ENDBRANCH   1  10
BRANCH   3  13
ATOM     13  C   UNL     1      -3.778   2.712   0.029  0.00  0.00    +0.136 C 
BRANCH  13  14
ATOM     14  S   UNL     1      -2.796   1.187   0.019  0.00  0.00    -0.078 S 
BRANCH  14  15
ATOM     15  C   UNL     1      -1.128   1.754   0.016  0.00  0.00    +0.210 A 
ATOM     16  N   UNL     1      -0.011   0.966   0.007  0.00  0.00    -0.188 NA
ATOM     17  H   UNL     1       1.199   3.984   0.010  0.00  0.00    +0.192 HD
ATOM     18  C   UNL     1       1.083   1.784   0.001  0.00  0.00    +0.209 A 
ATOM     19  N   UNL     1       0.662   3.024   0.010  0.00  0.00    -0.246 N 
ATOM     20  N   UNL     1      -0.739   3.006   0.023  0.00  0.00    -0.144 NA
ATOM     21  N   UNL     1       2.410   1.372  -0.012  0.00  0.00    -0.328 N 
ATOM     22  H   UNL     1       3.217   2.119  -0.016  0.00  0.00    +0.145 HD
ATOM     23  H   UNL     1       2.653   0.299  -0.019  0.00  0.00    +0.145 HD
ENDBRANCH  14  15
ENDBRANCH  13  14
ENDBRANCH   3  13
TORSDOF 4
