REMARK  Name = ZINC06921133
REMARK  8 active torsions:
REMARK  status: ('A' for Active; 'I' for Inactive)
REMARK    1  A    between atoms: C_1  and  C_2
REMARK    2  A    between atoms: C_3  and  C_15
REMARK    3  A    between atoms: C_4  and  C_7
REMARK    4  A    between atoms: N_17  and  C_18
REMARK    5  A    between atoms: N_17  and  N_22
REMARK    6  A    between atoms: C_18  and  C_19
REMARK    7  A    between atoms: C_18  and  C_20
REMARK    8  A    between atoms: C_18  and  C_21
REMARK                            x       y       z     vdW  Elec       q    Type
REMARK                         _______ _______ _______ _____ _____    ______ ____
ROOT
ATOM      1  C   UNL     1      -1.395   8.790  -0.387  0.00  0.00    +0.090 C 
ATOM      2  C   UNL     1      -0.684   7.485  -0.140  0.00  0.00    +0.147 A 
ATOM      3  C   UNL     1      -1.259   6.242  -0.049  0.00  0.00    +0.108 A 
ATOM      4  C   UNL     1      -0.098   5.361   0.197  0.00  0.00    +0.129 A 
ATOM      5  N   UNL     1       0.938   6.160   0.220  0.00  0.00    -0.077 NA
ATOM      6  O   UNL     1       0.628   7.311   0.033  0.00  0.00    -0.359 OA
ENDROOT
BRANCH   4   7
ATOM      7  C   UNL     1      -0.106   3.890   0.382  0.00  0.00    +0.041 A 
ATOM      8  C   UNL     1      -0.615   3.061  -0.618  0.00  0.00    +0.052 A 
ATOM      9  C   UNL     1      -0.620   1.691  -0.439  0.00  0.00    +0.021 A 
ATOM     10  C   UNL     1      -0.121   1.141   0.728  0.00  0.00    +0.003 A 
ATOM     11  C   UNL     1       0.380   1.958   1.725  0.00  0.00    +0.021 A 
ATOM     12  C   UNL     1       0.395   3.329   1.557  0.00  0.00    +0.052 A 
ATOM     13 CL   UNL     1       1.031   4.352   2.807  0.00  0.00    -0.083 Cl
ATOM     14 CL   UNL     1      -1.241   3.749  -2.084  0.00  0.00    -0.083 Cl
ENDBRANCH   4   7
BRANCH   3  15
ATOM     15  C   UNL     1      -2.681   5.877  -0.165  0.00  0.00    +0.266 C 
ATOM     16  O   UNL     1      -3.171   5.681  -1.261  0.00  0.00    -0.268 OA
ATOM     17  N   UNL     1      -3.440   5.761   0.943  0.00  0.00    -0.230 N 
BRANCH  17  18
ATOM     18  C   UNL     1      -4.819   5.280   0.839  0.00  0.00    +0.045 C 
ATOM     19  C   UNL     1      -4.831   3.908   0.161  0.00  0.00    +0.033 C 
ATOM     20  C   UNL     1      -5.426   5.162   2.238  0.00  0.00    +0.033 C 
ATOM     21  C   UNL     1      -5.642   6.266   0.008  0.00  0.00    +0.033 C 
ENDBRANCH  17  18
BRANCH  17  22
ATOM     22  N   UNL     1      -2.922   6.092   2.163  0.00  0.00    -0.251 NA
ATOM     23  H   UNL     1      -3.603   5.954   2.894  0.00  0.00    +0.141 HD
ATOM     24  H   UNL     1      -2.079   5.571   2.352  0.00  0.00    +0.141 HD
ENDBRANCH  17  22
ENDBRANCH   3  15
TORSDOF 4
