REMARK  Name = ZINC36570924
REMARK  11 active torsions:
REMARK  status: ('A' for Active; 'I' for Inactive)
REMARK    1  A    between atoms: C_1  and  C_2
REMARK    2  A    between atoms: C_2  and  C_3
REMARK    3  A    between atoms: C_3  and  N_4
REMARK    4  A    between atoms: N_4  and  C_5
REMARK    5  A    between atoms: C_5  and  C_7
REMARK    6  A    between atoms: C_5  and  C_14
REMARK    7  A    between atoms: C_11  and  O_13
REMARK    8  A    between atoms: N_16  and  C_17
REMARK    9  A    between atoms: C_23  and  C_25
REMARK   10  A    between atoms: C_26  and  O_32
REMARK   11  A    between atoms: C_30  and  O_31
REMARK                            x       y       z     vdW  Elec       q    Type
REMARK                         _______ _______ _______ _____ _____    ______ ____
ROOT
ATOM      1  C   UNL     1      -1.291  -2.821   1.087  0.00  0.00    +0.193 C 
ENDROOT
BRANCH   1   2
ATOM      2  C   UNL     1      -0.266  -3.552   1.916  0.00  0.00    -0.015 A 
ATOM      3  C   UNL     1       0.519  -2.855   2.816  0.00  0.00    +0.006 A 
ATOM      4  C   UNL     1       1.460  -3.523   3.578  0.00  0.00    +0.004 A 
ATOM      5  C   UNL     1       1.618  -4.889   3.441  0.00  0.00    +0.045 A 
ATOM      6  C   UNL     1       0.831  -5.590   2.540  0.00  0.00    +0.117 A 
ATOM      7  C   UNL     1      -0.117  -4.918   1.781  0.00  0.00    +0.051 A 
BRANCH   6   8
ATOM      8  O   UNL     1       0.984  -6.934   2.404  0.00  0.00    -0.507 OA
ATOM      9  H   UNL     1       0.423  -7.455   2.995  0.00  0.00    +0.292 HD
ENDBRANCH   6   8
ENDBRANCH   1   2
BRANCH   1  10
ATOM     10  C   UNL     1      -2.553  -2.643   1.891  0.00  0.00    +0.238 C 
ATOM     11  O   UNL     1      -3.463  -1.974   1.450  0.00  0.00    -0.273 OA
ATOM     12  N   UNL     1      -2.670  -3.226   3.101  0.00  0.00    -0.311 N 
ATOM     13  H   UNL     1      -1.941  -3.761   3.454  0.00  0.00    +0.149 HD
BRANCH  12  14
ATOM     14  C   UNL     1      -3.897  -3.053   3.882  0.00  0.00    +0.073 C 
ATOM     15  C   UNL     1      -3.812  -1.751   4.681  0.00  0.00    +0.022 C 
ATOM     16  C   UNL     1      -5.094  -1.570   5.498  0.00  0.00    +0.002 C 
ATOM     17  C   UNL     1      -5.257  -2.749   6.459  0.00  0.00    +0.000 C 
ATOM     18  C   UNL     1      -5.341  -4.051   5.660  0.00  0.00    +0.002 C 
ATOM     19  C   UNL     1      -4.059  -4.232   4.844  0.00  0.00    +0.022 C 
ENDBRANCH  12  14
ENDBRANCH   1  10
BRANCH   1  20
ATOM     20  N   UNL     1      -0.764  -1.508   0.708  0.00  0.00    -0.282 N 
ATOM     21  C   UNL     1       0.363  -1.420  -0.025  0.00  0.00    +0.255 C 
ATOM     22  O   UNL     1       0.944  -2.431  -0.371  0.00  0.00    -0.270 OA
BRANCH  21  23
ATOM     23  C   UNL     1       0.893  -0.100  -0.407  0.00  0.00    +0.119 A 
ATOM     24  C   UNL     1       1.809   0.561   0.424  0.00  0.00    +0.133 A 
ATOM     25  C   UNL     1       2.301   1.802   0.054  0.00  0.00    +0.046 A 
ATOM     26  C   UNL     1       1.892   2.390  -1.128  0.00  0.00    +0.007 A 
ATOM     27  C   UNL     1       0.988   1.747  -1.954  0.00  0.00    +0.046 A 
ATOM     28  C   UNL     1       0.488   0.503  -1.607  0.00  0.00    +0.133 A 
BRANCH  28  29
ATOM     29  O   UNL     1      -0.394  -0.128  -2.422  0.00  0.00    -0.506 OA
ATOM     30  H   UNL     1      -1.319   0.080  -2.237  0.00  0.00    +0.292 HD
ENDBRANCH  28  29
BRANCH  24  31
ATOM     31  O   UNL     1       2.212  -0.013   1.585  0.00  0.00    -0.506 OA
ATOM     32  H   UNL     1       2.997  -0.572   1.496  0.00  0.00    +0.292 HD
ENDBRANCH  24  31
ENDBRANCH  21  23
BRANCH  20  33
ATOM     33  C   UNL     1      -1.464  -0.289   1.124  0.00  0.00    +0.109 C 
BRANCH  33  35
ATOM     34  C   UNL     1      -2.033   1.167   3.073  0.00  0.00    +0.005 C 
ATOM     35  C   UNL     1      -1.221  -0.047   2.615  0.00  0.00    +0.016 C 
ENDBRANCH  33  35
ENDBRANCH  20  33
ENDBRANCH   1  20
TORSDOF 10
