REMARK  Name = ZINC17029300
REMARK  2 active torsions:
REMARK  status: ('A' for Active; 'I' for Inactive)
REMARK    1  A    between atoms: C_3  and  N_8
REMARK    2  A    between atoms: C_14  and  C_18
REMARK                            x       y       z     vdW  Elec       q    Type
REMARK                         _______ _______ _______ _____ _____    ______ ____
ROOT
ATOM      1  N   UNL     1       3.585   2.127  -0.021  0.00  0.00    -0.188 N 
ATOM      2  C   UNL     1       4.756   1.459   0.061  0.00  0.00    +0.265 C 
ATOM      3  O   UNL     1       4.783   0.245   0.142  0.00  0.00    -0.269 OA
ATOM      4  C   UNL     1       6.000   2.249   0.049  0.00  0.00    +0.119 C 
ATOM      5  C   UNL     1       7.245   1.641   0.130  0.00  0.00    +0.038 C 
ATOM      6  C   UNL     1       8.586   2.352   0.133  0.00  0.00    +0.078 C 
ATOM      7  C   UNL     1       9.572   1.192  -0.149  0.00  0.00    +0.115 C 
ATOM      8  N   UNL     1       8.801   0.017   0.319  0.00  0.00    -0.235 NA
ATOM      9  N   UNL     1       7.475   0.321   0.224  0.00  0.00    -0.283 N 
ATOM     10  C   UNL     1       5.864   3.708  -0.051  0.00  0.00    +0.278 C 
ATOM     11  O   UNL     1       6.953   4.504  -0.069  0.00  0.00    -0.268 OA
ATOM     12  N   UNL     1       4.648   4.224  -0.125  0.00  0.00    -0.123 NA
ATOM     13  C   UNL     1       3.556   3.464  -0.116  0.00  0.00    +0.340 C 
ATOM     14  O   UNL     1       2.471   4.013  -0.192  0.00  0.00    -0.250 OA
ATOM     15  H   UNL     1       9.026  -0.803  -0.224  0.00  0.00    +0.145 HD
ATOM     16  H   UNL     1       6.772  -0.347   0.223  0.00  0.00    +0.166 HD
ENDROOT
BRANCH   1  19
ATOM     17  C   UNL     1       0.637   0.266  -1.197  0.00  0.00    +0.003 A 
ATOM     18  C   UNL     1       1.824   0.972  -1.207  0.00  0.00    +0.024 A 
ATOM     19  C   UNL     1       2.381   1.410  -0.013  0.00  0.00    +0.047 A 
ATOM     20  C   UNL     1       1.743   1.136   1.189  0.00  0.00    +0.044 A 
ATOM     21  C   UNL     1       0.556   0.428   1.194  0.00  0.00    +0.043 A 
ATOM     22  C   UNL     1       0.004  -0.006   0.001  0.00  0.00    +0.020 A 
ATOM     23 CL   UNL     1      -0.243   0.085   2.696  0.00  0.00    -0.083 Cl
ENDBRANCH   1  19
BRANCH   7  24
ATOM     24  C   UNL     1      10.841   1.357   0.647  0.00  0.00    +0.009 A 
ATOM     25  C   UNL     1      12.041   1.845   0.249  0.00  0.00    +0.013 A 
ATOM     26  C   UNL     1      13.076   1.905   1.162  0.00  0.00    +0.008 A 
ATOM     27  C   UNL     1      12.861   1.474   2.429  0.00  0.00    +0.045 A 
ATOM     28  S   UNL     1      11.150   0.968   2.361  0.00  0.00    -0.100 S 
ENDBRANCH   7  24
TORSDOF 2
