REMARK  Name = ZINC35636700
REMARK  11 active torsions:
REMARK  status: ('A' for Active; 'I' for Inactive)
REMARK    1  A    between atoms: C_1  and  O_2
REMARK    2  A    between atoms: O_2  and  C_3
REMARK    3  A    between atoms: C_3  and  C_4
REMARK    4  A    between atoms: C_4  and  N_5
REMARK    5  A    between atoms: C_6  and  C_8
REMARK    6  A    between atoms: C_8  and  C_10
REMARK    7  A    between atoms: C_8  and  N_17
REMARK    8  A    between atoms: C_10  and  C_11
REMARK    9  A    between atoms: C_23  and  C_32
REMARK   10  A    between atoms: N_28  and  C_29
REMARK   11  A    between atoms: C_29  and  C_30
REMARK                            x       y       z     vdW  Elec       q    Type
REMARK                         _______ _______ _______ _____ _____    ______ ____
ROOT
ATOM      1  N   UNL     1       0.505  -5.787   2.729  0.00  0.00    -0.280 N 
ATOM      2  C   UNL     1      -0.086  -6.723   3.696  0.00  0.00    +0.160 C 
ATOM      3  C   UNL     1       0.357  -8.093   3.232  0.00  0.00    +0.043 C 
ATOM      4  C   UNL     1       1.108  -7.895   2.129  0.00  0.00    +0.058 C 
ATOM      5  C   UNL     1       1.188  -6.519   1.831  0.00  0.00    +0.247 C 
ATOM      6  O   UNL     1       1.799  -6.054   0.886  0.00  0.00    -0.270 OA
ATOM      7  C   UNL     1       1.692  -9.115   1.446  0.00  0.00    +0.142 C 
ATOM      8  N   UNL     1       1.389 -10.424   2.047  0.00  0.00    -0.288 N 
ATOM      9  C   UNL     1       0.621 -10.461   3.154  0.00  0.00    +0.307 C 
ATOM     10  O   UNL     1       0.365 -11.537   3.658  0.00  0.00    -0.252 OA
ATOM     11  N   UNL     1       0.130  -9.349   3.717  0.00  0.00    -0.253 N 
ATOM     12  H   UNL     1       1.733 -11.242   1.655  0.00  0.00    +0.151 HD
ENDROOT
BRANCH   7  13
ATOM     13  C   UNL     1       3.190  -8.956   1.411  0.00  0.00    -0.022 A 
ATOM     14  C   UNL     1       3.942  -9.250   2.533  0.00  0.00    +0.007 A 
ATOM     15  C   UNL     1       5.316  -9.104   2.502  0.00  0.00    +0.020 A 
ATOM     16  C   UNL     1       5.939  -8.664   1.347  0.00  0.00    +0.041 A 
ATOM     17  C   UNL     1       5.185  -8.370   0.225  0.00  0.00    +0.020 A 
ATOM     18  C   UNL     1       3.812  -8.521   0.255  0.00  0.00    +0.007 A 
ATOM     19 CL   UNL     1       7.665  -8.480   1.307  0.00  0.00    -0.084 Cl
ENDBRANCH   7  13
BRANCH   1  20
ATOM     20  C   UNL     1       0.369  -4.328   2.738  0.00  0.00    +0.167 C 
BRANCH  20  22
ATOM     21  N   UNL     1      -0.515  -2.565   1.245  0.00  0.00    -0.312 N 
ATOM     22  C   UNL     1      -0.287  -3.876   1.459  0.00  0.00    +0.234 C 
ATOM     23  O   UNL     1      -0.610  -4.693   0.622  0.00  0.00    -0.274 OA
ATOM     24  H   UNL     1      -0.257  -1.913   1.914  0.00  0.00    +0.149 HD
BRANCH  21  25
ATOM     25  C   UNL     1      -1.154  -2.126   0.002  0.00  0.00    +0.132 C 
BRANCH  25  26
ATOM     26  C   UNL     1      -1.295  -0.603   0.011  0.00  0.00    +0.178 C 
BRANCH  26  28
ATOM     27  C   UNL     1      -0.017   1.425   0.010  0.00  0.00    +0.194 C 
ATOM     28  O   UNL     1       0.002  -0.004   0.002  0.00  0.00    -0.381 OA
ENDBRANCH  26  28
ENDBRANCH  25  26
ENDBRANCH  21  25
ENDBRANCH  20  22
BRANCH  20  29
ATOM     29  C   UNL     1       1.754  -3.688   2.854  0.00  0.00    +0.067 C 
BRANCH  29  30
ATOM     30  C   UNL     1       2.360  -4.040   4.188  0.00  0.00    -0.045 A 
ATOM     31  C   UNL     1       2.141  -3.226   5.284  0.00  0.00    +0.004 A 
ATOM     32  C   UNL     1       2.697  -3.550   6.507  0.00  0.00    +0.000 A 
ATOM     33  C   UNL     1       3.472  -4.687   6.635  0.00  0.00    +0.000 A 
ATOM     34  C   UNL     1       3.691  -5.501   5.540  0.00  0.00    +0.000 A 
ATOM     35  C   UNL     1       3.131  -5.180   4.317  0.00  0.00    +0.004 A 
ENDBRANCH  29  30
ENDBRANCH  20  29
ENDBRANCH   1  20
BRANCH  11  36
ATOM     36  C   UNL     1      -0.695  -9.488   4.920  0.00  0.00    +0.141 C 
BRANCH  36  37
ATOM     37  C   UNL     1      -2.140  -9.638   4.523  0.00  0.00    -0.015 C 
ATOM     38  C   UNL     1      -2.832 -10.668   4.943  0.00  0.00    +0.005 C 
ENDBRANCH  36  37
ENDBRANCH  11  36
TORSDOF 10
