REMARK  Name = ZINC19502390
REMARK  8 active torsions:
REMARK  status: ('A' for Active; 'I' for Inactive)
REMARK    1  A    between atoms: C_1  and  C_2
REMARK    2  A    between atoms: C_2  and  C_3
REMARK    3  A    between atoms: C_3  and  C_4
REMARK    4  A    between atoms: C_4  and  N_5
REMARK    5  A    between atoms: C_14  and  C_16
REMARK    6  A    between atoms: C_16  and  C_17
REMARK    7  A    between atoms: C_27  and  C_29
REMARK    8  A    between atoms: C_27  and  O_35
REMARK                            x       y       z     vdW  Elec       q    Type
REMARK                         _______ _______ _______ _____ _____    ______ ____
ROOT
ATOM      1  C   UNL     1       0.386  -4.425  -0.027  0.00  0.00    +0.222 C 
ATOM      2  O   UNL     1       1.549  -4.770  -0.040  0.00  0.00    -0.275 OA
ATOM      3  N   UNL     1      -0.592  -5.352  -0.023  0.00  0.00    -0.295 N 
ATOM      4  C   UNL     1      -2.059  -5.138  -0.002  0.00  0.00    +0.079 C 
ATOM      5  C   UNL     1      -2.584  -6.201   0.991  0.00  0.00    +0.024 C 
ATOM      6  C   UNL     1      -1.526  -7.317   0.970  0.00  0.00    +0.024 C 
ATOM      7  C   UNL     1      -0.456  -6.829  -0.033  0.00  0.00    +0.079 C 
ATOM      8  C   UNL     1      -0.850  -7.314  -1.437  0.00  0.00    +0.062 C 
ATOM      9  C   UNL     1      -2.327  -6.987  -1.677  0.00  0.00    +0.094 C 
ATOM     10  C   UNL     1      -2.573  -5.497  -1.426  0.00  0.00    +0.062 C 
ENDROOT
BRANCH   9  11
ATOM     11  C   UNL     1      -2.689  -7.323  -3.101  0.00  0.00    -0.013 A 
ATOM     12  C   UNL     1      -1.744  -7.237  -4.113  0.00  0.00    +0.026 A 
ATOM     13  C   UNL     1      -2.111  -7.558  -5.406  0.00  0.00    +0.111 A 
ATOM     14  N   UNL     1      -3.346  -7.930  -5.684  0.00  0.00    -0.263 NA
ATOM     15  C   UNL     1      -4.271  -8.017  -4.749  0.00  0.00    +0.111 A 
ATOM     16  C   UNL     1      -3.976  -7.718  -3.432  0.00  0.00    +0.026 A 
ENDBRANCH   9  11
BRANCH   9  17
ATOM     17  O   UNL     1      -3.135  -7.760  -0.788  0.00  0.00    -0.384 OA
ATOM     18  H   UNL     1      -4.231  -7.660  -0.813  0.00  0.00    +0.211 HD
ENDBRANCH   9  17
BRANCH   1  19
ATOM     19  C   UNL     1       0.035  -2.959  -0.015  0.00  0.00    +0.153 C 
BRANCH  19  29
ATOM     20  N   UNL     1       3.662  -2.028  -0.045  0.00  0.00    -0.229 N 
ATOM     21  C   UNL     1       3.698  -0.679  -0.038  0.00  0.00    +0.275 A 
ATOM     22  O   UNL     1       4.762  -0.086  -0.045  0.00  0.00    -0.266 OA
ATOM     23  C   UNL     1       2.429   0.060  -0.021  0.00  0.00    +0.050 A 
ATOM     24  C   UNL     1       2.386   1.454  -0.012  0.00  0.00    +0.014 A 
ATOM     25  C   UNL     1       1.165   2.092   0.002  0.00  0.00    +0.001 A 
ATOM     26  C   UNL     1      -0.017   1.363   0.009  0.00  0.00    +0.001 A 
ATOM     27  C   UNL     1       0.002  -0.004   0.002  0.00  0.00    +0.010 A 
ATOM     28  C   UNL     1       1.224  -0.679  -0.013  0.00  0.00    +0.011 A 
ATOM     29  C   UNL     1       1.300  -2.140  -0.022  0.00  0.00    +0.078 A 
ATOM     30  N   UNL     1       2.457  -2.731  -0.037  0.00  0.00    -0.172 NA
BRANCH  20  31
ATOM     31  C   UNL     1       4.923  -2.774  -0.061  0.00  0.00    +0.147 C 
BRANCH  31  32
ATOM     32  C   UNL     1       5.376  -3.042   1.375  0.00  0.00    +0.023 C 
BRANCH  32  34
ATOM     33  C   UNL     1       7.145  -4.090   2.795  0.00  0.00    +0.004 C 
ATOM     34  C   UNL     1       6.692  -3.822   1.358  0.00  0.00    -0.002 C 
ENDBRANCH  32  34
ENDBRANCH  31  32
ENDBRANCH  20  31
ENDBRANCH  19  29
ENDBRANCH   1  19
TORSDOF 7
