REMARK  Name = ZINC61256474
REMARK  7 active torsions:
REMARK  status: ('A' for Active; 'I' for Inactive)
REMARK    1  A    between atoms: C_1  and  C_2
REMARK    2  A    between atoms: C_3  and  C_12
REMARK    3  A    between atoms: N_14  and  C_15
REMARK    4  A    between atoms: C_15  and  C_16
REMARK    5  A    between atoms: C_16  and  C_17
REMARK    6  A    between atoms: C_17  and  O_18
REMARK    7  A    between atoms: O_18  and  C_19
REMARK                            x       y       z     vdW  Elec       q    Type
REMARK                         _______ _______ _______ _____ _____    ______ ____
ROOT
ATOM      1  C   UNL     1       2.043   0.016  -1.419  0.00  0.00    +0.258 C 
ATOM      2  O   UNL     1       2.973  -0.759  -1.495  0.00  0.00    -0.272 OA
ATOM      3  N   UNL     1       2.270   1.345  -1.441  0.00  0.00    -0.312 N 
ATOM      4  H   UNL     1       1.536   1.964  -1.310  0.00  0.00    +0.149 HD
ENDROOT
BRANCH   1   7
ATOM      5  C   UNL     1       0.139   1.211   0.457  0.00  0.00    +0.056 C 
ATOM      6  C   UNL     1       0.119  -0.283   0.128  0.00  0.00    +0.220 C 
ATOM      7  C   UNL     1       0.635  -0.506  -1.300  0.00  0.00    +0.298 C 
ATOM      8  O   UNL     1       0.617  -1.912  -1.569  0.00  0.00    -0.472 OA
ATOM      9  C   UNL     1       1.128  -2.725  -0.605  0.00  0.00    +0.163 A 
ATOM     10  C   UNL     1       1.476  -4.029  -0.928  0.00  0.00    +0.049 A 
ATOM     11  C   UNL     1       1.993  -4.868   0.041  0.00  0.00    +0.004 A 
ATOM     12  C   UNL     1       2.165  -4.411   1.334  0.00  0.00    +0.004 A 
ATOM     13  C   UNL     1       1.823  -3.113   1.663  0.00  0.00    +0.049 A 
ATOM     14  C   UNL     1       1.306  -2.265   0.695  0.00  0.00    +0.163 A 
ATOM     15  O   UNL     1       0.980  -0.987   1.031  0.00  0.00    -0.481 OA
ENDBRANCH   1   7
BRANCH   3  16
ATOM     16  C   UNL     1       3.626   1.853  -1.663  0.00  0.00    +0.106 C 
BRANCH  16  17
ATOM     17  C   UNL     1       3.608   3.382  -1.641  0.00  0.00    +0.047 C 
BRANCH  17  18
ATOM     18  C   UNL     1       5.024   3.913  -1.873  0.00  0.00    +0.161 C 
BRANCH  18  19
ATOM     19  O   UNL     1       5.007   5.342  -1.853  0.00  0.00    -0.377 OA
BRANCH  19  20
ATOM     20  C   UNL     1       6.287   5.941  -2.061  0.00  0.00    +0.118 C 
ATOM     21  C   UNL     1       6.971   6.211  -0.705  0.00  0.00    +0.031 C 
ATOM     22  C   UNL     1       7.707   7.558  -0.912  0.00  0.00    +0.003 C 
ATOM     23  C   UNL     1       6.713   8.360  -1.789  0.00  0.00    +0.003 C 
ATOM     24  C   UNL     1       6.123   7.308  -2.750  0.00  0.00    +0.031 C 
ENDBRANCH  19  20
ENDBRANCH  18  19
ENDBRANCH  17  18
ENDBRANCH  16  17
ENDBRANCH   3  16
TORSDOF 6
