REMARK  Name = ZINC07984197
REMARK  6 active torsions:
REMARK  status: ('A' for Active; 'I' for Inactive)
REMARK    1  A    between atoms: C_3  and  S_14
REMARK    2  A    between atoms: C_4  and  N_11
REMARK    3  A    between atoms: C_6  and  S_7
REMARK    4  A    between atoms: S_7  and  N_10
REMARK    5  A    between atoms: S_14  and  C_15
REMARK    6  A    between atoms: C_15  and  N_17
REMARK                            x       y       z     vdW  Elec       q    Type
REMARK                         _______ _______ _______ _____ _____    ______ ____
ROOT
ATOM      1  C   UNL     1       3.975   1.333  -0.122  0.00  0.00    +0.030 A 
ATOM      2  C   UNL     1       2.621   1.061  -0.115  0.00  0.00    +0.019 A 
ATOM      3  C   UNL     1       1.707   2.100   0.002  0.00  0.00    +0.045 A 
ATOM      4  C   UNL     1       2.158   3.410   0.105  0.00  0.00    +0.142 A 
ATOM      5  C   UNL     1       3.513   3.674   0.103  0.00  0.00    +0.062 A 
ATOM      6  C   UNL     1       4.421   2.637  -0.014  0.00  0.00    +0.107 A 
ENDROOT
BRANCH   6   7
ATOM      7  S   UNL     1       6.149   2.979  -0.025  0.00  0.00    +0.056 S 
ATOM      8  O   UNL     1       6.321   4.225   0.638  0.00  0.00    -0.153 OA
ATOM      9  O   UNL     1       6.801   1.792   0.405  0.00  0.00    -0.153 OA
BRANCH   7  10
ATOM     10  N   UNL     1       6.592   3.218  -1.602  0.00  0.00    -0.204 NA
ATOM     11  H   UNL     1       5.928   3.155  -2.307  0.00  0.00    +0.144 HD
ATOM     12  H   UNL     1       7.514   3.422  -1.822  0.00  0.00    +0.144 HD
ENDBRANCH   7  10
ENDBRANCH   6   7
BRANCH   4  13
ATOM     13  N   UNL     1       1.186   4.521   0.223  0.00  0.00    +0.058 N 
ATOM     14  O   UNL     1       1.583   5.669   0.314  0.00  0.00    -0.126 OA
ATOM     15  O   UNL     1      -0.009   4.287   0.230  0.00  0.00    -0.126 OA
ENDBRANCH   4  13
BRANCH   3  16
ATOM     16  S   UNL     1      -0.022   1.758   0.012  0.00  0.00    -0.064 S 
BRANCH  16  17
ATOM     17  C   UNL     1      -0.355   1.913   1.735  0.00  0.00    +0.114 C 
ATOM     18  S   UNL     1       0.931   2.169   2.836  0.00  0.00    -0.028 S 
BRANCH  17  19
ATOM     19  N   UNL     1      -1.622   1.831   2.187  0.00  0.00    -0.319 N 
ATOM     20  C   UNL     1      -2.816   1.622   1.355  0.00  0.00    +0.106 C 
ATOM     21  C   UNL     1      -4.037   1.621   2.299  0.00  0.00    +0.020 C 
ATOM     22  C   UNL     1      -3.519   2.403   3.535  0.00  0.00    +0.020 C 
ATOM     23  C   UNL     1      -2.041   1.943   3.596  0.00  0.00    +0.106 C 
ENDBRANCH  17  19
ENDBRANCH  16  17
ENDBRANCH   3  16
TORSDOF 6
