REMARK  Name = ZINC38632817
REMARK  7 active torsions:
REMARK  status: ('A' for Active; 'I' for Inactive)
REMARK    1  A    between atoms: C_1  and  C_2
REMARK    2  A    between atoms: C_5  and  S_8
REMARK    3  A    between atoms: S_8  and  N_11
REMARK    4  A    between atoms: N_11  and  C_12
REMARK    5  A    between atoms: C_12  and  N_31
REMARK    6  A    between atoms: C_13  and  O_29
REMARK    7  A    between atoms: O_29  and  C_30
REMARK                            x       y       z     vdW  Elec       q    Type
REMARK                         _______ _______ _______ _____ _____    ______ ____
ROOT
ATOM      1  C   UNL     1       2.475  -4.891   1.040  0.00  0.00    +0.147 C 
ATOM      2  C   UNL     1       3.931  -5.351   1.000  0.00  0.00    +0.181 C 
ATOM      3  C   UNL     1       4.482  -5.455   2.398  0.00  0.00    +0.008 C 
ATOM      4  C   UNL     1       3.705  -5.858   3.401  0.00  0.00    +0.010 C 
ATOM      5  C   UNL     1       2.291  -6.176   3.156  0.00  0.00    +0.032 C 
ATOM      6  C   UNL     1       1.693  -5.732   2.017  0.00  0.00    +0.049 C 
ATOM      7  C   UNL     1       0.295  -6.064   1.730  0.00  0.00    +0.194 C 
ATOM      8  O   UNL     1      -0.217  -5.687   0.694  0.00  0.00    -0.287 OA
ATOM      9  C   UNL     1      -0.494  -6.856   2.699  0.00  0.00    +0.033 A 
ATOM     10  C   UNL     1      -1.819  -7.182   2.437  0.00  0.00    +0.012 A 
ATOM     11  C   UNL     1      -2.543  -7.921   3.359  0.00  0.00    +0.001 A 
ATOM     12  C   UNL     1      -1.956  -8.337   4.539  0.00  0.00    +0.001 A 
ATOM     13  C   UNL     1      -0.635  -8.022   4.814  0.00  0.00    +0.012 A 
ATOM     14  C   UNL     1       0.104  -7.284   3.897  0.00  0.00    +0.033 A 
ATOM     15  C   UNL     1       1.518  -6.944   4.163  0.00  0.00    +0.194 C 
ATOM     16  O   UNL     1       2.044  -7.292   5.200  0.00  0.00    -0.287 OA
ENDROOT
BRANCH   1  17
ATOM     17  N   UNL     1       2.423  -3.484   1.459  0.00  0.00    -0.306 NA
ATOM     18  H   UNL     1       1.470  -3.184   1.602  0.00  0.00    +0.120 HD
ATOM     19  H   UNL     1       2.978  -3.332   2.288  0.00  0.00    +0.120 HD
ENDBRANCH   1  17
BRANCH   1  20
ATOM     20  N   UNL     1       1.887  -5.023  -0.295  0.00  0.00    -0.163 NA
ATOM     21  H   UNL     1       1.694  -5.903  -0.655  0.00  0.00    +0.151 HD
BRANCH  20  22
ATOM     22  S   UNL     1       1.552  -3.671  -1.190  0.00  0.00    +0.060 S 
ATOM     23  O   UNL     1       0.809  -2.800  -0.347  0.00  0.00    -0.153 OA
ATOM     24  O   UNL     1       1.057  -4.125  -2.442  0.00  0.00    -0.153 OA
BRANCH  22  29
ATOM     25  C   UNL     1       6.805  -0.920  -2.307  0.00  0.00    +0.044 C 
ATOM     26  C   UNL     1       5.493  -1.607  -2.028  0.00  0.00    -0.050 A 
ATOM     27  C   UNL     1       5.071  -2.646  -2.836  0.00  0.00    +0.005 A 
ATOM     28  C   UNL     1       3.868  -3.277  -2.580  0.00  0.00    +0.029 A 
ATOM     29  C   UNL     1       3.086  -2.868  -1.515  0.00  0.00    +0.105 A 
ATOM     30  C   UNL     1       3.509  -1.830  -0.707  0.00  0.00    +0.029 A 
ATOM     31  C   UNL     1       4.714  -1.202  -0.960  0.00  0.00    +0.005 A 
ENDBRANCH  22  29
ENDBRANCH  20  22
ENDBRANCH   1  20
BRANCH   2  32
ATOM     32  O   UNL     1       4.006  -6.630   0.368  0.00  0.00    -0.372 OA
ATOM     33  C   UNL     1       5.234  -6.865  -0.324  0.00  0.00    +0.194 C 
ENDBRANCH   2  32
TORSDOF 5
