REMARK  Name = ZINC63818271
REMARK  6 active torsions:
REMARK  status: ('A' for Active; 'I' for Inactive)
REMARK    1  A    between atoms: C_1  and  C_2
REMARK    2  A    between atoms: C_6  and  C_23
REMARK    3  A    between atoms: C_26  and  O_31
REMARK    4  A    between atoms: C_27  and  C_29
REMARK    5  A    between atoms: C_29  and  O_30
REMARK    6  A    between atoms: O_31  and  C_32
REMARK                            x       y       z     vdW  Elec       q    Type
REMARK                         _______ _______ _______ _____ _____    ______ ____
ROOT
ATOM      1  C   UNL     1      -0.018   1.520   0.010  0.00  0.00    +0.026 C 
ATOM      2  C   UNL     1       0.002  -0.004   0.002  0.00  0.00    +0.077 C 
ATOM      3  C   UNL     1      -1.353  -0.669   0.282  0.00  0.00    +0.055 C 
ATOM      4  C   UNL     1      -2.548  -0.103  -0.425  0.00  0.00    +0.036 C 
ATOM      5  C   UNL     1      -3.034   1.247   0.068  0.00  0.00    +0.104 C 
ATOM      6  C   UNL     1      -2.819   1.425   1.539  0.00  0.00    +0.215 C 
ATOM      7  O   UNL     1      -3.338   2.379   2.089  0.00  0.00    -0.276 OA
ATOM      8  N   UNL     1      -2.091   0.600   2.285  0.00  0.00    -0.295 N 
ATOM      9  C   UNL     1      -1.433  -0.604   1.816  0.00  0.00    +0.183 C 
ATOM     10  N   UNL     1      -0.018  -0.583   2.246  0.00  0.00    -0.228 N 
ATOM     11  N   UNL     1       0.809  -0.491   1.159  0.00  0.00    -0.234 NA
ATOM     12  C   UNL     1       0.421  -0.654   3.567  0.00  0.00    +0.157 A 
ATOM     13  C   UNL     1       1.802  -0.625   3.848  0.00  0.00    +0.052 A 
ATOM     14  C   UNL     1       2.229  -0.694   5.136  0.00  0.00    +0.075 A 
ATOM     15  C   UNL     1       1.280  -0.794   6.174  0.00  0.00    +0.265 A 
ATOM     16  O   UNL     1       1.646  -0.856   7.338  0.00  0.00    -0.266 OA
ATOM     17  N   UNL     1      -0.034  -0.819   5.874  0.00  0.00    -0.241 N 
ATOM     18  N   UNL     1      -0.453  -0.742   4.540  0.00  0.00    -0.155 NA
ATOM     19  H   UNL     1      -2.001   0.825   3.225  0.00  0.00    +0.151 HD
ATOM     20  H   UNL     1       1.573   0.141   1.342  0.00  0.00    +0.145 HD
ATOM     21  H   UNL     1      -0.691  -0.888   6.584  0.00  0.00    +0.192 HD
ENDROOT
BRANCH   4  22
ATOM     22  C   UNL     1      -2.303  -0.046  -1.911  0.00  0.00    -0.043 A 
ATOM     23  C   UNL     1      -1.560  -1.036  -2.527  0.00  0.00    +0.007 A 
ATOM     24  C   UNL     1      -1.334  -0.985  -3.889  0.00  0.00    +0.046 A 
ATOM     25  C   UNL     1      -1.853   0.061  -4.638  0.00  0.00    +0.125 A 
ATOM     26  C   UNL     1      -2.598   1.053  -4.018  0.00  0.00    +0.020 A 
ATOM     27  C   UNL     1      -2.826   0.995  -2.656  0.00  0.00    +0.013 A 
BRANCH  25  28
ATOM     28  O   UNL     1      -1.631   0.113  -5.978  0.00  0.00    -0.495 OA
ATOM     29  C   UNL     1      -0.856  -0.942  -6.549  0.00  0.00    +0.277 C 
ENDBRANCH  25  28
BRANCH  26  30
ATOM     30  C   UNL     1      -3.163   2.191  -4.829  0.00  0.00    +0.194 C 
BRANCH  30  31
ATOM     31  O   UNL     1      -3.885   3.075  -3.970  0.00  0.00    -0.390 OA
ATOM     32  H   UNL     1      -4.277   3.833  -4.426  0.00  0.00    +0.210 HD
ENDBRANCH  30  31
ENDBRANCH  26  30
ENDBRANCH   4  22
TORSDOF 4
