REMARK  Name = ZINC45726802
REMARK  8 active torsions:
REMARK  status: ('A' for Active; 'I' for Inactive)
REMARK    1  A    between atoms: C_4  and  C_7
REMARK    2  A    between atoms: C_7  and  C_9
REMARK    3  A    between atoms: C_7  and  O_12
REMARK    4  A    between atoms: O_12  and  C_13
REMARK    5  A    between atoms: C_13  and  C_15
REMARK    6  A    between atoms: C_15  and  C_16
REMARK    7  A    between atoms: C_16  and  N_17
REMARK    8  A    between atoms: N_20  and  C_21
REMARK                            x       y       z     vdW  Elec       q    Type
REMARK                         _______ _______ _______ _____ _____    ______ ____
ROOT
ATOM      1  C   UNL     1       6.115  -3.641  -3.029  0.00  0.00    +0.117 C 
ENDROOT
BRANCH   1   2
ATOM      2  N   UNL     1       6.090  -4.791  -3.937  0.00  0.00    -0.299 N 
ATOM      3  C   UNL     1       7.220  -5.183  -4.558  0.00  0.00    +0.300 C 
ATOM      4  O   UNL     1       8.259  -4.583  -4.366  0.00  0.00    -0.253 OA
ATOM      5  N   UNL     1       7.197  -6.241  -5.393  0.00  0.00    -0.294 N 
ATOM      6  H   UNL     1       5.261  -5.270  -4.090  0.00  0.00    +0.150 HD
ATOM      7  H   UNL     1       6.368  -6.720  -5.546  0.00  0.00    +0.151 HD
BRANCH   5   8
ATOM      8  C   UNL     1       8.425  -6.668  -6.069  0.00  0.00    +0.037 C 
ATOM      9  C   UNL     1       8.953  -5.523  -6.937  0.00  0.00    +0.029 C 
ATOM     10  C   UNL     1      10.235  -5.969  -7.643  0.00  0.00    -0.008 C 
ATOM     11  C   UNL     1       9.937  -7.182  -8.525  0.00  0.00    +0.007 C 
ATOM     12  C   UNL     1       9.409  -8.326  -7.657  0.00  0.00    -0.008 C 
ATOM     13  C   UNL     1       8.126  -7.881  -6.952  0.00  0.00    +0.029 C 
ATOM     14  C   UNL     1      10.461  -8.702  -6.613  0.00  0.00    +0.007 C 
ATOM     15  C   UNL     1      10.760  -7.489  -5.730  0.00  0.00    -0.008 C 
ATOM     16  C   UNL     1      11.288  -6.345  -6.598  0.00  0.00    +0.007 C 
ATOM     17  C   UNL     1       9.478  -7.043  -5.024  0.00  0.00    +0.029 C 
ENDBRANCH   5   8
ENDBRANCH   1   2
BRANCH   1  18
ATOM     18  C   UNL     1       4.713  -3.410  -2.461  0.00  0.00    +0.139 C 
BRANCH  18  19
ATOM     19  C   UNL     1       4.739  -2.227  -1.528  0.00  0.00    +0.310 C 
ATOM     20  O   UNL     1       5.772  -1.630  -1.337  0.00  0.00    -0.251 OA
BRANCH  19  21
ATOM     21  O   UNL     1       3.614  -1.836  -0.908  0.00  0.00    -0.447 OA
BRANCH  21  22
ATOM     22  C   UNL     1       3.711  -0.707  -0.038  0.00  0.00    +0.291 C 
BRANCH  22  26
ATOM     23  C   UNL     1      -0.017   1.378   0.010  0.00  0.00    +0.000 A 
ATOM     24  C   UNL     1       1.171   2.086   0.002  0.00  0.00    +0.000 A 
ATOM     25  C   UNL     1       2.377   1.411  -0.013  0.00  0.00    +0.008 A 
ATOM     26  C   UNL     1       2.396   0.029  -0.020  0.00  0.00    +0.002 A 
ATOM     27  C   UNL     1       1.208  -0.679  -0.012  0.00  0.00    +0.008 A 
ATOM     28  C   UNL     1       0.002  -0.004   0.002  0.00  0.00    +0.000 A 
ENDBRANCH  22  26
BRANCH  22  29
ATOM     29  C   UNL     1       4.044  -1.175   1.356  0.00  0.00    +0.256 C 
ATOM     30  O   UNL     1       4.095  -2.361   1.601  0.00  0.00    -0.272 OA
ATOM     31  N   UNL     1       4.285  -0.274   2.329  0.00  0.00    -0.326 N 
ATOM     32  H   UNL     1       4.244   0.675   2.133  0.00  0.00    +0.145 HD
ATOM     33  H   UNL     1       4.499  -0.575   3.226  0.00  0.00    +0.145 HD
ENDBRANCH  22  29
ENDBRANCH  21  22
ENDBRANCH  19  21
ENDBRANCH  18  19
ENDBRANCH   1  18
TORSDOF 8
