REMARK  Name = ZINC15958621
REMARK  7 active torsions:
REMARK  status: ('A' for Active; 'I' for Inactive)
REMARK    1  A    between atoms: C_1  and  C_2
REMARK    2  A    between atoms: C_7  and  C_8
REMARK    3  A    between atoms: C_17  and  C_20
REMARK    4  A    between atoms: C_20  and  C_21
REMARK    5  A    between atoms: C_21  and  S_22
REMARK    6  A    between atoms: S_22  and  C_23
REMARK    7  A    between atoms: N_26  and  C_29
REMARK                            x       y       z     vdW  Elec       q    Type
REMARK                         _______ _______ _______ _____ _____    ______ ____
ROOT
ATOM      1  C   UNL     1       3.806   0.976  -0.700  0.00  0.00    +0.044 C 
ATOM      2  C   UNL     1       3.123  -0.358  -0.544  0.00  0.00    -0.046 A 
ATOM      3  C   UNL     1       2.539  -0.965  -1.641  0.00  0.00    +0.004 A 
ATOM      4  C   UNL     1       1.912  -2.190  -1.497  0.00  0.00    +0.008 A 
ATOM      5  C   UNL     1       1.869  -2.802  -0.265  0.00  0.00    +0.004 A 
ATOM      6  C   UNL     1       2.454  -2.201   0.846  0.00  0.00    +0.042 A 
ATOM      7  C   UNL     1       3.088  -0.971   0.692  0.00  0.00    -0.026 A 
ATOM      8  C   UNL     1       3.733  -0.303   1.879  0.00  0.00    +0.046 C 
ATOM      9  N   UNL     1       2.283  -3.005   1.975  0.00  0.00    -0.283 N 
ATOM     10  C   UNL     1       1.605  -4.135   1.697  0.00  0.00    +0.243 C 
ATOM     11  O   UNL     1       1.309  -5.014   2.479  0.00  0.00    -0.273 OA
ATOM     12  C   UNL     1       1.285  -4.096   0.228  0.00  0.00    +0.136 C 
ATOM     13  C   UNL     1      -0.228  -4.159  -0.020  0.00  0.00    +0.122 C 
ATOM     14  C   UNL     1      -0.506  -5.650  -0.356  0.00  0.00    +0.107 C 
ATOM     15  C   UNL     1       0.868  -6.345  -0.245  0.00  0.00    +0.068 C 
ATOM     16  N   UNL     1       1.860  -5.255  -0.480  0.00  0.00    -0.295 NA
ATOM     17  C   UNL     1      -0.946  -5.607  -1.801  0.00  0.00    +0.227 C 
ATOM     18  O   UNL     1      -1.254  -6.571  -2.469  0.00  0.00    -0.275 OA
ATOM     19  N   UNL     1      -0.941  -4.339  -2.229  0.00  0.00    -0.238 N 
ATOM     20  C   UNL     1      -0.561  -3.429  -1.302  0.00  0.00    +0.228 C 
ATOM     21  O   UNL     1      -0.493  -2.230  -1.464  0.00  0.00    -0.275 OA
ATOM     22  H   UNL     1       2.614  -2.776   2.858  0.00  0.00    +0.155 HD
ATOM     23  H   UNL     1       1.970  -5.059  -1.464  0.00  0.00    +0.123 HD
ENDROOT
BRANCH  19  24
ATOM     24  C   UNL     1      -1.322  -3.962  -3.593  0.00  0.00    +0.084 C 
ATOM     25  C   UNL     1      -2.800  -4.338  -3.820  0.00  0.00    +0.023 C 
ATOM     26  C   UNL     1      -3.329  -3.524  -4.969  0.00  0.00    +0.002 C 
ATOM     27  C   UNL     1      -3.231  -4.269  -6.314  0.00  0.00    +0.000 C 
ATOM     28  C   UNL     1      -1.900  -5.027  -6.481  0.00  0.00    +0.000 C 
ATOM     29  C   UNL     1      -0.719  -4.231  -5.995  0.00  0.00    +0.002 C 
ATOM     30  C   UNL     1      -0.430  -4.626  -4.532  0.00  0.00    +0.023 C 
ENDBRANCH  19  24
BRANCH  15  31
ATOM     31  C   UNL     1       1.040  -6.966   1.143  0.00  0.00    +0.030 C 
BRANCH  31  32
ATOM     32  C   UNL     1       0.542  -8.413   1.120  0.00  0.00    +0.070 C 
BRANCH  32  33
ATOM     33  S   UNL     1       0.746  -9.149   2.765  0.00  0.00    -0.164 S 
ATOM     34  C   UNL     1       0.118 -10.839   2.571  0.00  0.00    +0.084 C 
ENDBRANCH  32  33
ENDBRANCH  31  32
ENDBRANCH  15  31
TORSDOF 4
