REMARK  Name = ZINC13581811
REMARK  4 active torsions:
REMARK  status: ('A' for Active; 'I' for Inactive)
REMARK    1  A    between atoms: C_1  and  C_2
REMARK    2  A    between atoms: C_3  and  C_8
REMARK    3  A    between atoms: C_8  and  N_9
REMARK    4  A    between atoms: C_22  and  C_24
REMARK                            x       y       z     vdW  Elec       q    Type
REMARK                         _______ _______ _______ _____ _____    ______ ____
ROOT
ATOM      1  N   UNL     1       1.598   0.434  -2.754  0.00  0.00    -0.295 NA
ATOM      2  C   UNL     1       2.233   1.211  -1.681  0.00  0.00    +0.103 C 
ATOM      3  C   UNL     1       3.736   1.327  -1.958  0.00  0.00    +0.123 C 
ATOM      4  N   UNL     1       3.920   1.870  -3.312  0.00  0.00    -0.299 N 
ATOM      5  C   UNL     1       3.204   1.227  -4.424  0.00  0.00    +0.123 C 
ATOM      6  C   UNL     1       1.723   1.115  -4.050  0.00  0.00    +0.103 C 
ATOM      7  C   UNL     1       4.744   2.955  -3.534  0.00  0.00    +0.201 A 
ATOM      8  N   UNL     1       5.298   3.581  -2.492  0.00  0.00    -0.300 N 
ATOM      9  C   UNL     1       6.090   4.622  -2.675  0.00  0.00    +0.197 A 
ATOM     10  N   UNL     1       6.341   5.057  -3.943  0.00  0.00    -0.166 N 
ATOM     11  C   UNL     1       5.768   4.408  -5.006  0.00  0.00    +0.259 A 
ATOM     12  N   UNL     1       4.974   3.352  -4.774  0.00  0.00    -0.179 NA
ATOM     13  N   UNL     1       6.166   5.020  -6.109  0.00  0.00    -0.186 NA
ATOM     14  C   UNL     1       6.975   6.039  -5.791  0.00  0.00    +0.219 A 
ATOM     15  N   UNL     1       7.109   6.097  -4.479  0.00  0.00    -0.138 NA
ATOM     16  N   UNL     1       6.654   5.259  -1.601  0.00  0.00    -0.329 N 
ATOM     17  H   UNL     1       6.472   4.946  -0.701  0.00  0.00    +0.145 HD
ATOM     18  H   UNL     1       7.235   6.023  -1.740  0.00  0.00    +0.145 HD
ATOM     19  H   UNL     1       5.116   3.268  -1.592  0.00  0.00    +0.171 HD
ENDROOT
BRANCH  14  20
ATOM     20  C   UNL     1       7.618   6.954  -6.757  0.00  0.00    +0.173 A 
ATOM     21  C   UNL     1       7.484   6.908  -8.109  0.00  0.00    +0.053 A 
ATOM     22  C   UNL     1       8.265   7.959  -8.630  0.00  0.00    +0.042 A 
ATOM     23  C   UNL     1       8.830   8.588  -7.581  0.00  0.00    +0.196 A 
ATOM     24  O   UNL     1       8.433   7.982  -6.451  0.00  0.00    -0.460 OA
ENDBRANCH  14  20
BRANCH   1  25
ATOM     25  C   UNL     1       0.191   0.154  -2.439  0.00  0.00    +0.121 C 
BRANCH  25  28
ATOM     26  C   UNL     1       0.668  -2.640  -3.003  0.00  0.00    +0.066 C 
ATOM     27  C   UNL     1       0.345  -2.203  -1.597  0.00  0.00    +0.043 A 
ATOM     28  C   UNL     1       0.117  -0.866  -1.332  0.00  0.00    -0.012 A 
ATOM     29  C   UNL     1      -0.179  -0.475  -0.036  0.00  0.00    +0.008 A 
ATOM     30  C   UNL     1      -0.236  -1.448   0.950  0.00  0.00    +0.020 A 
ATOM     31  C   UNL     1       0.003  -2.766   0.611  0.00  0.00    +0.111 A 
ATOM     32  N   UNL     1       0.277  -3.102  -0.635  0.00  0.00    -0.260 NA
ENDBRANCH  25  28
ENDBRANCH   1  25
TORSDOF 3
