REMARK  Name = ZINC33552368
REMARK  10 active torsions:
REMARK  status: ('A' for Active; 'I' for Inactive)
REMARK    1  A    between atoms: C_1  and  C_2
REMARK    2  A    between atoms: C_2  and  O_3
REMARK    3  A    between atoms: O_3  and  C_4
REMARK    4  A    between atoms: C_14  and  C_29
REMARK    5  A    between atoms: C_16  and  C_21
REMARK    6  A    between atoms: C_21  and  C_23
REMARK    7  A    between atoms: C_26  and  C_28
REMARK    8  A    between atoms: C_32  and  O_35
REMARK    9  A    between atoms: O_35  and  C_36
REMARK   10  A    between atoms: C_36  and  C_37
REMARK                            x       y       z     vdW  Elec       q    Type
REMARK                         _______ _______ _______ _____ _____    ______ ____
ROOT
ATOM      1  C   UNL     1      -1.257   3.196  -0.146  0.00  0.00    +0.122 A 
ATOM      2  C   UNL     1      -1.203   1.806  -0.094  0.00  0.00    +0.048 A 
ATOM      3  C   UNL     1      -0.018   1.139  -0.061  0.00  0.00    +0.032 A 
ATOM      4  C   UNL     1       1.210   1.840  -0.089  0.00  0.00    +0.081 A 
ATOM      5  C   UNL     1       1.125   3.250  -0.145  0.00  0.00    +0.044 A 
ATOM      6  C   UNL     1      -0.073   3.918  -0.174  0.00  0.00    +0.063 A 
ATOM      7  S   UNL     1       2.835   3.732  -0.163  0.00  0.00    -0.052 S 
ATOM      8  C   UNL     1       3.533   2.087  -0.096  0.00  0.00    +0.169 A 
ATOM      9  N   UNL     1       2.462   1.330  -0.067  0.00  0.00    -0.224 NA
ATOM     10  N   UNL     1       4.864   1.710  -0.080  0.00  0.00    -0.232 N 
ATOM     11  C   UNL     1       5.371   0.333  -0.024  0.00  0.00    +0.152 C 
ATOM     12  C   UNL     1       6.878   0.440  -0.029  0.00  0.00    +0.080 C 
ATOM     13  C   UNL     1       7.176   1.759  -0.082  0.00  0.00    +0.250 C 
ATOM     14  C   UNL     1       5.923   2.538  -0.119  0.00  0.00    +0.293 C 
ATOM     15  O   UNL     1       5.858   3.751  -0.174  0.00  0.00    -0.266 OA
ATOM     16  O   UNL     1       8.425   2.281  -0.103  0.00  0.00    -0.282 OA
ENDROOT
BRANCH  11  17
ATOM     17  C   UNL     1       4.902  -0.341   1.240  0.00  0.00    -0.022 A 
ATOM     18  C   UNL     1       4.992   0.323   2.449  0.00  0.00    +0.009 A 
ATOM     19  C   UNL     1       4.558  -0.291   3.608  0.00  0.00    +0.046 A 
ATOM     20  C   UNL     1       4.043  -1.578   3.560  0.00  0.00    +0.121 A 
ATOM     21  C   UNL     1       3.959  -2.244   2.345  0.00  0.00    +0.046 A 
ATOM     22  C   UNL     1       4.389  -1.624   1.188  0.00  0.00    +0.009 A 
BRANCH  20  23
ATOM     23  O   UNL     1       3.620  -2.186   4.699  0.00  0.00    -0.488 OA
BRANCH  23  24
ATOM     24  C   UNL     1       3.736  -1.440   5.913  0.00  0.00    +0.256 C 
BRANCH  24  25
ATOM     25  C   UNL     1       3.222  -2.269   7.062  0.00  0.00    +0.006 C 
ATOM     26  C   UNL     1       3.900  -2.328   8.182  0.00  0.00    +0.007 C 
ENDBRANCH  24  25
ENDBRANCH  23  24
ENDBRANCH  20  23
ENDBRANCH  11  17
BRANCH  12  27
ATOM     27  C   UNL     1       7.834  -0.672   0.017  0.00  0.00    +0.230 C 
ATOM     28  O   UNL     1       8.561  -0.811   0.985  0.00  0.00    -0.283 OA
BRANCH  27  29
ATOM     29  C   UNL     1       7.915  -1.616  -1.102  0.00  0.00    +0.175 A 
ATOM     30  C   UNL     1       8.694  -2.752  -1.151  0.00  0.00    +0.053 A 
ATOM     31  C   UNL     1       8.455  -3.346  -2.399  0.00  0.00    +0.045 A 
ATOM     32  C   UNL     1       7.567  -2.562  -3.052  0.00  0.00    +0.103 A 
ATOM     33  O   UNL     1       7.245  -1.523  -2.270  0.00  0.00    -0.457 OA
ATOM     34  C   UNL     1       7.027  -2.816  -4.435  0.00  0.00    +0.086 C 
ENDBRANCH  27  29
ENDBRANCH  12  27
BRANCH   1  35
ATOM     35  O   UNL     1      -2.456   3.837  -0.174  0.00  0.00    -0.492 OA
BRANCH  35  37
ATOM     36  C   UNL     1      -4.871   3.914  -0.181  0.00  0.00    +0.048 C 
ATOM     37  C   UNL     1      -3.629   3.022  -0.143  0.00  0.00    +0.225 C 
ENDBRANCH  35  37
ENDBRANCH   1  35
TORSDOF 8
