REMARK  Name = ZINC23039172
REMARK  11 active torsions:
REMARK  status: ('A' for Active; 'I' for Inactive)
REMARK    1  A    between atoms: C_1  and  C_2
REMARK    2  A    between atoms: C_3  and  C_30
REMARK    3  A    between atoms: C_4  and  C_29
REMARK    4  A    between atoms: C_7  and  C_8
REMARK    5  A    between atoms: C_8  and  C_10
REMARK    6  A    between atoms: C_10  and  C_12
REMARK    7  A    between atoms: C_10  and  N_13
REMARK    8  A    between atoms: N_16  and  S_19
REMARK    9  A    between atoms: S_19  and  C_22
REMARK   10  A    between atoms: C_30  and  O_32
REMARK   11  A    between atoms: O_32  and  C_33
REMARK                            x       y       z     vdW  Elec       q    Type
REMARK                         _______ _______ _______ _____ _____    ______ ____
ROOT
ATOM      1  N   UNL     1      -4.981   2.309   0.238  0.00  0.00    +0.388 N 
ATOM      2  C   UNL     1      -6.122   3.232   0.169  0.00  0.00    -0.060 C 
ATOM      3  C   UNL     1      -7.421   2.450   0.391  0.00  0.00    +0.091 C 
ATOM      4  N   UNL     1      -7.305   1.699   1.650  0.00  0.00    -0.180 NA
ATOM      5  C   UNL     1      -6.116   0.856   1.850  0.00  0.00    +0.091 C 
ATOM      6  C   UNL     1      -4.868   1.700   1.570  0.00  0.00    -0.060 C 
ATOM      7  H   UNL     1      -5.161   1.499  -0.485  0.00  0.00    -0.081 HD
ENDROOT
BRANCH   4   8
ATOM      8  S   UNL     1      -8.481   1.799   2.811  0.00  0.00    +0.062 S 
ATOM      9  O   UNL     1      -7.831   1.630   4.064  0.00  0.00    -0.153 OA
ATOM     10  O   UNL     1      -9.258   2.949   2.505  0.00  0.00    -0.153 OA
BRANCH   8  11
ATOM     11  C   UNL     1      -9.540   0.406   2.602  0.00  0.00    +0.124 A 
ATOM     12  C   UNL     1      -9.596  -0.573   3.576  0.00  0.00    +0.030 A 
ATOM     13  C   UNL     1     -10.430  -1.663   3.414  0.00  0.00    +0.002 A 
ATOM     14  C   UNL     1     -11.200  -1.781   2.272  0.00  0.00    +0.002 A 
ATOM     15  C   UNL     1     -11.141  -0.806   1.295  0.00  0.00    +0.022 A 
ATOM     16  C   UNL     1     -10.311   0.288   1.459  0.00  0.00    +0.067 A 
ATOM     17 CL   UNL     1     -10.235   1.513   0.231  0.00  0.00    -0.082 Cl
ENDBRANCH   8  11
ENDBRANCH   4   8
BRANCH   1  18
ATOM     18  C   UNL     1      -3.733   2.985  -0.139  0.00  0.00    +0.003 C 
ATOM     19  C   UNL     1      -3.929   3.713  -1.471  0.00  0.00    -0.005 C 
BRANCH  18  20
ATOM     20  C   UNL     1      -2.632   1.966  -0.282  0.00  0.00    +0.166 C 
ATOM     21  O   UNL     1      -2.906   0.788  -0.391  0.00  0.00    -0.292 OA
BRANCH  20  28
ATOM     22  C   UNL     1      -0.193   0.059  -0.561  0.00  0.00    +0.047 C 
ATOM     23  C   UNL     1      -0.180   1.558  -0.410  0.00  0.00    -0.008 A 
ATOM     24  C   UNL     1       0.959   2.391  -0.374  0.00  0.00    +0.083 A 
ATOM     25  C   UNL     1       0.510   3.692  -0.224  0.00  0.00    +0.028 A 
ATOM     26  N   UNL     1      -0.830   3.680  -0.170  0.00  0.00    -0.355 N 
ATOM     27  H   UNL     1      -1.383   4.623  -0.047  0.00  0.00    +0.166 HD
ATOM     28  C   UNL     1      -1.279   2.381  -0.288  0.00  0.00    +0.084 A 
ATOM     29  C   UNL     1       1.383   4.917  -0.137  0.00  0.00    +0.064 C 
BRANCH  24  30
ATOM     30  C   UNL     1       2.363   1.956  -0.476  0.00  0.00    +0.341 C 
ATOM     31  O   UNL     1       2.898   1.883  -1.565  0.00  0.00    -0.245 OA
BRANCH  30  32
ATOM     32  O   UNL     1       3.053   1.641   0.637  0.00  0.00    -0.464 OA
ATOM     33  C   UNL     1       4.432   1.221   0.461  0.00  0.00    +0.280 C 
ENDBRANCH  30  32
ENDBRANCH  24  30
ENDBRANCH  20  28
ENDBRANCH  18  20
ENDBRANCH   1  18
TORSDOF 7
