REMARK  Name = ZINC11898341
REMARK  9 active torsions:
REMARK  status: ('A' for Active; 'I' for Inactive)
REMARK    1  A    between atoms: C_1  and  C_2
REMARK    2  A    between atoms: C_4  and  N_27
REMARK    3  A    between atoms: C_7  and  N_8
REMARK    4  A    between atoms: C_9  and  C_11
REMARK    5  A    between atoms: N_13  and  C_14
REMARK    6  A    between atoms: C_14  and  C_15
REMARK    7  A    between atoms: C_15  and  C_17
REMARK    8  A    between atoms: C_15  and  N_54
REMARK    9  A    between atoms: N_21  and  C_22
REMARK                            x       y       z     vdW  Elec       q    Type
REMARK                         _______ _______ _______ _____ _____    ______ ____
ROOT
ATOM      1  C   UNL     1       3.249   1.233  -1.543  0.00  0.00    +0.299 C 
ATOM      2  O   UNL     1       3.743   1.732  -2.532  0.00  0.00    -0.265 OA
ATOM      3  N   UNL     1       1.919   1.025  -1.485  0.00  0.00    -0.309 N 
ATOM      4  H   UNL     1       1.524   0.625  -0.694  0.00  0.00    +0.149 HD
ENDROOT
BRANCH   1   6
ATOM      5  N   UNL     1       5.446   1.057  -0.446  0.00  0.00    -0.278 N 
ATOM      6  C   UNL     1       4.115   0.849  -0.389  0.00  0.00    +0.303 C 
ATOM      7  O   UNL     1       3.622   0.349   0.601  0.00  0.00    -0.265 OA
ATOM      8  H   UNL     1       5.832   1.517  -1.207  0.00  0.00    +0.155 HD
BRANCH   5  15
ATOM      9  C   UNL     1       8.154   0.431  -1.054  0.00  0.00    +0.046 C 
ATOM     10  C   UNL     1       7.597   0.293   0.339  0.00  0.00    -0.027 A 
ATOM     11  C   UNL     1       8.409  -0.143   1.368  0.00  0.00    +0.038 A 
ATOM     12  C   UNL     1       7.897  -0.275   2.646  0.00  0.00    +0.127 A 
ATOM     13  C   UNL     1       6.573   0.034   2.900  0.00  0.00    +0.034 A 
ATOM     14  C   UNL     1       5.757   0.476   1.877  0.00  0.00    +0.026 A 
ATOM     15  C   UNL     1       6.268   0.610   0.592  0.00  0.00    +0.037 A 
BRANCH  12  16
ATOM     16  N   UNL     1       8.768  -0.750   3.745  0.00  0.00    +0.056 N 
ATOM     17  O   UNL     1       8.318  -0.867   4.871  0.00  0.00    -0.126 OA
ATOM     18  O   UNL     1       9.934  -1.022   3.523  0.00  0.00    -0.126 OA
ENDBRANCH  12  16
ENDBRANCH   5  15
ENDBRANCH   1   6
BRANCH   3  19
ATOM     19  C   UNL     1       1.069   1.401  -2.617  0.00  0.00    +0.095 C 
BRANCH  19  20
ATOM     20  C   UNL     1      -0.368   0.950  -2.349  0.00  0.00    -0.003 C 
BRANCH  20  21
ATOM     21  C   UNL     1      -1.260   1.422  -3.468  0.00  0.00    +0.006 A 
ATOM     22  C   UNL     1      -2.282   2.294  -3.350  0.00  0.00    +0.021 A 
ATOM     23  C   UNL     1      -2.847   2.458  -4.630  0.00  0.00    +0.019 A 
ATOM     24  C   UNL     1      -2.149   1.680  -5.482  0.00  0.00    +0.085 A 
ATOM     25  N   UNL     1      -1.170   1.046  -4.775  0.00  0.00    -0.355 N 
ATOM     26  C   UNL     1      -0.186   0.112  -5.329  0.00  0.00    +0.148 C 
ENDBRANCH  20  21
BRANCH  20  31
ATOM     27  C   UNL     1      -2.260   1.192  -0.834  0.00  0.00    -0.078 C 
ATOM     28  C   UNL     1      -2.740   2.251   0.181  0.00  0.00    -0.020 C 
ATOM     29  C   UNL     1      -1.780   3.447  -0.009  0.00  0.00    -0.020 C 
ATOM     30  C   UNL     1      -0.804   3.007  -1.121  0.00  0.00    -0.078 C 
ATOM     31  N   UNL     1      -0.860   1.542  -1.065  0.00  0.00    +0.386 N 
ATOM     32  H   UNL     1      -0.280   1.197  -0.291  0.00  0.00    -0.081 HD
ENDBRANCH  20  31
ENDBRANCH  19  20
ENDBRANCH   3  19
TORSDOF 7
