REMARK  Name = ZINC36007659
REMARK  9 active torsions:
REMARK  status: ('A' for Active; 'I' for Inactive)
REMARK    1  A    between atoms: C_1  and  C_2
REMARK    2  A    between atoms: C_7  and  C_8
REMARK    3  A    between atoms: C_7  and  C_9
REMARK    4  A    between atoms: C_11  and  N_13
REMARK    5  A    between atoms: C_14  and  C_16
REMARK    6  A    between atoms: C_16  and  O_17
REMARK    7  A    between atoms: O_17  and  C_18
REMARK    8  A    between atoms: C_18  and  C_20
REMARK    9  A    between atoms: C_20  and  N_21
REMARK                            x       y       z     vdW  Elec       q    Type
REMARK                         _______ _______ _______ _____ _____    ______ ____
ROOT
ATOM      1  O   UNL     1       0.321  -0.623  -6.007  0.00  0.00    -0.454 OA
ENDROOT
BRANCH   1   2
ATOM      2  C   UNL     1      -0.326  -0.648  -7.183  0.00  0.00    +0.326 C 
ATOM      3  O   UNL     1      -1.532  -0.727  -7.207  0.00  0.00    -0.249 OA
BRANCH   2   4
ATOM      4  C   UNL     1       0.451  -0.577  -8.472  0.00  0.00    +0.238 C 
BRANCH   4   5
ATOM      5  N   UNL     1      -0.478  -0.621  -9.604  0.00  0.00    -0.213 N 
ATOM      6  C   UNL     1      -0.889  -1.758 -10.205  0.00  0.00    +0.247 C 
ATOM      7  O   UNL     1      -0.575  -2.894  -9.923  0.00  0.00    -0.273 OA
ATOM      8  C   UNL     1      -1.824  -1.313 -11.301  0.00  0.00    +0.113 C 
ATOM      9  C   UNL     1      -1.314  -1.763 -12.677  0.00  0.00    +0.035 C 
ATOM     10  C   UNL     1      -2.133  -3.044 -12.979  0.00  0.00    +0.003 C 
ATOM     11  C   UNL     1      -3.530  -2.706 -12.399  0.00  0.00    +0.003 C 
ATOM     12  C   UNL     1      -3.222  -1.906 -11.113  0.00  0.00    +0.035 C 
ATOM     13  N   UNL     1      -1.844   0.147 -11.196  0.00  0.00    -0.285 N 
ATOM     14  C   UNL     1      -1.028   0.462 -10.169  0.00  0.00    +0.310 C 
ATOM     15  O   UNL     1      -0.814   1.600  -9.800  0.00  0.00    -0.252 OA
ATOM     16  H   UNL     1      -2.345   0.764 -11.751  0.00  0.00    +0.151 HD
ENDBRANCH   4   5
ENDBRANCH   2   4
ENDBRANCH   1   2
BRANCH   1  17
ATOM     17  C   UNL     1      -0.478  -0.694  -4.825  0.00  0.00    +0.327 C 
BRANCH  17  19
ATOM     18  N   UNL     1      -0.124  -0.708  -2.377  0.00  0.00    -0.309 N 
ATOM     19  C   UNL     1       0.414  -0.654  -3.611  0.00  0.00    +0.251 C 
ATOM     20  O   UNL     1       1.617  -0.572  -3.746  0.00  0.00    -0.272 OA
ATOM     21  H   UNL     1      -1.085  -0.773  -2.269  0.00  0.00    +0.149 HD
BRANCH  18  31
ATOM     22  C   UNL     1       2.080   1.558  -1.535  0.00  0.00    +0.013 C 
ATOM     23  C   UNL     1       0.998   0.805  -0.758  0.00  0.00    -0.008 C 
ATOM     24  C   UNL     1      -0.411   1.473  -0.730  0.00  0.00    +0.009 C 
ATOM     25  C   UNL     1      -1.123   0.832   0.483  0.00  0.00    +0.005 C 
ATOM     26  C   UNL     1      -0.078  -0.162   1.074  0.00  0.00    -0.003 C 
ATOM     27  C   UNL     1       1.256   0.610   0.778  0.00  0.00    -0.025 C 
ATOM     28  C   UNL     1       1.325   1.945   1.523  0.00  0.00    +0.012 C 
ATOM     29  C   UNL     1       2.491  -0.254   1.047  0.00  0.00    +0.012 C 
ATOM     30  C   UNL     1      -0.004  -1.317   0.030  0.00  0.00    +0.027 C 
ATOM     31  C   UNL     1       0.744  -0.669  -1.197  0.00  0.00    +0.080 C 
ENDBRANCH  18  31
ENDBRANCH  17  19
ENDBRANCH   1  17
TORSDOF 6
