REMARK  Name = ZINC56852914
REMARK  7 active torsions:
REMARK  status: ('A' for Active; 'I' for Inactive)
REMARK    1  A    between atoms: C_1  and  C_2
REMARK    2  A    between atoms: C_3  and  C_7
REMARK    3  A    between atoms: N_9  and  N_10
REMARK    4  A    between atoms: N_13  and  C_14
REMARK    5  A    between atoms: C_14  and  C_16
REMARK    6  A    between atoms: C_14  and  C_17
REMARK    7  A    between atoms: C_22  and  C_23
REMARK                            x       y       z     vdW  Elec       q    Type
REMARK                         _______ _______ _______ _____ _____    ______ ____
ROOT
ATOM      1  N   UNL     1      -4.827  -0.946   0.021  0.00  0.00    -0.218 N 
ATOM      2  C   UNL     1      -5.800  -1.878   0.020  0.00  0.00    +0.316 C 
ATOM      3  O   UNL     1      -6.968  -1.538   0.028  0.00  0.00    -0.251 OA
ATOM      4  N   UNL     1      -5.479  -3.187   0.010  0.00  0.00    -0.292 N 
ATOM      5  H   UNL     1      -5.058  -0.004   0.028  0.00  0.00    +0.174 HD
ATOM      6  H   UNL     1      -4.548  -3.458   0.004  0.00  0.00    +0.151 HD
ENDROOT
BRANCH   1   9
ATOM      7  C   UNL     1      -2.508  -0.405   0.012  0.00  0.00    +0.263 C 
ATOM      8  O   UNL     1      -2.798   0.776   0.021  0.00  0.00    -0.269 OA
ATOM      9  N   UNL     1      -3.482  -1.337   0.011  0.00  0.00    -0.229 N 
ATOM     10  H   UNL     1      -3.251  -2.280   0.005  0.00  0.00    +0.173 HD
BRANCH   7  13
ATOM     11  C   UNL     1      -0.018   1.503   0.010  0.00  0.00    +0.087 C 
ATOM     12  C   UNL     1       0.002  -0.004   0.002  0.00  0.00    +0.114 A 
ATOM     13  C   UNL     1      -1.093  -0.817   0.003  0.00  0.00    +0.079 A 
ATOM     14  C   UNL     1      -0.567  -2.190  -0.008  0.00  0.00    +0.054 A 
ATOM     15  C   UNL     1       0.769  -2.073  -0.014  0.00  0.00    +0.196 A 
ATOM     16  O   UNL     1       1.097  -0.771  -0.013  0.00  0.00    -0.467 OA
ENDBRANCH   7  13
ENDBRANCH   1   9
BRANCH   4  17
ATOM     17  C   UNL     1      -6.537  -4.201   0.010  0.00  0.00    +0.102 C 
ATOM     18  C   UNL     1      -6.985  -4.471   1.447  0.00  0.00    +0.033 C 
BRANCH  17  19
ATOM     19  C   UNL     1      -6.012  -5.474  -0.601  0.00  0.00    -0.016 A 
ATOM     20  C   UNL     1      -4.657  -5.747  -0.574  0.00  0.00    +0.006 A 
ATOM     21  C   UNL     1      -4.175  -6.915  -1.135  0.00  0.00    +0.000 A 
ATOM     22  C   UNL     1      -5.049  -7.811  -1.721  0.00  0.00    +0.001 A 
ATOM     23  C   UNL     1      -6.404  -7.540  -1.748  0.00  0.00    +0.013 A 
ATOM     24  C   UNL     1      -6.886  -6.373  -1.183  0.00  0.00    +0.060 A 
BRANCH  24  25
ATOM     25  C   UNL     1      -8.364  -6.080  -1.207  0.00  0.00    +0.418 C 
ATOM     26  F   UNL     1      -9.037  -7.127  -1.844  0.00  0.00    -0.166 F 
ATOM     27  F   UNL     1      -8.835  -5.951   0.104  0.00  0.00    -0.166 F 
ATOM     28  F   UNL     1      -8.591  -4.888  -1.903  0.00  0.00    -0.166 F 
ENDBRANCH  24  25
ENDBRANCH  17  19
ENDBRANCH   4  17
TORSDOF 5
