REMARK  Name = ZINC05807487
REMARK  6 active torsions:
REMARK  status: ('A' for Active; 'I' for Inactive)
REMARK    1  A    between atoms: C_1  and  C_2
REMARK    2  A    between atoms: C_2  and  C_3
REMARK    3  A    between atoms: C_3  and  C_4
REMARK    4  A    between atoms: C_6  and  O_18
REMARK    5  A    between atoms: C_9  and  C_16
REMARK    6  A    between atoms: C_10  and  O_15
REMARK                            x       y       z     vdW  Elec       q    Type
REMARK                         _______ _______ _______ _____ _____    ______ ____
ROOT
ATOM      1  C   UNL     1      -0.694   1.558   3.746  0.00  0.00    -0.026 A 
ATOM      2  C   UNL     1      -0.285   2.715   4.387  0.00  0.00    +0.092 A 
ATOM      3  C   UNL     1      -0.949   3.142   5.525  0.00  0.00    +0.285 A 
ATOM      4  O   UNL     1      -1.984   2.457   6.023  0.00  0.00    -0.424 OA
ATOM      5  C   UNL     1      -2.419   1.327   5.436  0.00  0.00    +0.157 A 
ATOM      6  C   UNL     1      -3.508   0.615   5.968  0.00  0.00    +0.099 A 
ATOM      7  C   UNL     1      -3.960  -0.570   5.348  0.00  0.00    +0.134 A 
ATOM      8  C   UNL     1      -3.353  -1.059   4.214  0.00  0.00    +0.097 A 
ATOM      9  C   UNL     1      -2.264  -0.384   3.647  0.00  0.00    +0.193 A 
ATOM     10  O   UNL     1      -1.723  -0.817   2.639  0.00  0.00    -0.287 OA
ATOM     11  C   UNL     1      -1.786   0.852   4.275  0.00  0.00    +0.068 A 
ENDROOT
BRANCH   7  12
ATOM     12  O   UNL     1      -5.012  -1.238   5.880  0.00  0.00    -0.506 OA
ATOM     13  H   UNL     1      -5.871  -0.959   5.534  0.00  0.00    +0.292 HD
ENDBRANCH   7  12
BRANCH   6  14
ATOM     14  C   UNL     1      -4.155   1.088   7.132  0.00  0.00    +0.266 C 
ATOM     15  O   UNL     1      -5.096   0.476   7.596  0.00  0.00    -0.295 OA
ENDBRANCH   6  14
BRANCH   3  16
ATOM     16  O   UNL     1      -0.544   4.269   6.142  0.00  0.00    -0.480 OA
ATOM     17  H   UNL     1      -0.952   5.097   5.855  0.00  0.00    +0.295 HD
ENDBRANCH   3  16
BRANCH   1  18
ATOM     18  C   UNL     1       0.011   1.072   2.506  0.00  0.00    +0.036 C 
BRANCH  18  20
ATOM     19  C   UNL     1      -0.013   1.086   0.008  0.00  0.00    +0.004 C 
ATOM     20  C   UNL     1      -0.729   1.579   1.267  0.00  0.00    +0.001 C 
ENDBRANCH  18  20
ENDBRANCH   1  18
TORSDOF 5
