REMARK  Name = ZINC12555949
REMARK  9 active torsions:
REMARK  status: ('A' for Active; 'I' for Inactive)
REMARK    1  A    between atoms: C_1  and  C_2
REMARK    2  A    between atoms: C_5  and  S_8
REMARK    3  A    between atoms: S_8  and  N_11
REMARK    4  A    between atoms: C_13  and  C_20
REMARK    5  A    between atoms: C_21  and  C_22
REMARK    6  A    between atoms: C_21  and  C_24
REMARK    7  A    between atoms: N_26  and  C_27
REMARK    8  A    between atoms: C_30  and  N_34
REMARK    9  A    between atoms: C_32  and  O_33
REMARK                            x       y       z     vdW  Elec       q    Type
REMARK                         _______ _______ _______ _____ _____    ______ ____
ROOT
ATOM      1  N   UNL     1       2.327   4.276   0.300  0.00  0.00    -0.218 N 
ATOM      2  C   UNL     1       1.752   5.487   0.164  0.00  0.00    +0.121 A 
ATOM      3  C   UNL     1       0.379   5.359   0.250  0.00  0.00    +0.003 A 
ATOM      4  C   UNL     1       0.113   3.921   0.459  0.00  0.00    +0.009 A 
ATOM      5  C   UNL     1       1.370   3.298   0.481  0.00  0.00    +0.073 A 
ATOM      6  C   UNL     1       1.444   1.921   0.666  0.00  0.00    +0.028 A 
ATOM      7  C   UNL     1       0.289   1.185   0.824  0.00  0.00    +0.002 A 
ATOM      8  C   UNL     1      -0.952   1.803   0.797  0.00  0.00    +0.001 A 
ATOM      9  C   UNL     1      -1.045   3.167   0.621  0.00  0.00    +0.010 A 
ENDROOT
BRANCH   1  10
ATOM     10  S   UNL     1       3.959   3.999   0.256  0.00  0.00    +0.084 S 
ATOM     11  O   UNL     1       4.164   2.917  -0.643  0.00  0.00    -0.148 OA
ATOM     12  O   UNL     1       4.581   5.264   0.079  0.00  0.00    -0.148 OA
BRANCH  10  17
ATOM     13  C   UNL     1       5.581   2.027   5.723  0.00  0.00    +0.044 C 
ATOM     14  C   UNL     1       5.177   2.520   4.357  0.00  0.00    -0.050 A 
ATOM     15  C   UNL     1       4.790   1.618   3.384  0.00  0.00    +0.005 A 
ATOM     16  C   UNL     1       4.418   2.069   2.131  0.00  0.00    +0.029 A 
ATOM     17  C   UNL     1       4.433   3.423   1.852  0.00  0.00    +0.111 A 
ATOM     18  C   UNL     1       4.825   4.325   2.824  0.00  0.00    +0.029 A 
ATOM     19  C   UNL     1       5.192   3.874   4.078  0.00  0.00    +0.005 A 
ENDBRANCH  10  17
ENDBRANCH   1  10
BRANCH   3  20
ATOM     20  C   UNL     1      -0.578   6.395   0.157  0.00  0.00    +0.034 C 
ATOM     21  C   UNL     1      -0.225   7.615  -0.391  0.00  0.00    +0.114 C 
BRANCH  21  22
ATOM     22  C   UNL     1      -1.147   8.754  -0.302  0.00  0.00    +0.259 C 
ATOM     23  O   UNL     1      -2.222   8.625   0.254  0.00  0.00    -0.269 OA
ATOM     24  N   UNL     1      -0.803   9.943  -0.836  0.00  0.00    -0.278 N 
ATOM     25  H   UNL     1       0.010  10.023  -1.359  0.00  0.00    +0.155 HD
BRANCH  24  26
ATOM     26  C   UNL     1      -1.619  11.063  -0.635  0.00  0.00    +0.076 A 
ATOM     27  C   UNL     1      -2.490  11.105   0.445  0.00  0.00    +0.029 A 
ATOM     28  C   UNL     1      -3.294  12.211   0.641  0.00  0.00    +0.035 A 
ATOM     29  C   UNL     1      -3.233  13.279  -0.236  0.00  0.00    +0.130 A 
ATOM     30  C   UNL     1      -2.368  13.245  -1.313  0.00  0.00    +0.080 A 
ATOM     31  C   UNL     1      -1.554  12.142  -1.515  0.00  0.00    +0.140 A 
BRANCH  29  32
ATOM     32  N   UNL     1      -4.096  14.462  -0.020  0.00  0.00    +0.057 N 
ATOM     33  O   UNL     1      -4.859  14.494   0.929  0.00  0.00    -0.126 OA
ATOM     34  O   UNL     1      -4.044  15.403  -0.791  0.00  0.00    -0.126 OA
ENDBRANCH  29  32
BRANCH  31  35
ATOM     35  O   UNL     1      -0.699  12.109  -2.571  0.00  0.00    -0.505 OA
ATOM     36  H   UNL     1      -1.080  11.731  -3.375  0.00  0.00    +0.292 HD
ENDBRANCH  31  35
ENDBRANCH  24  26
ENDBRANCH  21  22
BRANCH  21  37
ATOM     37  C   UNL     1       1.040   7.768  -1.045  0.00  0.00    +0.104 C 
ATOM     38  N   UNL     1       2.044   7.889  -1.563  0.00  0.00    -0.191 NA
ENDBRANCH  21  37
ENDBRANCH   3  20
TORSDOF 8
