REMARK  Name = ZINC55173964
REMARK  5 active torsions:
REMARK  status: ('A' for Active; 'I' for Inactive)
REMARK    1  A    between atoms: C_1  and  C_2
REMARK    2  A    between atoms: C_3  and  C_8
REMARK    3  A    between atoms: N_10  and  C_11
REMARK    4  A    between atoms: N_10  and  C_18
REMARK    5  A    between atoms: C_11  and  C_12
REMARK                            x       y       z     vdW  Elec       q    Type
REMARK                         _______ _______ _______ _____ _____    ______ ____
ROOT
ATOM      1  C   UNL     1       0.273  -0.210  -2.625  0.00  0.00    +0.255 C 
ATOM      2  O   UNL     1       0.726  -0.579  -1.557  0.00  0.00    -0.269 OA
ATOM      3  N   UNL     1      -0.035  -1.114  -3.575  0.00  0.00    -0.294 N 
ENDROOT
BRANCH   1   6
ATOM      4  C   UNL     1       0.542   2.113  -0.560  0.00  0.00    +0.067 C 
ATOM      5  C   UNL     1       0.166   2.293  -2.008  0.00  0.00    +0.060 A 
ATOM      6  C   UNL     1       0.062   1.215  -2.876  0.00  0.00    +0.098 A 
ATOM      7  S   UNL     1      -0.398   2.052  -4.385  0.00  0.00    -0.048 S 
ATOM      8  C   UNL     1      -0.412   3.624  -3.786  0.00  0.00    +0.156 A 
ATOM      9  N   UNL     1      -0.087   3.474  -2.514  0.00  0.00    -0.230 NA
ATOM     10  N   UNL     1      -0.700   4.791  -4.460  0.00  0.00    -0.337 N 
ATOM     11  H   UNL     1      -0.930   4.763  -5.402  0.00  0.00    +0.144 HD
ATOM     12  H   UNL     1      -0.672   5.641  -3.993  0.00  0.00    +0.144 HD
ENDBRANCH   1   6
BRANCH   3  13
ATOM     13  C   UNL     1      -0.012  -2.545  -3.260  0.00  0.00    +0.076 C 
ATOM     14  C   UNL     1      -0.010  -2.943  -1.783  0.00  0.00    +0.024 C 
ATOM     15  C   UNL     1       1.259  -3.107  -2.621  0.00  0.00    +0.024 C 
ENDBRANCH   3  13
BRANCH   3  16
ATOM     16  C   UNL     1      -0.393  -0.667  -4.924  0.00  0.00    +0.112 C 
BRANCH  16  17
ATOM     17  C   UNL     1       0.857  -0.657  -5.806  0.00  0.00    +0.006 C 
ATOM     18  C   UNL     1       1.910   0.265  -5.189  0.00  0.00    +0.005 C 
ATOM     19  C   UNL     1       3.160   0.274  -6.072  0.00  0.00    +0.000 C 
ATOM     20  C   UNL     1       2.794   0.781  -7.468  0.00  0.00    +0.000 C 
ATOM     21  C   UNL     1       1.741  -0.141  -8.086  0.00  0.00    +0.000 C 
ATOM     22  C   UNL     1       0.491  -0.151  -7.203  0.00  0.00    +0.005 C 
ENDBRANCH  16  17
ENDBRANCH   3  16
TORSDOF 4
