REMARK  Name = ZINC05993663
REMARK  6 active torsions:
REMARK  status: ('A' for Active; 'I' for Inactive)
REMARK    1  A    between atoms: C_1  and  C_2
REMARK    2  A    between atoms: C_2  and  C_4
REMARK    3  A    between atoms: C_2  and  S_11
REMARK    4  A    between atoms: S_11  and  C_12
REMARK    5  A    between atoms: C_15  and  C_18
REMARK    6  A    between atoms: N_16  and  N_17
REMARK                            x       y       z     vdW  Elec       q    Type
REMARK                         _______ _______ _______ _____ _____    ______ ____
ROOT
ATOM      1  C   UNL     1      -4.037   6.017  -0.772  0.00  0.00    +0.209 A 
ATOM      2  N   UNL     1      -5.064   5.385  -0.252  0.00  0.00    -0.121 NA
ATOM      3  N   UNL     1      -6.131   6.084  -0.407  0.00  0.00    -0.123 NA
ATOM      4  C   UNL     1      -5.852   7.194  -1.029  0.00  0.00    +0.255 A 
ATOM      5  N   UNL     1      -4.508   7.194  -1.279  0.00  0.00    -0.220 N 
ENDROOT
BRANCH   4   6
ATOM      6  C   UNL     1      -6.829   8.280  -1.399  0.00  0.00    +0.454 C 
ATOM      7  F   UNL     1      -8.021   8.097  -0.689  0.00  0.00    -0.163 F 
ATOM      8  F   UNL     1      -6.283   9.528  -1.079  0.00  0.00    -0.163 F 
ATOM      9  F   UNL     1      -7.091   8.225  -2.772  0.00  0.00    -0.163 F 
ENDBRANCH   4   6
BRANCH   5  10
ATOM     10  N   UNL     1      -3.785   8.169  -1.907  0.00  0.00    -0.295 N 
ATOM     11  H   UNL     1      -3.751   8.008  -2.903  0.00  0.00    +0.163 HD
ATOM     12  H   UNL     1      -4.157   9.084  -1.702  0.00  0.00    +0.163 HD
ENDBRANCH   5  10
BRANCH   1  13
ATOM     13  S   UNL     1      -2.367   5.456  -0.803  0.00  0.00    -0.077 S 
BRANCH  13  15
ATOM     14  C   UNL     1      -2.985   4.110   1.493  0.00  0.00    +0.024 C 
ATOM     15  C   UNL     1      -2.554   3.868   0.045  0.00  0.00    +0.083 C 
BRANCH  15  16
ATOM     16  C   UNL     1      -1.238   3.132   0.030  0.00  0.00    -0.016 A 
ATOM     17  C   UNL     1      -0.053   3.838  -0.057  0.00  0.00    +0.006 A 
ATOM     18  C   UNL     1       1.153   3.164  -0.076  0.00  0.00    +0.000 A 
ATOM     19  C   UNL     1       1.176   1.784   0.002  0.00  0.00    +0.001 A 
ATOM     20  C   UNL     1      -0.008   1.077   0.095  0.00  0.00    +0.020 A 
ATOM     21  C   UNL     1      -1.217   1.752   0.109  0.00  0.00    +0.045 A 
ATOM     22 CL   UNL     1      -2.705   0.865   0.226  0.00  0.00    -0.083 Cl
ENDBRANCH  15  16
ENDBRANCH  13  15
ENDBRANCH   1  13
TORSDOF 5
