REMARK  Name = ZINC39993375
REMARK  5 active torsions:
REMARK  status: ('A' for Active; 'I' for Inactive)
REMARK    1  A    between atoms: C_2  and  C_3
REMARK    2  A    between atoms: C_3  and  N_4
REMARK    3  A    between atoms: C_5  and  N_6
REMARK    4  A    between atoms: C_7  and  C_20
REMARK    5  A    between atoms: N_22  and  C_23
REMARK                            x       y       z     vdW  Elec       q    Type
REMARK                         _______ _______ _______ _____ _____    ______ ____
ROOT
ATOM      1  N   UNL     1      -1.295  -1.736  -1.195  0.00  0.00    -0.309 N 
ATOM      2  C   UNL     1      -1.808  -1.294  -2.328  0.00  0.00    +0.110 A 
ATOM      3  C   UNL     1      -1.873  -2.116  -3.475  0.00  0.00    +0.076 A 
ATOM      4  C   UNL     1      -1.384  -3.423  -3.406  0.00  0.00    +0.033 A 
ATOM      5  C   UNL     1      -0.849  -3.857  -2.195  0.00  0.00    +0.083 A 
ATOM      6  C   UNL     1      -0.810  -2.974  -1.082  0.00  0.00    +0.150 A 
ATOM      7  N   UNL     1      -0.288  -3.410   0.069  0.00  0.00    -0.211 NA
ATOM      8  C   UNL     1       0.199  -4.637   0.206  0.00  0.00    +0.143 A 
ATOM      9  C   UNL     1       0.732  -5.015   1.457  0.00  0.00    +0.047 A 
ATOM     10  C   UNL     1       1.238  -6.267   1.623  0.00  0.00    +0.005 A 
ATOM     11  C   UNL     1       1.224  -7.169   0.549  0.00  0.00    +0.018 A 
ATOM     12  C   UNL     1       0.712  -6.795  -0.643  0.00  0.00    +0.096 A 
ATOM     13  N   UNL     1       0.201  -5.542  -0.822  0.00  0.00    -0.268 N 
ATOM     14  C   UNL     1      -0.314  -5.210  -2.029  0.00  0.00    +0.268 A 
ATOM     15  O   UNL     1      -0.318  -6.005  -2.951  0.00  0.00    -0.267 OA
ENDROOT
BRANCH   3  16
ATOM     16  C   UNL     1      -2.449  -1.603  -4.727  0.00  0.00    +0.252 C 
ATOM     17  O   UNL     1      -2.786  -0.436  -4.808  0.00  0.00    -0.270 OA
ATOM     18  N   UNL     1      -2.604  -2.424  -5.784  0.00  0.00    -0.280 N 
ATOM     19  H   UNL     1      -2.413  -3.370  -5.695  0.00  0.00    +0.155 HD
BRANCH  18  20
ATOM     20  C   UNL     1      -3.042  -1.911  -7.010  0.00  0.00    +0.054 A 
ATOM     21  C   UNL     1      -2.833  -0.573  -7.319  0.00  0.00    +0.025 A 
ATOM     22  C   UNL     1      -3.266  -0.070  -8.530  0.00  0.00    +0.003 A 
ATOM     23  C   UNL     1      -3.907  -0.895  -9.436  0.00  0.00    +0.021 A 
ATOM     24  C   UNL     1      -4.118  -2.228  -9.132  0.00  0.00    +0.061 A 
ATOM     25  C   UNL     1      -3.682  -2.740  -7.923  0.00  0.00    +0.080 A 
ATOM     26 CL   UNL     1      -3.940  -4.415  -7.545  0.00  0.00    -0.080 Cl
ATOM     27 CL   UNL     1      -4.924  -3.261 -10.271  0.00  0.00    -0.082 Cl
ENDBRANCH  18  20
ENDBRANCH   3  16
BRANCH   2  28
ATOM     28  N   UNL     1      -2.290  -0.004  -2.393  0.00  0.00    -0.344 N 
ATOM     29  H   UNL     1      -2.318   0.544  -1.593  0.00  0.00    +0.144 HD
ATOM     30  H   UNL     1      -2.601   0.355  -3.239  0.00  0.00    +0.144 HD
ENDBRANCH   2  28
BRANCH   1  31
ATOM     31  C   UNL     1      -1.250  -0.843  -0.034  0.00  0.00    +0.151 C 
BRANCH  31  33
ATOM     32  C   UNL     1       0.029   1.236   0.002  0.00  0.00    +0.005 C 
ATOM     33  C   UNL     1       0.045  -0.073  -0.042  0.00  0.00    -0.013 C 
ENDBRANCH  31  33
ENDBRANCH   1  31
TORSDOF 5
