REMARK  Name = ZINC12604325
REMARK  4 active torsions:
REMARK  status: ('A' for Active; 'I' for Inactive)
REMARK    1  A    between atoms: C_1  and  C_2
REMARK    2  A    between atoms: C_2  and  S_3
REMARK    3  A    between atoms: S_3  and  C_4
REMARK    4  A    between atoms: C_15  and  C_22
REMARK                            x       y       z     vdW  Elec       q    Type
REMARK                         _______ _______ _______ _____ _____    ______ ____
ROOT
ATOM      1  C   UNL     1       1.384   7.904  -2.146  0.00  0.00    +0.066 C 
ATOM      2  C   UNL     1       2.488   6.815  -2.202  0.00  0.00    +0.047 C 
ATOM      3  C   UNL     1       1.794   5.590  -1.572  0.00  0.00    +0.164 C 
ATOM      4  C   UNL     1       2.769   4.866  -0.681  0.00  0.00    +0.238 C 
ATOM      5  O   UNL     1       3.910   5.269  -0.601  0.00  0.00    -0.273 OA
ATOM      6  N   UNL     1       2.409   3.796   0.020  0.00  0.00    -0.283 N 
ATOM      7  C   UNL     1       1.174   3.178   0.008  0.00  0.00    +0.046 A 
ATOM      8  C   UNL     1       1.168   1.778   0.001  0.00  0.00    +0.024 A 
ATOM      9  C   UNL     1      -0.013   1.076   0.008  0.00  0.00    +0.010 A 
ATOM     10  C   UNL     1      -1.232   1.756   0.017  0.00  0.00    -0.017 A 
ATOM     11  C   UNL     1      -1.244   3.143   0.025  0.00  0.00    +0.023 A 
ATOM     12  C   UNL     1      -0.041   3.863   0.011  0.00  0.00    +0.059 A 
ATOM     13  C   UNL     1      -0.132   5.332  -0.007  0.00  0.00    +0.249 C 
ATOM     14  O   UNL     1      -0.995   5.872   0.658  0.00  0.00    -0.270 OA
ATOM     15  N   UNL     1       0.698   6.096  -0.728  0.00  0.00    -0.285 N 
ATOM     16  C   UNL     1       0.681   7.567  -0.807  0.00  0.00    +0.123 C 
ATOM     17  H   UNL     1       3.083   3.410   0.601  0.00  0.00    +0.155 HD
ENDROOT
BRANCH  10  18
ATOM     18  C   UNL     1      -2.508   1.000   0.025  0.00  0.00    -0.018 A 
ATOM     19  C   UNL     1      -3.724   1.680   0.041  0.00  0.00    +0.008 A 
ATOM     20  C   UNL     1      -4.908   0.971   0.042  0.00  0.00    +0.001 A 
ATOM     21  C   UNL     1      -4.889  -0.412   0.040  0.00  0.00    +0.000 A 
ATOM     22  C   UNL     1      -3.685  -1.093   0.030  0.00  0.00    +0.001 A 
ATOM     23  C   UNL     1      -2.495  -0.394   0.023  0.00  0.00    +0.008 A 
ENDBRANCH  10  18
BRANCH   1  24
ATOM     24  S   UNL     1       2.111   9.565  -2.098  0.00  0.00    -0.156 S 
BRANCH  24  26
ATOM     25  C   UNL     1       1.156  12.128  -2.158  0.00  0.00    +0.015 C 
ATOM     26  C   UNL     1       0.679  10.675  -2.190  0.00  0.00    +0.066 C 
ENDBRANCH  24  26
ENDBRANCH   1  24
TORSDOF 3
