REMARK  Name = ZINC03719665
REMARK  9 active torsions:
REMARK  status: ('A' for Active; 'I' for Inactive)
REMARK    1  A    between atoms: C_1  and  O_2
REMARK    2  A    between atoms: O_2  and  C_3
REMARK    3  A    between atoms: C_5  and  C_13
REMARK    4  A    between atoms: C_6  and  O_11
REMARK    5  A    between atoms: C_8  and  O_9
REMARK    6  A    between atoms: O_9  and  C_10
REMARK    7  A    between atoms: O_11  and  C_12
REMARK    8  A    between atoms: C_17  and  O_24
REMARK    9  A    between atoms: C_18  and  O_23
REMARK                            x       y       z     vdW  Elec       q    Type
REMARK                         _______ _______ _______ _____ _____    ______ ____
ROOT
ATOM      1  C   UNL     1      -4.871   0.262   0.052  0.00  0.00    -0.006 C 
ATOM      2  C   UNL     1      -5.343   0.415   1.474  0.00  0.00    -0.050 A 
ATOM      3  C   UNL     1      -5.276  -0.689   2.313  0.00  0.00    +0.051 A 
ATOM      4  C   UNL     1      -5.701  -0.598   3.626  0.00  0.00    +0.158 A 
ATOM      5  C   UNL     1      -6.199   0.610   4.108  0.00  0.00    +0.158 A 
ATOM      6  C   UNL     1      -6.262   1.708   3.269  0.00  0.00    +0.053 A 
ATOM      7  C   UNL     1      -5.833   1.611   1.953  0.00  0.00    -0.044 A 
ATOM      8  C   UNL     1      -5.913   2.838   1.081  0.00  0.00    +0.016 C 
ATOM      9  C   UNL     1      -5.801   2.441  -0.391  0.00  0.00    -0.077 C 
ATOM     10  N   UNL     1      -4.617   1.576  -0.553  0.00  0.00    +0.387 N 
ATOM     11  H   UNL     1      -4.417   1.457  -1.554  0.00  0.00    -0.085 HD
ATOM     12  H   UNL     1      -3.810   2.013  -0.092  0.00  0.00    -0.085 HD
ENDROOT
BRANCH   1  15
ATOM     13  C   UNL     1      -1.202  -0.638   0.010  0.00  0.00    +0.162 A 
ATOM     14  C   UNL     1      -2.374   0.100   0.031  0.00  0.00    +0.055 A 
ATOM     15  C   UNL     1      -3.597  -0.544   0.034  0.00  0.00    -0.012 A 
ATOM     16  C   UNL     1      -3.654  -1.929   0.028  0.00  0.00    +0.126 A 
ATOM     17  C   UNL     1      -2.483  -2.672   0.012  0.00  0.00    +0.095 A 
ATOM     18  C   UNL     1      -1.256  -2.029   0.003  0.00  0.00    +0.165 A 
BRANCH  13  20
ATOM     19  C   UNL     1      -0.017   1.425   0.010  0.00  0.00    +0.277 C 
ATOM     20  O   UNL     1       0.002  -0.004   0.002  0.00  0.00    -0.491 OA
ENDBRANCH  13  20
BRANCH  18  21
ATOM     21  O   UNL     1      -0.107  -2.755  -0.013  0.00  0.00    -0.491 OA
ATOM     22  C   UNL     1      -0.238  -4.178  -0.019  0.00  0.00    +0.277 C 
ENDBRANCH  18  21
BRANCH  16  23
ATOM     23  O   UNL     1      -4.859  -2.560   0.037  0.00  0.00    -0.495 OA
ATOM     24  C   UNL     1      -4.843  -3.989   0.029  0.00  0.00    +0.277 C 
ENDBRANCH  16  23
ENDBRANCH   1  15
BRANCH   5  25
ATOM     25  O   UNL     1      -6.621   0.709   5.397  0.00  0.00    -0.503 OA
ATOM     26  H   UNL     1      -7.557   0.501   5.521  0.00  0.00    +0.292 HD
ENDBRANCH   5  25
BRANCH   4  27
ATOM     27  O   UNL     1      -5.633  -1.683   4.443  0.00  0.00    -0.503 OA
ATOM     28  H   UNL     1      -6.428  -2.234   4.431  0.00  0.00    +0.292 HD
ENDBRANCH   4  27
TORSDOF 6
