REMARK  Name = ZINC53113374
REMARK  8 active torsions:
REMARK  status: ('A' for Active; 'I' for Inactive)
REMARK    1  A    between atoms: C_1  and  C_2
REMARK    2  A    between atoms: C_4  and  N_22
REMARK    3  A    between atoms: C_7  and  S_8
REMARK    4  A    between atoms: S_8  and  N_11
REMARK    5  A    between atoms: N_11  and  C_12
REMARK    6  A    between atoms: C_12  and  C_20
REMARK    7  A    between atoms: C_16  and  C_19
REMARK    8  A    between atoms: C_20  and  O_21
REMARK                            x       y       z     vdW  Elec       q    Type
REMARK                         _______ _______ _______ _____ _____    ______ ____
ROOT
ATOM      1  S   UNL     1       0.564   0.136   2.784  0.00  0.00    +0.059 S 
ATOM      2  O   UNL     1       0.922  -1.006   3.550  0.00  0.00    -0.153 OA
ATOM      3  O   UNL     1       0.301   0.066   1.389  0.00  0.00    -0.153 OA
ENDROOT
BRANCH   1  10
ATOM      4  C   UNL     1       0.215   0.497   5.764  0.00  0.00    +0.046 C 
ATOM      5  C   UNL     1      -0.945   0.941   4.910  0.00  0.00    -0.022 A 
ATOM      6  C   UNL     1      -2.071   1.478   5.502  0.00  0.00    +0.028 A 
ATOM      7  C   UNL     1      -3.139   1.888   4.714  0.00  0.00    +0.025 A 
ATOM      8  C   UNL     1      -3.071   1.755   3.333  0.00  0.00    +0.024 A 
ATOM      9  C   UNL     1      -1.942   1.217   2.748  0.00  0.00    +0.030 A 
ATOM     10  C   UNL     1      -0.878   0.815   3.535  0.00  0.00    +0.108 A 
BRANCH   7  11
ATOM     11  N   UNL     1      -4.280   2.431   5.309  0.00  0.00    -0.358 N 
ATOM     12  H   UNL     1      -4.327   2.523   6.274  0.00  0.00    +0.142 HD
ATOM     13  H   UNL     1      -5.026   2.716   4.758  0.00  0.00    +0.142 HD
ENDBRANCH   7  11
ENDBRANCH   1  10
BRANCH   1  14
ATOM     14  N   UNL     1       1.784   1.238   2.980  0.00  0.00    -0.182 NA
ATOM     15  H   UNL     1       2.514   1.050   3.591  0.00  0.00    +0.149 HD
BRANCH  14  16
ATOM     16  C   UNL     1       1.762   2.497   2.231  0.00  0.00    +0.063 C 
ATOM     17  C   UNL     1       0.424   3.204   2.462  0.00  0.00    +0.026 C 
ATOM     18  C   UNL     1       0.252   3.495   3.954  0.00  0.00    +0.002 C 
ATOM     19  C   UNL     1       1.394   4.394   4.434  0.00  0.00    +0.003 C 
ATOM     20  C   UNL     1       2.731   3.687   4.203  0.00  0.00    -0.012 C 
ATOM     21  C   UNL     1       2.903   3.396   2.711  0.00  0.00    +0.029 C 
ATOM     22  C   UNL     1       3.873   4.586   4.682  0.00  0.00    +0.007 C 
BRANCH  16  23
ATOM     23  C   UNL     1       1.934   2.206   0.739  0.00  0.00    +0.179 C 
BRANCH  23  24
ATOM     24  O   UNL     1       0.711   1.689   0.211  0.00  0.00    -0.393 OA
ATOM     25  H   UNL     1       0.768   1.411  -0.714  0.00  0.00    +0.209 HD
ENDBRANCH  23  24
ENDBRANCH  16  23
ENDBRANCH  14  16
ENDBRANCH   1  14
TORSDOF 6
