REMARK  Name = ZINC49164445
REMARK  8 active torsions:
REMARK  status: ('A' for Active; 'I' for Inactive)
REMARK    1  A    between atoms: C_1  and  C_2
REMARK    2  A    between atoms: C_2  and  N_3
REMARK    3  A    between atoms: N_6  and  N_7
REMARK    4  A    between atoms: C_8  and  C_10
REMARK    5  A    between atoms: C_10  and  C_12
REMARK    6  A    between atoms: C_10  and  O_13
REMARK    7  A    between atoms: O_13  and  C_14
REMARK    8  A    between atoms: C_16  and  C_21
REMARK                            x       y       z     vdW  Elec       q    Type
REMARK                         _______ _______ _______ _____ _____    ______ ____
ROOT
ATOM      1  N   UNL     1      -3.943  -1.677  -0.310  0.00  0.00    -0.230 N 
ATOM      2  C   UNL     1      -5.228  -2.041  -0.126  0.00  0.00    +0.270 C 
ATOM      3  O   UNL     1      -5.507  -3.206   0.062  0.00  0.00    -0.270 OA
ATOM      4  H   UNL     1      -3.720  -0.745  -0.460  0.00  0.00    +0.173 HD
ENDROOT
BRANCH   1   8
ATOM      5  N   UNL     1      -1.335  -0.986  -0.677  0.00  0.00    -0.298 N 
ATOM      6  C   UNL     1      -1.646  -2.281  -0.468  0.00  0.00    +0.316 C 
ATOM      7  O   UNL     1      -0.767  -3.121  -0.446  0.00  0.00    -0.251 OA
ATOM      8  N   UNL     1      -2.930  -2.644  -0.284  0.00  0.00    -0.218 N 
ATOM      9  H   UNL     1      -2.037  -0.316  -0.695  0.00  0.00    +0.150 HD
ATOM     10  H   UNL     1      -3.154  -3.576  -0.134  0.00  0.00    +0.174 HD
BRANCH   5  12
ATOM     11  C   UNL     1       0.137   0.922  -1.091  0.00  0.00    +0.024 C 
ATOM     12  C   UNL     1       0.061  -0.591  -0.877  0.00  0.00    +0.102 C 
ENDBRANCH   5  12
ENDBRANCH   1   8
BRANCH   2  13
ATOM     13  C   UNL     1      -6.317  -0.999  -0.153  0.00  0.00    +0.257 C 
ATOM     14  C   UNL     1      -6.134  -0.039   1.023  0.00  0.00    +0.062 C 
BRANCH  13  15
ATOM     15  O   UNL     1      -7.591  -1.640  -0.052  0.00  0.00    -0.478 OA
BRANCH  15  16
ATOM     16  C   UNL     1      -8.658  -0.975  -0.567  0.00  0.00    +0.140 A 
ATOM     17  C   UNL     1      -8.505   0.315  -1.054  0.00  0.00    +0.050 A 
ATOM     18  C   UNL     1      -9.591   0.989  -1.577  0.00  0.00    -0.047 A 
ATOM     19  C   UNL     1     -10.832   0.379  -1.615  0.00  0.00    +0.005 A 
ATOM     20  C   UNL     1     -10.989  -0.906  -1.130  0.00  0.00    +0.024 A 
ATOM     21  C   UNL     1      -9.903  -1.587  -0.611  0.00  0.00    +0.083 A 
ATOM     22 CL   UNL     1     -10.099  -3.203  -0.008  0.00  0.00    -0.080 Cl
ATOM     23  C   UNL     1      -9.425   2.390  -2.107  0.00  0.00    +0.044 C 
ENDBRANCH  15  16
ENDBRANCH  13  15
ENDBRANCH   2  13
TORSDOF 5
