REMARK  Name = ZINC09849237
REMARK  10 active torsions:
REMARK  status: ('A' for Active; 'I' for Inactive)
REMARK    1  A    between atoms: C_1  and  C_2
REMARK    2  A    between atoms: C_6  and  C_31
REMARK    3  A    between atoms: C_7  and  N_8
REMARK    4  A    between atoms: C_9  and  C_11
REMARK    5  A    between atoms: C_12  and  C_30
REMARK    6  A    between atoms: C_14  and  S_25
REMARK    7  A    between atoms: C_15  and  C_23
REMARK    8  A    between atoms: C_16  and  C_18
REMARK    9  A    between atoms: S_25  and  C_26
REMARK   10  A    between atoms: C_26  and  C_27
REMARK                            x       y       z     vdW  Elec       q    Type
REMARK                         _______ _______ _______ _____ _____    ______ ____
ROOT
ATOM      1  C   UNL     1      -2.551   3.904   0.087  0.00  0.00    +0.047 C 
ATOM      2  C   UNL     1      -2.656   5.168   0.526  0.00  0.00    +0.015 C 
ATOM      3  N   UNL     1      -3.868   5.802   0.566  0.00  0.00    -0.312 N 
ATOM      4  C   UNL     1      -5.033   5.069   0.519  0.00  0.00    +0.080 C 
ATOM      5  C   UNL     1      -5.021   3.783   0.079  0.00  0.00    +0.072 C 
ATOM      6  C   UNL     1      -3.749   3.127  -0.377  0.00  0.00    +0.134 C 
ATOM      7  C   UNL     1      -1.420   5.903   0.977  0.00  0.00    +0.061 C 
ATOM      8  H   UNL     1      -3.913   6.899   0.636  0.00  0.00    +0.152 HD
ENDROOT
BRANCH   6   9
ATOM      9  C   UNL     1      -3.741   3.054  -1.882  0.00  0.00    +0.118 A 
ATOM     10  C   UNL     1      -3.696   1.928  -2.615  0.00  0.00    +0.045 A 
ATOM     11  C   UNL     1      -3.706   2.322  -3.973  0.00  0.00    +0.041 A 
ATOM     12  C   UNL     1      -3.756   3.666  -3.988  0.00  0.00    +0.195 A 
ATOM     13  O   UNL     1      -3.783   4.104  -2.719  0.00  0.00    -0.467 OA
ENDBRANCH   6   9
BRANCH   1  15
ATOM     14  N   UNL     1      -1.137   2.051  -0.455  0.00  0.00    -0.281 N 
ATOM     15  C   UNL     1      -1.278   3.286   0.066  0.00  0.00    +0.247 C 
ATOM     16  O   UNL     1      -0.310   3.870   0.519  0.00  0.00    -0.270 OA
ATOM     17  H   UNL     1      -2.020   1.501  -0.812  0.00  0.00    +0.155 HD
BRANCH  14  24
ATOM     18  C   UNL     1      -0.836  -0.650   0.389  0.00  0.00    +0.045 C 
ATOM     19  C   UNL     1       0.324   0.154  -0.139  0.00  0.00    -0.029 A 
ATOM     20  C   UNL     1       1.580  -0.415  -0.220  0.00  0.00    +0.005 A 
ATOM     21  C   UNL     1       2.645   0.323  -0.704  0.00  0.00    +0.001 A 
ATOM     22  C   UNL     1       2.457   1.632  -1.107  0.00  0.00    +0.005 A 
ATOM     23  C   UNL     1       1.204   2.207  -1.027  0.00  0.00    -0.029 A 
ATOM     24  C   UNL     1       0.132   1.469  -0.542  0.00  0.00    +0.040 A 
ATOM     25  C   UNL     1       1.000   3.634  -1.467  0.00  0.00    +0.045 C 
ENDBRANCH  14  24
ENDBRANCH   1  15
BRANCH   5  26
ATOM     26  C   UNL     1      -6.245   3.039   0.049  0.00  0.00    +0.098 C 
ATOM     27  N   UNL     1      -7.215   2.450   0.026  0.00  0.00    -0.191 NA
ENDBRANCH   5  26
BRANCH   4  28
ATOM     28  S   UNL     1      -6.550   5.804   1.034  0.00  0.00    -0.100 S 
BRANCH  28  29
ATOM     29  C   UNL     1      -5.960   7.453   1.494  0.00  0.00    +0.171 C 
BRANCH  29  30
ATOM     30  C   UNL     1      -7.120   8.283   1.979  0.00  0.00    +0.221 C 
ATOM     31  O   UNL     1      -8.236   7.807   2.011  0.00  0.00    -0.275 OA
ATOM     32  N   UNL     1      -6.918   9.555   2.377  0.00  0.00    -0.329 N 
ATOM     33  H   UNL     1      -7.765  10.161   2.732  0.00  0.00    +0.145 HD
ATOM     34  H   UNL     1      -5.907   9.986   2.348  0.00  0.00    +0.145 HD
ENDBRANCH  29  30
ENDBRANCH  28  29
ENDBRANCH   4  28
TORSDOF 7
