REMARK  Name = ZINC20348600
REMARK  11 active torsions:
REMARK  status: ('A' for Active; 'I' for Inactive)
REMARK    1  A    between atoms: C_1  and  C_2
REMARK    2  A    between atoms: C_2  and  C_3
REMARK    3  A    between atoms: C_8  and  N_9
REMARK    4  A    between atoms: C_10  and  C_12
REMARK    5  A    between atoms: C_12  and  S_13
REMARK    6  A    between atoms: S_13  and  C_14
REMARK    7  A    between atoms: C_15  and  C_38
REMARK    8  A    between atoms: C_16  and  C_31
REMARK    9  A    between atoms: C_18  and  C_22
REMARK   10  A    between atoms: C_19  and  C_21
REMARK   11  A    between atoms: N_24  and  C_25
REMARK                            x       y       z     vdW  Elec       q    Type
REMARK                         _______ _______ _______ _____ _____    ______ ____
ROOT
ATOM      1  C   UNL     1       6.983  -0.459  -0.260  0.00  0.00    +0.080 C 
ATOM      2  C   UNL     1       5.833  -1.183  -0.326  0.00  0.00    +0.069 C 
ATOM      3  C   UNL     1       4.510  -0.580   0.052  0.00  0.00    +0.101 C 
ATOM      4  C   UNL     1       4.600   0.919   0.101  0.00  0.00    +0.044 C 
ATOM      5  C   UNL     1       5.782   1.554   0.144  0.00  0.00    +0.014 C 
ATOM      6  N   UNL     1       6.959   0.856   0.149  0.00  0.00    -0.312 N 
ATOM      7  C   UNL     1       5.814   3.060   0.195  0.00  0.00    +0.061 C 
ATOM      8  H   UNL     1       7.886   1.346   0.480  0.00  0.00    +0.152 HD
ENDROOT
BRANCH   3   9
ATOM      9  C   UNL     1       4.099  -1.095   1.407  0.00  0.00    +0.000 A 
ATOM     10  C   UNL     1       4.891  -0.845   2.512  0.00  0.00    +0.007 A 
ATOM     11  C   UNL     1       4.512  -1.313   3.756  0.00  0.00    +0.000 A 
ATOM     12  C   UNL     1       3.345  -2.042   3.895  0.00  0.00    +0.003 A 
ATOM     13  C   UNL     1       2.555  -2.299   2.791  0.00  0.00    +0.038 A 
ATOM     14  C   UNL     1       2.931  -1.825   1.545  0.00  0.00    +0.127 A 
ATOM     15  F   UNL     1       2.159  -2.075   0.465  0.00  0.00    -0.205 F 
ENDBRANCH   3   9
BRANCH   4  16
ATOM     16  C   UNL     1       3.408   1.681   0.094  0.00  0.00    +0.247 C 
ATOM     17  O   UNL     1       2.727   1.738  -0.914  0.00  0.00    -0.270 OA
ATOM     18  N   UNL     1       3.026   2.345   1.204  0.00  0.00    -0.282 N 
ATOM     19  H   UNL     1       3.679   2.357   2.089  0.00  0.00    +0.155 HD
BRANCH  18  20
ATOM     20  C   UNL     1       1.800   3.017   1.229  0.00  0.00    +0.034 A 
ATOM     21  C   UNL     1       1.322   3.637   0.082  0.00  0.00    +0.023 A 
ATOM     22  C   UNL     1       0.113   4.304   0.112  0.00  0.00    +0.002 A 
ATOM     23  C   UNL     1      -0.626   4.346   1.280  0.00  0.00    +0.000 A 
ATOM     24  C   UNL     1      -0.153   3.730   2.424  0.00  0.00    +0.002 A 
ATOM     25  C   UNL     1       1.057   3.066   2.402  0.00  0.00    +0.023 A 
ENDBRANCH  18  20
ENDBRANCH   4  16
BRANCH   2  26
ATOM     26  C   UNL     1       5.885  -2.545  -0.763  0.00  0.00    +0.098 C 
ATOM     27  N   UNL     1       5.926  -3.626  -1.109  0.00  0.00    -0.191 NA
ENDBRANCH   2  26
BRANCH   1  28
ATOM     28  S   UNL     1       8.515  -1.209  -0.703  0.00  0.00    -0.100 S 
BRANCH  28  29
ATOM     29  C   UNL     1       9.638   0.183  -0.427  0.00  0.00    +0.171 C 
BRANCH  29  31
ATOM     30  N   UNL     1      12.061   0.643  -0.618  0.00  0.00    -0.285 N 
ATOM     31  C   UNL     1      11.048  -0.237  -0.751  0.00  0.00    +0.227 C 
ATOM     32  O   UNL     1      11.272  -1.367  -1.131  0.00  0.00    -0.275 OA
ATOM     33  H   UNL     1      11.849   1.692  -0.364  0.00  0.00    +0.155 HD
BRANCH  30  39
ATOM     34  C   UNL     1      14.359   1.137  -1.173  0.00  0.00    -0.026 A 
ATOM     35  C   UNL     1      15.662   0.718  -1.356  0.00  0.00    +0.005 A 
ATOM     36  C   UNL     1      15.995  -0.611  -1.171  0.00  0.00    +0.000 A 
ATOM     37  C   UNL     1      15.025  -1.525  -0.802  0.00  0.00    +0.002 A 
ATOM     38  C   UNL     1      13.721  -1.112  -0.613  0.00  0.00    +0.023 A 
ATOM     39  C   UNL     1      13.382   0.222  -0.804  0.00  0.00    +0.037 A 
BRANCH  34  41
ATOM     40  C   UNL     1      14.034   3.312  -0.028  0.00  0.00    +0.009 C 
ATOM     41  C   UNL     1      13.997   2.586  -1.374  0.00  0.00    +0.033 C 
ENDBRANCH  34  41
ENDBRANCH  30  39
ENDBRANCH  29  31
ENDBRANCH  28  29
ENDBRANCH   1  28
TORSDOF 9
