REMARK  Name = ZINC14476243
REMARK  8 active torsions:
REMARK  status: ('A' for Active; 'I' for Inactive)
REMARK    1  A    between atoms: C_1  and  O_2
REMARK    2  A    between atoms: O_2  and  C_3
REMARK    3  A    between atoms: C_3  and  C_4
REMARK    4  A    between atoms: C_4  and  N_5
REMARK    5  A    between atoms: C_6  and  C_8
REMARK    6  A    between atoms: C_21  and  C_24
REMARK    7  A    between atoms: C_26  and  N_31
REMARK    8  A    between atoms: C_29  and  O_30
REMARK                            x       y       z     vdW  Elec       q    Type
REMARK                         _______ _______ _______ _____ _____    ______ ____
ROOT
ATOM      1  C   UNL     1       6.970  -1.393   1.615  0.00  0.00    +0.037 A 
ATOM      2  C   UNL     1       7.200  -1.240   0.245  0.00  0.00    +0.015 A 
ATOM      3  C   UNL     1       6.461  -0.336  -0.480  0.00  0.00    +0.024 A 
ATOM      4  C   UNL     1       5.478   0.433   0.139  0.00  0.00    +0.031 A 
ATOM      5  C   UNL     1       5.237   0.268   1.511  0.00  0.00    -0.019 A 
ATOM      6  C   UNL     1       5.981  -0.628   2.240  0.00  0.00    +0.019 A 
ATOM      7  C   UNL     1       4.153   1.073   2.115  0.00  0.00    +0.049 C 
ATOM      8  C   UNL     1       4.149   1.433   3.556  0.00  0.00    -0.023 C 
ATOM      9  C   UNL     1       3.546   2.607   3.698  0.00  0.00    -0.030 C 
ATOM     10  C   UNL     1       3.122   3.146   2.330  0.00  0.00    +0.033 C 
ATOM     11  C   UNL     1       4.131   2.458   1.401  0.00  0.00    +0.029 C 
ATOM     12  C   UNL     1       3.682   2.172  -0.021  0.00  0.00    +0.108 C 
ATOM     13  N   UNL     1       4.756   1.352  -0.621  0.00  0.00    -0.336 N 
ATOM     14  H   UNL     1       5.000   1.461  -1.688  0.00  0.00    +0.147 HD
ENDROOT
BRANCH  12  15
ATOM     15  C   UNL     1       2.385   1.405  -0.013  0.00  0.00    +0.017 A 
ATOM     16  C   UNL     1       2.398   0.024  -0.020  0.00  0.00    +0.041 A 
ATOM     17  C   UNL     1       1.208  -0.680  -0.013  0.00  0.00    +0.127 A 
ATOM     18  C   UNL     1       0.002  -0.004   0.002  0.00  0.00    +0.036 A 
ATOM     19  C   UNL     1      -0.017   1.377   0.010  0.00  0.00    +0.048 A 
ATOM     20  C   UNL     1       1.176   2.086   0.002  0.00  0.00    +0.122 A 
BRANCH  17  21
ATOM     21  N   UNL     1       1.225  -2.160  -0.021  0.00  0.00    +0.056 N 
ATOM     22  O   UNL     1       0.178  -2.781  -0.015  0.00  0.00    -0.126 OA
ATOM     23  O   UNL     1       2.287  -2.757  -0.035  0.00  0.00    -0.126 OA
ENDBRANCH  17  21
BRANCH  20  24
ATOM     24  O   UNL     1       1.160   3.445   0.010  0.00  0.00    -0.506 OA
ATOM     25  H   UNL     1       0.201   3.984   0.022  0.00  0.00    +0.292 HD
ENDBRANCH  20  24
ENDBRANCH  12  15
BRANCH   1  27
ATOM     26  N   UNL     1       8.721  -3.091   1.793  0.00  0.00    -0.309 N 
ATOM     27  C   UNL     1       7.768  -2.355   2.398  0.00  0.00    +0.244 C 
ATOM     28  O   UNL     1       7.565  -2.486   3.590  0.00  0.00    -0.270 OA
ATOM     29  H   UNL     1       8.905  -2.973   0.715  0.00  0.00    +0.149 HD
BRANCH  26  30
ATOM     30  C   UNL     1       9.513  -4.047   2.570  0.00  0.00    +0.132 C 
BRANCH  30  31
ATOM     31  C   UNL     1      10.517  -4.745   1.651  0.00  0.00    +0.178 C 
BRANCH  31  33
ATOM     32  C   UNL     1      12.444  -4.339   0.284  0.00  0.00    +0.194 C 
ATOM     33  O   UNL     1      11.457  -3.788   1.158  0.00  0.00    -0.381 OA
ENDBRANCH  31  33
ENDBRANCH  30  31
ENDBRANCH  26  30
ENDBRANCH   1  27
TORSDOF 7
