REMARK  Name = ZINC06884355
REMARK  7 active torsions:
REMARK  status: ('A' for Active; 'I' for Inactive)
REMARK    1  A    between atoms: C_5  and  C_7
REMARK    2  A    between atoms: C_8  and  C_9
REMARK    3  A    between atoms: N_11  and  C_12
REMARK    4  A    between atoms: C_12  and  N_14
REMARK    5  A    between atoms: N_14  and  N_15
REMARK    6  A    between atoms: C_16  and  C_18
REMARK    7  A    between atoms: C_21  and  N_24
REMARK                            x       y       z     vdW  Elec       q    Type
REMARK                         _______ _______ _______ _____ _____    ______ ____
ROOT
ATOM      1  C   UNL     1       3.635  -4.865  -0.058  0.00  0.00    +0.153 C 
ATOM      2  S   UNL     1       3.667  -6.577  -0.067  0.00  0.00    -0.017 S 
ENDROOT
BRANCH   1   5
ATOM      3  C   UNL     1       5.968  -4.821  -0.080  0.00  0.00    +0.242 C 
ATOM      4  O   UNL     1       5.991  -6.038  -0.087  0.00  0.00    -0.270 OA
ATOM      5  N   UNL     1       4.789  -4.170  -0.066  0.00  0.00    -0.263 N 
ATOM      6  H   UNL     1       4.771  -3.200  -0.060  0.00  0.00    +0.157 HD
BRANCH   3   8
ATOM      7  C   UNL     1       8.402  -4.719  -0.103  0.00  0.00    +0.014 C 
ATOM      8  C   UNL     1       7.221  -4.066  -0.089  0.00  0.00    +0.068 C 
BRANCH   7  13
ATOM      9  C   UNL     1      10.825  -1.857  -0.112  0.00  0.00    +0.001 A 
ATOM     10  C   UNL     1      12.036  -2.530  -0.127  0.00  0.00    +0.001 A 
ATOM     11  C   UNL     1      12.067  -3.913  -0.134  0.00  0.00    +0.020 A 
ATOM     12  C   UNL     1      10.889  -4.633  -0.121  0.00  0.00    +0.048 A 
ATOM     13  C   UNL     1       9.662  -3.960  -0.112  0.00  0.00    -0.007 A 
ATOM     14  C   UNL     1       9.640  -2.561  -0.104  0.00  0.00    +0.009 A 
ATOM     15 CL   UNL     1      10.930  -6.369  -0.123  0.00  0.00    -0.083 Cl
ENDBRANCH   7  13
ENDBRANCH   3   8
ENDBRANCH   1   5
BRANCH   1  16
ATOM     16  N   UNL     1       2.455  -4.213  -0.043  0.00  0.00    -0.245 N 
ATOM     17  H   UNL     1       1.624  -4.714  -0.037  0.00  0.00    +0.172 HD
BRANCH  16  18
ATOM     18  N   UNL     1       2.429  -2.812  -0.036  0.00  0.00    -0.231 N 
ATOM     19  C   UNL     1       1.250  -2.160  -0.021  0.00  0.00    +0.260 C 
ATOM     20  O   UNL     1       0.208  -2.788  -0.014  0.00  0.00    -0.269 OA
ATOM     21  H   UNL     1       3.260  -2.312  -0.041  0.00  0.00    +0.173 HD
BRANCH  19  22
ATOM     22  C   UNL     1       1.222  -0.682  -0.013  0.00  0.00    +0.038 A 
ATOM     23  C   UNL     1       0.002  -0.004   0.002  0.00  0.00    +0.015 A 
ATOM     24  C   UNL     1      -0.017   1.375   0.010  0.00  0.00    +0.033 A 
ATOM     25  C   UNL     1       1.170   2.086   0.002  0.00  0.00    +0.126 A 
ATOM     26  C   UNL     1       2.383   1.420  -0.013  0.00  0.00    +0.033 A 
ATOM     27  C   UNL     1       2.416   0.041  -0.021  0.00  0.00    +0.015 A 
BRANCH  25  28
ATOM     28  N   UNL     1       1.143   3.566   0.010  0.00  0.00    +0.056 N 
ATOM     29  O   UNL     1       0.077   4.155   0.024  0.00  0.00    -0.126 OA
ATOM     30  O   UNL     1       2.186   4.195   0.004  0.00  0.00    -0.126 OA
ENDBRANCH  25  28
ENDBRANCH  19  22
ENDBRANCH  16  18
ENDBRANCH   1  16
TORSDOF 7
