REMARK  Name = ZINC65522588
REMARK  7 active torsions:
REMARK  status: ('A' for Active; 'I' for Inactive)
REMARK    1  A    between atoms: C_1  and  C_2
REMARK    2  A    between atoms: C_2  and  C_3
REMARK    3  A    between atoms: C_2  and  N_9
REMARK    4  A    between atoms: C_12  and  N_14
REMARK    5  A    between atoms: N_17  and  N_18
REMARK    6  A    between atoms: N_18  and  C_19
REMARK    7  A    between atoms: C_19  and  C_26
REMARK                            x       y       z     vdW  Elec       q    Type
REMARK                         _______ _______ _______ _____ _____    ______ ____
ROOT
ATOM      1  N   UNL     1       2.643  -3.505   1.607  0.00  0.00    -0.297 N 
ATOM      2  C   UNL     1       3.405  -4.250   2.433  0.00  0.00    +0.313 C 
ATOM      3  O   UNL     1       3.506  -3.945   3.606  0.00  0.00    -0.252 OA
ATOM      4  N   UNL     1       4.054  -5.332   1.959  0.00  0.00    -0.234 N 
ATOM      5  H   UNL     1       2.563  -3.748   0.671  0.00  0.00    +0.150 HD
ATOM      6  H   UNL     1       4.602  -5.867   2.554  0.00  0.00    +0.171 HD
ENDROOT
BRANCH   1  10
ATOM      7  N   UNL     1       0.713  -0.491   1.192  0.00  0.00    +0.385 N 
ATOM      8  C   UNL     1       2.143  -0.094   1.141  0.00  0.00    -0.076 C 
ATOM      9  C   UNL     1       2.857  -1.091   2.079  0.00  0.00    +0.002 C 
ATOM     10  C   UNL     1       1.938  -2.329   2.122  0.00  0.00    +0.056 C 
ATOM     11  C   UNL     1       0.746  -1.976   1.206  0.00  0.00    -0.056 C 
ATOM     12  H   UNL     1       0.277  -0.140   2.032  0.00  0.00    -0.081 HD
BRANCH   7  14
ATOM     13  C   UNL     1      -0.019   1.526   0.010  0.00  0.00    -0.008 C 
ATOM     14  C   UNL     1       0.002  -0.004   0.002  0.00  0.00    -0.041 C 
BRANCH  14  15
ATOM     15  C   UNL     1      -1.412  -0.526   0.013  0.00  0.00    -0.061 A 
ATOM     16  C   UNL     1      -2.123  -0.571   1.197  0.00  0.00    +0.002 A 
ATOM     17  C   UNL     1      -3.420  -1.049   1.207  0.00  0.00    +0.000 A 
ATOM     18  C   UNL     1      -4.006  -1.482   0.032  0.00  0.00    +0.000 A 
ATOM     19  C   UNL     1      -3.295  -1.436  -1.153  0.00  0.00    +0.000 A 
ATOM     20  C   UNL     1      -2.000  -0.954  -1.163  0.00  0.00    +0.002 A 
ENDBRANCH  14  15
ENDBRANCH   7  14
ENDBRANCH   1  10
BRANCH   4  21
ATOM     21  N   UNL     1       3.941  -5.673   0.641  0.00  0.00    -0.232 NA
ATOM     22  H   UNL     1       2.974  -5.798   0.382  0.00  0.00    +0.145 HD
BRANCH  21  23
ATOM     23  C   UNL     1       4.726  -6.878   0.341  0.00  0.00    +0.054 C 
ATOM     24  C   UNL     1       4.274  -8.002   1.272  0.00  0.00    +0.047 C 
ATOM     25  C   UNL     1       3.118  -8.811   0.620  0.00  0.00    +0.168 C 
ATOM     26  S   UNL     1       3.718  -8.852  -1.126  0.00  0.00    -0.029 S 
ATOM     27  O   UNL     1       4.690  -9.880  -1.262  0.00  0.00    -0.174 OA
ATOM     28  O   UNL     1       2.602  -8.820  -2.005  0.00  0.00    -0.174 OA
ATOM     29  C   UNL     1       4.560  -7.215  -1.154  0.00  0.00    +0.189 C 
ATOM     30  C   UNL     1       6.201  -6.581   0.616  0.00  0.00    +0.031 C 
ENDBRANCH  21  23
ENDBRANCH   4  21
TORSDOF 5
