REMARK  Name = ZINC14158944
REMARK  7 active torsions:
REMARK  status: ('A' for Active; 'I' for Inactive)
REMARK    1  A    between atoms: C_1  and  C_2
REMARK    2  A    between atoms: C_4  and  C_34
REMARK    3  A    between atoms: N_13  and  C_14
REMARK    4  A    between atoms: N_24  and  C_25
REMARK    5  A    between atoms: C_25  and  C_26
REMARK    6  A    between atoms: C_26  and  C_27
REMARK    7  A    between atoms: C_30  and  O_33
REMARK                            x       y       z     vdW  Elec       q    Type
REMARK                         _______ _______ _______ _____ _____    ______ ____
ROOT
ATOM      1  C   UNL     1       4.514  -1.151   1.112  0.00  0.00    +0.066 C 
ATOM      2  C   UNL     1       3.227  -1.853   0.764  0.00  0.00    +0.044 A 
ATOM      3  C   UNL     1       3.046  -2.403  -0.496  0.00  0.00    +0.046 A 
ATOM      4  C   UNL     1       1.847  -3.040  -0.774  0.00  0.00    +0.044 A 
ATOM      5  N   UNL     1       0.917  -3.103   0.164  0.00  0.00    -0.217 NA
ATOM      6  C   UNL     1       1.121  -2.567   1.358  0.00  0.00    +0.231 A 
ATOM      7  N   UNL     1       2.257  -1.956   1.658  0.00  0.00    -0.217 NA
ATOM      8  N   UNL     1       0.123  -2.651   2.319  0.00  0.00    -0.298 N 
ATOM      9  C   UNL     1       0.268  -2.003   3.515  0.00  0.00    +0.177 C 
ATOM     10  N   UNL     1       0.134  -2.669   4.649  0.00  0.00    -0.242 N 
ATOM     11  C   UNL     1      -0.036  -3.999   4.629  0.00  0.00    +0.306 C 
ATOM     12  O   UNL     1      -0.195  -4.577   3.569  0.00  0.00    -0.252 OA
ATOM     13  N   UNL     1      -0.029  -4.697   5.783  0.00  0.00    -0.294 N 
ATOM     14  N   UNL     1       0.551  -0.669   3.537  0.00  0.00    -0.358 N 
ATOM     15  C   UNL     1       1.605  -3.653  -2.130  0.00  0.00    +0.066 C 
ATOM     16  H   UNL     1      -0.677  -3.171   2.143  0.00  0.00    +0.171 HD
ATOM     17  H   UNL     1       0.098  -4.236   6.627  0.00  0.00    +0.151 HD
ATOM     18  H   UNL     1       0.882  -0.257   4.350  0.00  0.00    +0.162 HD
ATOM     19  H   UNL     1       0.157  -2.196   5.495  0.00  0.00    +0.159 HD
ENDROOT
BRANCH  13  20
ATOM     20  C   UNL     1      -0.214  -6.150   5.761  0.00  0.00    +0.037 C 
ATOM     21  C   UNL     1      -1.571  -6.482   5.136  0.00  0.00    +0.029 C 
ATOM     22  C   UNL     1      -1.764  -8.000   5.113  0.00  0.00    -0.008 C 
ATOM     23  C   UNL     1      -1.715  -8.541   6.543  0.00  0.00    +0.007 C 
ATOM     24  C   UNL     1      -0.359  -8.209   7.169  0.00  0.00    -0.008 C 
ATOM     25  C   UNL     1      -0.166  -6.691   7.191  0.00  0.00    +0.029 C 
ATOM     26  C   UNL     1       0.756  -8.852   6.341  0.00  0.00    +0.007 C 
ATOM     27  C   UNL     1       0.707  -8.311   4.911  0.00  0.00    -0.008 C 
ATOM     28  C   UNL     1      -0.649  -8.643   4.286  0.00  0.00    +0.007 C 
ATOM     29  C   UNL     1       0.900  -6.793   4.934  0.00  0.00    +0.029 C 
ENDBRANCH  13  20
BRANCH  14  30
ATOM     30  C   UNL     1       0.355   0.142   2.332  0.00  0.00    +0.120 C 
BRANCH  30  31
ATOM     31  C   UNL     1       0.528   1.622   2.680  0.00  0.00    +0.056 C 
BRANCH  31  32
ATOM     32  C   UNL     1       0.339   2.455   1.438  0.00  0.00    -0.045 A 
ATOM     33  C   UNL     1       1.411   2.698   0.600  0.00  0.00    +0.007 A 
ATOM     34  C   UNL     1       1.240   3.462  -0.539  0.00  0.00    +0.045 A 
ATOM     35  C   UNL     1      -0.009   3.984  -0.841  0.00  0.00    +0.117 A 
ATOM     36  C   UNL     1      -1.084   3.738   0.002  0.00  0.00    +0.045 A 
ATOM     37  C   UNL     1      -0.909   2.970   1.137  0.00  0.00    +0.007 A 
BRANCH  35  38
ATOM     38  O   UNL     1      -0.180   4.736  -1.960  0.00  0.00    -0.507 OA
ATOM     39  H   UNL     1      -0.423   4.225  -2.744  0.00  0.00    +0.292 HD
ENDBRANCH  35  38
ENDBRANCH  31  32
ENDBRANCH  30  31
ENDBRANCH  14  30
TORSDOF 5
