REMARK  Name = ZINC07371084
REMARK  5 active torsions:
REMARK  status: ('A' for Active; 'I' for Inactive)
REMARK    1  A    between atoms: C_5  and  C_6
REMARK    2  A    between atoms: C_8  and  C_11
REMARK    3  A    between atoms: C_11  and  S_12
REMARK    4  A    between atoms: S_12  and  C_13
REMARK    5  A    between atoms: C_17  and  N_19
REMARK                            x       y       z     vdW  Elec       q    Type
REMARK                         _______ _______ _______ _____ _____    ______ ____
ROOT
ATOM      1  S   UNL     1       2.835   8.428   1.726  0.00  0.00    -0.080 S 
ENDROOT
BRANCH   1   2
ATOM      2  C   UNL     1       2.736  10.165   1.445  0.00  0.00    +0.192 A 
ATOM      3  N   UNL     1       2.705  10.617   0.200  0.00  0.00    -0.207 NA
ATOM      4  C   UNL     1       2.625  11.922  -0.050  0.00  0.00    +0.122 A 
ATOM      5  C   UNL     1       2.586  12.814   1.017  0.00  0.00    +0.086 A 
ATOM      6  C   UNL     1       2.627  12.303   2.311  0.00  0.00    +0.122 A 
ATOM      7  N   UNL     1       2.701  10.985   2.485  0.00  0.00    -0.207 NA
ATOM      8  N   UNL     1       2.587  12.386  -1.355  0.00  0.00    -0.343 N 
ATOM      9  H   UNL     1       2.532  13.338  -1.530  0.00  0.00    +0.144 HD
ATOM     10  H   UNL     1       2.615  11.758  -2.094  0.00  0.00    +0.144 HD
BRANCH   6  11
ATOM     11  N   UNL     1       2.590  13.154   3.405  0.00  0.00    -0.343 N 
ATOM     12  H   UNL     1       2.618  12.791   4.303  0.00  0.00    +0.144 HD
ATOM     13  H   UNL     1       2.535  14.113   3.271  0.00  0.00    +0.144 HD
ENDBRANCH   6  11
ENDBRANCH   1   2
BRANCH   1  14
ATOM     14  C   UNL     1       2.852   7.834   0.016  0.00  0.00    +0.133 C 
BRANCH  14  17
ATOM     15  C   UNL     1       1.881   4.284   0.007  0.00  0.00    +0.109 A 
ATOM     16  N   UNL     1       1.835   5.610   0.014  0.00  0.00    -0.243 NA
ATOM     17  C   UNL     1       2.935   6.329   0.007  0.00  0.00    +0.059 A 
ATOM     18  C   UNL     1       4.145   5.715  -0.007  0.00  0.00    +0.071 A 
ATOM     19  S   UNL     1       3.646   3.998  -0.004  0.00  0.00    -0.075 S 
BRANCH  15  24
ATOM     20  C   UNL     1       1.028   1.938   0.003  0.00  0.00    +0.018 A 
ATOM     21  C   UNL     1      -0.013   1.076   0.008  0.00  0.00    +0.046 A 
ATOM     22  S   UNL     1      -1.417   2.176   0.019  0.00  0.00    -0.104 S 
ATOM     23  C   UNL     1      -0.532   3.726   0.027  0.00  0.00    +0.055 A 
ATOM     24  C   UNL     1       0.772   3.307   0.013  0.00  0.00    +0.014 A 
ENDBRANCH  15  24
ENDBRANCH  14  17
ENDBRANCH   1  14
TORSDOF 5
