REMARK  Name = ZINC35337351
REMARK  10 active torsions:
REMARK  status: ('A' for Active; 'I' for Inactive)
REMARK    1  A    between atoms: C_1  and  C_2
REMARK    2  A    between atoms: C_8  and  N_10
REMARK    3  A    between atoms: C_11  and  C_13
REMARK    4  A    between atoms: C_13  and  O_14
REMARK    5  A    between atoms: O_14  and  C_15
REMARK    6  A    between atoms: C_15  and  C_17
REMARK    7  A    between atoms: C_17  and  N_18
REMARK    8  A    between atoms: C_23  and  C_30
REMARK    9  A    between atoms: C_26  and  C_28
REMARK   10  A    between atoms: C_26  and  C_29
REMARK                            x       y       z     vdW  Elec       q    Type
REMARK                         _______ _______ _______ _____ _____    ______ ____
ROOT
ATOM      1  C   UNL     1       0.639   1.249   8.046  0.00  0.00    +0.238 C 
ENDROOT
BRANCH   1   2
ATOM      2  N   UNL     1       0.063   1.711   9.311  0.00  0.00    -0.213 N 
ATOM      3  C   UNL     1       0.011   3.003   9.694  0.00  0.00    +0.247 C 
ATOM      4  O   UNL     1       0.417   3.967   9.080  0.00  0.00    -0.273 OA
ATOM      5  C   UNL     1      -0.659   2.997  11.048  0.00  0.00    +0.113 C 
ATOM      6  C   UNL     1      -1.958   3.795  11.003  0.00  0.00    +0.038 C 
ATOM      7  C   UNL     1      -2.636   3.751  12.375  0.00  0.00    -0.011 C 
ATOM      8  C   UNL     1      -1.693   4.338  13.427  0.00  0.00    +0.009 C 
ATOM      9  C   UNL     1      -0.405   3.513  13.477  0.00  0.00    -0.032 C 
ATOM     10  C   UNL     1       0.281   3.557  12.110  0.00  0.00    +0.041 C 
ATOM     11  C   UNL     1      -0.741   2.064  13.834  0.00  0.00    +0.011 C 
ATOM     12  C   UNL     1       0.532   4.095  14.537  0.00  0.00    +0.011 C 
ATOM     13  C   UNL     1      -3.927   4.569  12.332  0.00  0.00    +0.007 C 
ATOM     14  N   UNL     1      -0.936   1.577  11.303  0.00  0.00    -0.285 N 
ATOM     15  C   UNL     1      -0.483   0.903  10.229  0.00  0.00    +0.310 C 
ATOM     16  O   UNL     1      -0.557  -0.304  10.108  0.00  0.00    -0.252 OA
ATOM     17  H   UNL     1      -1.364   1.201  12.087  0.00  0.00    +0.151 HD
ENDBRANCH   1   2
BRANCH   1  18
ATOM     18  C   UNL     1      -0.430   1.231   6.984  0.00  0.00    +0.326 C 
ATOM     19  O   UNL     1      -1.558   1.570   7.256  0.00  0.00    -0.249 OA
BRANCH  18  20
ATOM     20  O   UNL     1      -0.130   0.840   5.736  0.00  0.00    -0.454 OA
BRANCH  20  21
ATOM     21  C   UNL     1      -1.192   0.848   4.780  0.00  0.00    +0.327 C 
BRANCH  21  23
ATOM     22  N   UNL     1      -1.500   0.308   2.386  0.00  0.00    -0.309 N 
ATOM     23  C   UNL     1      -0.671   0.381   3.445  0.00  0.00    +0.251 C 
ATOM     24  O   UNL     1       0.496   0.072   3.324  0.00  0.00    -0.272 OA
ATOM     25  H   UNL     1      -2.433   0.555   2.482  0.00  0.00    +0.149 HD
BRANCH  22  32
ATOM     26  C   UNL     1      -1.838   1.951   0.025  0.00  0.00    +0.009 C 
ATOM     27  C   UNL     1      -1.871   0.423  -0.029  0.00  0.00    +0.006 C 
ATOM     28  C   UNL     1      -1.341  -0.051  -1.384  0.00  0.00    +0.005 C 
ATOM     29  C   UNL     1      -1.373  -1.580  -1.438  0.00  0.00    +0.000 C 
ATOM     30  C   UNL     1      -0.497  -2.148  -0.321  0.00  0.00    +0.002 C 
ATOM     31  C   UNL     1      -1.026  -1.675   1.034  0.00  0.00    +0.022 C 
ATOM     32  C   UNL     1      -0.994  -0.146   1.088  0.00  0.00    +0.076 C 
ENDBRANCH  22  32
ENDBRANCH  21  23
ENDBRANCH  20  21
ENDBRANCH  18  20
ENDBRANCH   1  18
TORSDOF 6
