REMARK  Name = ZINC02928356
REMARK  8 active torsions:
REMARK  status: ('A' for Active; 'I' for Inactive)
REMARK    1  A    between atoms: C_1  and  C_2
REMARK    2  A    between atoms: C_2  and  C_3
REMARK    3  A    between atoms: C_3  and  O_4
REMARK    4  A    between atoms: O_4  and  C_5
REMARK    5  A    between atoms: C_5  and  C_7
REMARK    6  A    between atoms: C_8  and  C_24
REMARK    7  A    between atoms: N_9  and  C_23
REMARK    8  A    between atoms: C_13  and  C_15
REMARK                            x       y       z     vdW  Elec       q    Type
REMARK                         _______ _______ _______ _____ _____    ______ ____
ROOT
ATOM      1  C   UNL     1       0.138   4.013   0.021  0.00  0.00    +0.078 C 
ATOM      2  C   UNL     1       1.243   3.237   0.007  0.00  0.00    +0.024 C 
ATOM      3  N   UNL     1       1.149   1.875   0.001  0.00  0.00    -0.262 N 
ATOM      4  C   UNL     1      -0.014   1.211   0.009  0.00  0.00    +0.307 C 
ATOM      5  O   UNL     1       0.002  -0.004   0.002  0.00  0.00    -0.252 OA
ATOM      6  N   UNL     1      -1.203   1.847   0.018  0.00  0.00    -0.288 N 
ATOM      7  C   UNL     1      -1.210   3.320   0.030  0.00  0.00    +0.144 C 
ATOM      8  C   UNL     1       2.389   1.096  -0.014  0.00  0.00    +0.139 C 
ATOM      9  C   UNL     1       2.604   3.886  -0.003  0.00  0.00    +0.061 C 
ATOM     10  H   UNL     1      -2.034   1.347   0.019  0.00  0.00    +0.151 HD
ENDROOT
BRANCH   7  11
ATOM     11  C   UNL     1      -1.981   3.786  -1.177  0.00  0.00    -0.021 A 
ATOM     12  C   UNL     1      -1.718   3.237  -2.419  0.00  0.00    +0.007 A 
ATOM     13  C   UNL     1      -2.428   3.661  -3.527  0.00  0.00    +0.022 A 
ATOM     14  C   UNL     1      -3.394   4.642  -3.395  0.00  0.00    +0.059 A 
ATOM     15  C   UNL     1      -3.654   5.196  -2.153  0.00  0.00    +0.060 A 
ATOM     16  C   UNL     1      -2.946   4.767  -1.044  0.00  0.00    +0.027 A 
ATOM     17 CL   UNL     1      -4.865   6.428  -1.986  0.00  0.00    -0.082 Cl
ATOM     18 CL   UNL     1      -4.281   5.180  -4.787  0.00  0.00    -0.082 Cl
ENDBRANCH   7  11
BRANCH   1  19
ATOM     19  C   UNL     1       0.234   5.424   0.026  0.00  0.00    +0.339 C 
ATOM     20  O   UNL     1       1.327   5.959   0.018  0.00  0.00    -0.245 OA
BRANCH  19  21
ATOM     21  O   UNL     1      -0.885   6.177   0.041  0.00  0.00    -0.461 OA
BRANCH  21  22
ATOM     22  C   UNL     1      -0.713   7.595   0.045  0.00  0.00    +0.232 C 
BRANCH  22  24
ATOM     23  C   UNL     1      -1.899   9.794   0.066  0.00  0.00    +0.007 C 
ATOM     24  C   UNL     1      -2.084   8.275   0.061  0.00  0.00    +0.038 C 
ENDBRANCH  22  24
ENDBRANCH  21  22
ENDBRANCH  19  21
ENDBRANCH   1  19
TORSDOF 5
