REMARK  Name = ZINC05327839
REMARK  13 active torsions:
REMARK  status: ('A' for Active; 'I' for Inactive)
REMARK    1  A    between atoms: C_1  and  C_2
REMARK    2  A    between atoms: C_2  and  C_33
REMARK    3  A    between atoms: C_3  and  C_4
REMARK    4  A    between atoms: C_4  and  C_5
REMARK    5  A    between atoms: C_5  and  C_6
REMARK    6  A    between atoms: C_6  and  C_32
REMARK    7  A    between atoms: C_7  and  C_8
REMARK    8  A    between atoms: C_8  and  N_9
REMARK    9  A    between atoms: N_16  and  C1*_19
REMARK   10  A    between atoms: C2*_21  and  O2*_31
REMARK   11  A    between atoms: C3*_23  and  O3*_30
REMARK   12  A    between atoms: C4*_25  and  C5*_28
REMARK   13  A    between atoms: C5*_28  and  O5*_29
REMARK                            x       y       z     vdW  Elec       q    Type
REMARK                         _______ _______ _______ _____ _____    ______ ____
ROOT
ATOM      1  N   UNL     1      -0.188   1.993   2.195  0.00  0.00    -0.324 N 
ATOM      2  C   UNL     1      -0.090   3.234   2.799  0.00  0.00    +0.150 A 
ATOM      3  C   UNL     1      -0.175   3.362   4.197  0.00  0.00    +0.147 A 
ATOM      4  C   UNL     1      -0.069   4.647   4.752  0.00  0.00    +0.167 A 
ATOM      5  N   UNL     1       0.106   5.688   3.944  0.00  0.00    -0.216 NA
ATOM      6  C   UNL     1       0.180   5.521   2.641  0.00  0.00    +0.225 A 
ATOM      7  N   UNL     1       0.092   4.331   2.073  0.00  0.00    -0.219 NA
ATOM      8  N   UNL     1      -0.184   4.484   6.110  0.00  0.00    -0.286 N 
ATOM      9  C   UNL     1      -0.352   3.152   6.348  0.00  0.00    +0.203 A 
ATOM     10  N   UNL     1      -0.347   2.495   5.224  0.00  0.00    -0.231 NA
ATOM     11  H   UNL     1      -1.073   1.643   2.502  0.00  0.00    +0.148 HD
ENDROOT
BRANCH   8  12
ATOM     12  C1* UNL     1      -0.135   5.545   7.118  0.00  0.00    +0.253 C 
ATOM     13  C2* UNL     1       1.329   5.857   7.499  0.00  0.00    +0.195 C 
ATOM     14  C3* UNL     1       1.270   6.144   9.016  0.00  0.00    +0.178 C 
ATOM     15  C4* UNL     1      -0.224   5.970   9.373  0.00  0.00    +0.177 C 
ATOM     16  O4* UNL     1      -0.749   5.099   8.347  0.00  0.00    -0.346 OA
BRANCH  14  17
ATOM     17  O3* UNL     1       2.071   5.204   9.735  0.00  0.00    -0.386 OA
ATOM     18  H3* UNL     1       2.070   5.337  10.693  0.00  0.00    +0.210 HD
ENDBRANCH  14  17
BRANCH  13  19
ATOM     19  O2* UNL     1       1.797   7.007   6.791  0.00  0.00    -0.385 OA
ATOM     20  H2* UNL     1       2.711   7.248   6.992  0.00  0.00    +0.210 HD
ENDBRANCH  13  19
BRANCH  15  21
ATOM     21  C5* UNL     1      -0.371   5.321  10.750  0.00  0.00    +0.190 C 
BRANCH  21  22
ATOM     22  O5* UNL     1      -1.753   5.276  11.110  0.00  0.00    -0.392 OA
ATOM     23  H5* UNL     1      -1.921   4.875  11.974  0.00  0.00    +0.210 HD
ENDBRANCH  21  22
ENDBRANCH  15  21
ENDBRANCH   8  12
BRANCH   1  24
ATOM     24  C   UNL     1      -0.097   1.879   0.737  0.00  0.00    +0.130 C 
BRANCH  24  26
ATOM     25  C   UNL     1      -1.145   0.076  -0.533  0.00  0.00    -0.075 C 
ATOM     26  C   UNL     1      -0.233   0.432   0.337  0.00  0.00    -0.009 C 
ATOM     27  C   UNL     1      -1.972   1.126  -1.231  0.00  0.00    +0.039 C 
BRANCH  25  28
ATOM     28  C   UNL     1      -1.368  -1.383  -0.836  0.00  0.00    +0.034 C 
BRANCH  28  29
ATOM     29  C   UNL     1      -2.510  -1.915   0.032  0.00  0.00    +0.031 C 
BRANCH  29  32
ATOM     30  C   UNL     1      -2.574  -3.801   2.127  0.00  0.00    +0.038 C 
ATOM     31  C   UNL     1      -2.704  -4.257   0.697  0.00  0.00    -0.080 C 
ATOM     32  C   UNL     1      -2.734  -3.374  -0.271  0.00  0.00    -0.028 C 
ATOM     33  C   UNL     1      -2.799  -5.727   0.380  0.00  0.00    +0.038 C 
ENDBRANCH  29  32
ENDBRANCH  28  29
ENDBRANCH  25  28
ENDBRANCH  24  26
ENDBRANCH   1  24
TORSDOF 10
