REMARK  Name = ZINC60346331
REMARK  14 active torsions:
REMARK  status: ('A' for Active; 'I' for Inactive)
REMARK    1  A    between atoms: C_1  and  C_2
REMARK    2  A    between atoms: C_2  and  N_3
REMARK    3  A    between atoms: N_3  and  C_4
REMARK    4  A    between atoms: C_4  and  C_5
REMARK    5  A    between atoms: C_8  and  O_13
REMARK    6  A    between atoms: C_9  and  O_11
REMARK    7  A    between atoms: O_11  and  C_12
REMARK    8  A    between atoms: O_13  and  C_14
REMARK    9  A    between atoms: C_15  and  C_17
REMARK   10  A    between atoms: C_17  and  N_18
REMARK   11  A    between atoms: C_21  and  C_25
REMARK   12  A    between atoms: C_21  and  C_26
REMARK   13  A    between atoms: C_28  and  C_32
REMARK   14  A    between atoms: C_30  and  C_31
REMARK                            x       y       z     vdW  Elec       q    Type
REMARK                         _______ _______ _______ _____ _____    ______ ____
ROOT
ATOM      1  C   UNL     1      -1.283  -0.557   2.455  0.00  0.00    +0.213 C 
ENDROOT
BRANCH   1   2
ATOM      2  N   UNL     1      -2.155  -0.864   3.591  0.00  0.00    -0.215 N 
ATOM      3  C   UNL     1      -3.027   0.008   4.134  0.00  0.00    +0.251 C 
ATOM      4  O   UNL     1      -3.230   1.152   3.787  0.00  0.00    -0.272 OA
ATOM      5  C   UNL     1      -3.702  -0.738   5.268  0.00  0.00    +0.138 C 
ATOM      6  N   UNL     1      -3.072  -2.070   5.229  0.00  0.00    -0.281 N 
ATOM      7  C   UNL     1      -2.188  -2.048   4.215  0.00  0.00    +0.310 C 
ATOM      8  O   UNL     1      -1.495  -2.996   3.903  0.00  0.00    -0.252 OA
ATOM      9  C   UNL     1      -3.423  -0.050   6.606  0.00  0.00    +0.047 C 
ATOM     10  H   UNL     1      -3.261  -2.817   5.817  0.00  0.00    +0.152 HD
BRANCH   5  11
ATOM     11  C   UNL     1      -5.185  -0.845   5.024  0.00  0.00    +0.025 A 
ATOM     12  C   UNL     1      -5.941  -2.037   4.938  0.00  0.00    +0.051 A 
ATOM     13  C   UNL     1      -7.216  -1.674   4.713  0.00  0.00    +0.103 A 
ATOM     14  O   UNL     1      -7.273  -0.333   4.659  0.00  0.00    -0.465 OA
ATOM     15  C   UNL     1      -6.045   0.175   4.851  0.00  0.00    +0.108 A 
ATOM     16  C   UNL     1      -5.689   1.639   4.868  0.00  0.00    +0.086 C 
ATOM     17  C   UNL     1      -8.384  -2.612   4.550  0.00  0.00    +0.086 C 
ENDBRANCH   5  11
ENDBRANCH   1   2
BRANCH   1  19
ATOM     18  N   UNL     1      -1.381  -0.695  -0.013  0.00  0.00    -0.296 N 
ATOM     19  C   UNL     1      -1.994  -0.896   1.170  0.00  0.00    +0.234 C 
ATOM     20  O   UNL     1      -3.119  -1.349   1.201  0.00  0.00    -0.274 OA
BRANCH  18  22
ATOM     21  C   UNL     1      -0.089   1.379  -0.116  0.00  0.00    +0.024 C 
ATOM     22  C   UNL     1      -0.022  -0.148  -0.050  0.00  0.00    +0.105 C 
ENDBRANCH  18  22
BRANCH  18  23
ATOM     23  C   UNL     1      -2.072  -1.024  -1.262  0.00  0.00    +0.143 C 
BRANCH  23  24
ATOM     24  C   UNL     1      -1.777  -2.454  -1.637  0.00  0.00    -0.026 A 
ATOM     25  C   UNL     1      -0.682  -2.747  -2.429  0.00  0.00    +0.009 A 
ATOM     26  C   UNL     1      -0.407  -4.056  -2.777  0.00  0.00    +0.050 A 
ATOM     27  C   UNL     1      -1.230  -5.079  -2.331  0.00  0.00    +0.162 A 
ATOM     28  C   UNL     1      -2.331  -4.784  -1.533  0.00  0.00    +0.162 A 
ATOM     29  C   UNL     1      -2.598  -3.469  -1.185  0.00  0.00    +0.054 A 
BRANCH  28  30
ATOM     30  O   UNL     1      -3.141  -5.783  -1.093  0.00  0.00    -0.491 OA
ATOM     31  C   UNL     1      -4.253  -5.406  -0.278  0.00  0.00    +0.277 C 
ENDBRANCH  28  30
BRANCH  27  32
ATOM     32  O   UNL     1      -0.961  -6.367  -2.672  0.00  0.00    -0.491 OA
ATOM     33  C   UNL     1       0.186  -6.595  -3.493  0.00  0.00    +0.277 C 
ENDBRANCH  27  32
ENDBRANCH  23  24
ENDBRANCH  18  23
ENDBRANCH   1  19
TORSDOF 8
