REMARK  Name = ZINC44784048
REMARK  6 active torsions:
REMARK  status: ('A' for Active; 'I' for Inactive)
REMARK    1  A    between atoms: C_1  and  C_2
REMARK    2  A    between atoms: C_2  and  C_3
REMARK    3  A    between atoms: C_2  and  C_4
REMARK    4  A    between atoms: C_2  and  C_8
REMARK    5  A    between atoms: N_5  and  O_6
REMARK    6  A    between atoms: N_10  and  C_11
REMARK                            x       y       z     vdW  Elec       q    Type
REMARK                         _______ _______ _______ _____ _____    ______ ____
ROOT
ATOM      1  C   UNL     1       0.708  -0.491  -1.237  0.00  0.00    +0.230 C 
ATOM      2  O   UNL     1       0.123  -1.199  -2.029  0.00  0.00    -0.274 OA
ATOM      3  N   UNL     1       1.991  -0.146  -1.462  0.00  0.00    -0.285 N 
ATOM      4  H   UNL     1       2.438   0.474  -0.864  0.00  0.00    +0.155 HD
ENDROOT
BRANCH   3   5
ATOM      5  C   UNL     1       2.678  -0.681  -2.557  0.00  0.00    +0.036 A 
ATOM      6  C   UNL     1       4.032  -0.973  -2.453  0.00  0.00    +0.043 A 
ATOM      7  C   UNL     1       4.708  -1.502  -3.537  0.00  0.00    +0.044 A 
ATOM      8  C   UNL     1       4.038  -1.740  -4.723  0.00  0.00    +0.040 A 
ATOM      9  C   UNL     1       2.689  -1.449  -4.829  0.00  0.00    +0.044 A 
ATOM     10  C   UNL     1       2.006  -0.926  -3.747  0.00  0.00    +0.043 A 
ATOM     11 CL   UNL     1       1.851  -1.749  -6.320  0.00  0.00    -0.083 Cl
ATOM     12 CL   UNL     1       6.401  -1.867  -3.409  0.00  0.00    -0.083 Cl
ENDBRANCH   3   5
BRANCH   1  14
ATOM     13  C   UNL     1      -0.024   1.532  -0.004  0.00  0.00    +0.029 C 
ATOM     14  C   UNL     1       0.000   0.002  -0.001  0.00  0.00    +0.100 C 
ATOM     15  C   UNL     1       0.740  -0.495   1.243  0.00  0.00    +0.029 C 
BRANCH  14  16
ATOM     16  C   UNL     1      -1.413  -0.523   0.012  0.00  0.00    +0.146 C 
ATOM     17  N   UNL     1      -2.408   0.301   0.019  0.00  0.00    -0.076 NA
ATOM     18  N   UNL     1      -1.643  -1.881   0.016  0.00  0.00    -0.343 N 
ATOM     19  H   UNL     1      -0.895  -2.500   0.011  0.00  0.00    +0.144 HD
ATOM     20  H   UNL     1      -2.552  -2.219   0.024  0.00  0.00    +0.144 HD
BRANCH  17  21
ATOM     21  O   UNL     1      -3.735  -0.193   0.031  0.00  0.00    -0.408 OA
ATOM     22  H   UNL     1      -4.411   0.499   0.035  0.00  0.00    +0.328 HD
ENDBRANCH  17  21
ENDBRANCH  14  16
ENDBRANCH   1  14
TORSDOF 4
