REMARK  Name = ZINC13687457
REMARK  6 active torsions:
REMARK  status: ('A' for Active; 'I' for Inactive)
REMARK    1  A    between atoms: C_1  and  C_2
REMARK    2  A    between atoms: C_5  and  N_18
REMARK    3  A    between atoms: C_6  and  O_17
REMARK    4  A    between atoms: C_11  and  C_16
REMARK    5  A    between atoms: C_13  and  C_14
REMARK    6  A    between atoms: C_13  and  C_15
REMARK                            x       y       z     vdW  Elec       q    Type
REMARK                         _______ _______ _______ _____ _____    ______ ____
ROOT
ATOM      1  C   UNL     1      -0.018   1.503   0.010  0.00  0.00    +0.044 C 
ATOM      2  C   UNL     1       0.002  -0.004   0.002  0.00  0.00    -0.049 A 
ATOM      3  C   UNL     1       0.005  -0.667  -1.212  0.00  0.00    +0.015 A 
ATOM      4  C   UNL     1       0.024  -2.060  -1.231  0.00  0.00    +0.032 A 
ATOM      5  C   UNL     1       0.033  -3.137  -2.235  0.00  0.00    +0.154 A 
ATOM      6  C   UNL     1       0.052  -4.337  -1.528  0.00  0.00    +0.223 A 
ATOM      7  N   UNL     1       0.056  -4.079  -0.192  0.00  0.00    -0.300 N 
ATOM      8  C   UNL     1       0.039  -2.723  -0.011  0.00  0.00    +0.062 A 
ATOM      9  C   UNL     1       0.037  -2.075   1.215  0.00  0.00    +0.002 A 
ATOM     10  C   UNL     1       0.023  -0.682   1.213  0.00  0.00    +0.013 A 
ATOM     11  C   UNL     1       0.053  -2.881   2.450  0.00  0.00    -0.043 C 
ATOM     12  C   UNL     1       0.070  -4.210   2.366  0.00  0.00    +0.005 C 
ATOM     13  C   UNL     1       0.072  -4.907   1.024  0.00  0.00    +0.062 C 
ATOM     14  C   UNL     1      -1.149  -5.827   0.976  0.00  0.00    +0.039 C 
ATOM     15  C   UNL     1       1.317  -5.795   0.965  0.00  0.00    +0.039 C 
ATOM     16  C   UNL     1       0.052  -2.206   3.797  0.00  0.00    +0.044 C 
ENDROOT
BRANCH   5  17
ATOM     17  N   UNL     1       0.024  -2.990  -3.578  0.00  0.00    -0.152 NA
ATOM     18  N   UNL     1       0.033  -3.990  -4.311  0.00  0.00    -0.203 NA
ATOM     19  H   UNL     1       0.026  -3.884  -5.276  0.00  0.00    +0.212 HD
ENDBRANCH   5  17
BRANCH   6  20
ATOM     20  O   UNL     1       0.065  -5.569  -2.084  0.00  0.00    -0.492 OA
ATOM     21  H   UNL     1       0.952  -5.917  -2.251  0.00  0.00    +0.294 HD
ENDBRANCH   6  20
TORSDOF 2
