REMARK  Name = ZINC65248545
REMARK  7 active torsions:
REMARK  status: ('A' for Active; 'I' for Inactive)
REMARK    1  A    between atoms: C_1  and  C_2
REMARK    2  A    between atoms: C_2  and  C_3
REMARK    3  A    between atoms: C_3  and  O_4
REMARK    4  A    between atoms: O_4  and  C_5
REMARK    5  A    between atoms: C_8  and  C_11
REMARK    6  A    between atoms: C_14  and  C_17
REMARK    7  A    between atoms: C_19  and  O_30
REMARK                            x       y       z     vdW  Elec       q    Type
REMARK                         _______ _______ _______ _____ _____    ______ ____
ROOT
ATOM      1  C   UNL     1       3.229  -4.415  -5.629  0.00  0.00    +0.168 C 
ATOM      2  N   UNL     1       3.787  -3.783  -6.610  0.00  0.00    -0.067 NA
ATOM      3  O   UNL     1       4.326  -4.689  -7.554  0.00  0.00    -0.368 OA
ATOM      4  C   UNL     1       4.046  -6.008  -7.061  0.00  0.00    +0.311 C 
ATOM      5  N   UNL     1       3.331  -5.784  -5.795  0.00  0.00    -0.289 N 
ATOM      6  H   UNL     1       2.993  -6.466  -5.193  0.00  0.00    +0.151 HD
ENDROOT
BRANCH   4   7
ATOM      7  C   UNL     1       5.348  -6.771  -6.808  0.00  0.00    +0.202 C 
ATOM      8  C   UNL     1       6.094  -6.868  -8.125  0.00  0.00    +0.120 C 
ATOM      9  C   UNL     1       7.381  -6.332  -8.166  0.00  0.00    +0.035 A 
ATOM     10  C   UNL     1       8.141  -6.382  -9.354  0.00  0.00    +0.016 A 
ATOM     11  C   UNL     1       9.394  -5.854  -9.375  0.00  0.00    +0.039 A 
ATOM     12  C   UNL     1       9.948  -5.260  -8.241  0.00  0.00    +0.125 A 
ATOM     13  C   UNL     1       9.254  -5.183  -7.055  0.00  0.00    +0.062 A 
ATOM     14  C   UNL     1       7.956  -5.710  -6.970  0.00  0.00    +0.047 A 
ATOM     15  N   UNL     1       7.281  -5.634  -5.815  0.00  0.00    -0.284 N 
ATOM     16  C   UNL     1       6.061  -6.103  -5.654  0.00  0.00    +0.233 C 
ATOM     17  O   UNL     1       5.507  -5.997  -4.575  0.00  0.00    -0.274 OA
ATOM     18  F   UNL     1      11.197  -4.749  -8.308  0.00  0.00    -0.205 F 
ATOM     19  H   UNL     1       7.714  -5.211  -5.057  0.00  0.00    +0.155 HD
BRANCH   8  20
ATOM     20  O   UNL     1       5.541  -7.443  -9.199  0.00  0.00    -0.509 OA
ATOM     21  H   UNL     1       6.111  -7.446  -9.980  0.00  0.00    +0.292 HD
ENDBRANCH   8  20
ENDBRANCH   4   7
BRANCH   1  25
ATOM     22  C   UNL     1       1.341  -2.529  -2.322  0.00  0.00    +0.121 A 
ATOM     23  C   UNL     1       1.908  -1.758  -3.328  0.00  0.00    +0.046 A 
ATOM     24  C   UNL     1       2.521  -2.366  -4.402  0.00  0.00    +0.015 A 
ATOM     25  C   UNL     1       2.572  -3.758  -4.478  0.00  0.00    +0.018 A 
ATOM     26  C   UNL     1       2.002  -4.530  -3.465  0.00  0.00    +0.015 A 
ATOM     27  C   UNL     1       1.395  -3.915  -2.391  0.00  0.00    +0.046 A 
BRANCH  22  28
ATOM     28  O   UNL     1       0.738  -1.926  -1.265  0.00  0.00    -0.492 OA
BRANCH  28  29
ATOM     29  C   UNL     1       0.718  -0.497  -1.257  0.00  0.00    +0.229 C 
BRANCH  29  31
ATOM     30  C   UNL     1      -0.019   1.526   0.010  0.00  0.00    +0.007 C 
ATOM     31  C   UNL     1       0.002  -0.004   0.002  0.00  0.00    +0.038 C 
ENDBRANCH  29  31
ENDBRANCH  28  29
ENDBRANCH  22  28
ENDBRANCH   1  25
TORSDOF 6
