REMARK  Name = ZINC59124468
REMARK  6 active torsions:
REMARK  status: ('A' for Active; 'I' for Inactive)
REMARK    1  A    between atoms: C_1  and  C_2
REMARK    2  A    between atoms: C_11  and  N_30
REMARK    3  A    between atoms: C_13  and  C_15
REMARK    4  A    between atoms: C_15  and  N_16
REMARK    5  A    between atoms: C_17  and  C_26
REMARK    6  A    between atoms: C_20  and  C_23
REMARK                            x       y       z     vdW  Elec       q    Type
REMARK                         _______ _______ _______ _____ _____    ______ ____
ROOT
ATOM      1  C   UNL     1      -2.338   1.611   1.000  0.00  0.00    +0.008 C 
ATOM      2  C   UNL     1      -1.918   0.151   0.815  0.00  0.00    -0.009 C 
ATOM      3  C   UNL     1      -0.990   0.034  -0.398  0.00  0.00    +0.008 C 
ATOM      4  C   UNL     1      -0.766  -1.440  -0.738  0.00  0.00    +0.037 C 
ATOM      5  C   UNL     1      -0.297  -2.171   0.518  0.00  0.00    -0.025 A 
ATOM      6  C   UNL     1      -0.497  -1.633   1.742  0.00  0.00    -0.004 A 
ATOM      7  S   UNL     1       0.194  -2.802   2.886  0.00  0.00    -0.073 S 
ATOM      8  C   UNL     1       0.750  -4.008   1.726  0.00  0.00    +0.114 A 
ATOM      9  C   UNL     1       0.377  -3.458   0.473  0.00  0.00    +0.051 A 
ATOM     10  C   UNL     1       0.700  -4.221  -0.686  0.00  0.00    +0.128 A 
ATOM     11  N   UNL     1       1.324  -5.377  -0.464  0.00  0.00    -0.215 NA
ATOM     12  C   UNL     1       1.640  -5.825   0.734  0.00  0.00    +0.152 A 
ATOM     13  N   UNL     1       1.369  -5.165   1.854  0.00  0.00    -0.223 NA
ATOM     14  C   UNL     1      -1.164  -0.330   2.063  0.00  0.00    +0.046 C 
ENDROOT
BRANCH  10  15
ATOM     15  N   UNL     1       0.386  -3.788  -1.961  0.00  0.00    -0.343 N 
ATOM     16  H   UNL     1       0.816  -4.192  -2.731  0.00  0.00    +0.144 HD
ATOM     17  H   UNL     1      -0.265  -3.079  -2.086  0.00  0.00    +0.144 HD
ENDBRANCH  10  15
BRANCH  12  18
ATOM     18  C   UNL     1       2.346  -7.152   0.838  0.00  0.00    +0.201 C 
BRANCH  18  19
ATOM     19  N   UNL     1       3.795  -6.941   0.790  0.00  0.00    -0.297 N 
ATOM     20  C   UNL     1       4.429  -6.944  -0.407  0.00  0.00    +0.126 A 
ATOM     21  C   UNL     1       5.770  -6.751  -0.493  0.00  0.00    +0.031 A 
ATOM     22  C   UNL     1       6.523  -6.544   0.662  0.00  0.00    +0.020 A 
ATOM     23  C   UNL     1       5.878  -6.539   1.897  0.00  0.00    +0.101 A 
ATOM     24  C   UNL     1       4.473  -6.741   1.935  0.00  0.00    +0.264 A 
ATOM     25  O   UNL     1       3.884  -6.736   3.002  0.00  0.00    -0.267 OA
BRANCH  23  26
ATOM     26  C   UNL     1       6.637  -6.325   3.138  0.00  0.00    +0.247 C 
ATOM     27  O   UNL     1       7.818  -6.038   3.086  0.00  0.00    -0.270 OA
ATOM     28  N   UNL     1       6.025  -6.447   4.332  0.00  0.00    -0.325 N 
ATOM     29  H   UNL     1       5.105  -6.752   4.377  0.00  0.00    +0.145 HD
ATOM     30  H   UNL     1       6.504  -6.229   5.147  0.00  0.00    +0.145 HD
ENDBRANCH  23  26
BRANCH  20  31
ATOM     31  C   UNL     1       3.631  -7.166  -1.666  0.00  0.00    +0.433 C 
ATOM     32  F   UNL     1       4.487  -7.129  -2.773  0.00  0.00    -0.164 F 
ATOM     33  F   UNL     1       3.002  -8.414  -1.605  0.00  0.00    -0.164 F 
ATOM     34  F   UNL     1       2.665  -6.162  -1.790  0.00  0.00    -0.164 F 
ENDBRANCH  20  31
ENDBRANCH  18  19
ENDBRANCH  12  18
TORSDOF 5
