REMARK  Name = ZINC66679191
REMARK  8 active torsions:
REMARK  status: ('A' for Active; 'I' for Inactive)
REMARK    1  A    between atoms: C_1  and  C_2
REMARK    2  A    between atoms: C_2  and  C_3
REMARK    3  A    between atoms: C_2  and  C_4
REMARK    4  A    between atoms: C_4  and  N_5
REMARK    5  A    between atoms: C_6  and  C_8
REMARK    6  A    between atoms: C_8  and  N_9
REMARK    7  A    between atoms: N_12  and  C_13
REMARK    8  A    between atoms: C_17  and  C_19
REMARK                            x       y       z     vdW  Elec       q    Type
REMARK                         _______ _______ _______ _____ _____    ______ ____
ROOT
ATOM      1  N   UNL     1       0.391  -0.593   6.085  0.00  0.00    -0.291 N 
ATOM      2  C   UNL     1      -0.114  -0.360   7.313  0.00  0.00    +0.304 C 
ATOM      3  O   UNL     1      -1.155   0.255   7.435  0.00  0.00    -0.252 OA
ATOM      4  N   UNL     1       0.537  -0.808   8.405  0.00  0.00    -0.269 N 
ATOM      5  H   UNL     1       1.222  -1.083   5.987  0.00  0.00    +0.151 HD
ATOM      6  H   UNL     1       1.332  -1.355   8.305  0.00  0.00    +0.156 HD
ENDROOT
BRANCH   4   7
ATOM      7  C   UNL     1       0.067  -0.483   9.682  0.00  0.00    +0.035 A 
ATOM      8  C   UNL     1      -1.300  -0.387   9.916  0.00  0.00    +0.023 A 
ATOM      9  C   UNL     1      -1.768  -0.066  11.176  0.00  0.00    +0.002 A 
ATOM     10  C   UNL     1      -0.881   0.161  12.209  0.00  0.00    +0.010 A 
ATOM     11  C   UNL     1       0.491   0.067  11.984  0.00  0.00    +0.004 A 
ATOM     12  C   UNL     1       0.964  -0.262  10.716  0.00  0.00    +0.033 A 
BRANCH  11  13
ATOM     13  C   UNL     1       1.445   0.311  13.093  0.00  0.00    +0.091 A 
ATOM     14  C   UNL     1       0.960   0.634  14.382  0.00  0.00    +0.035 A 
ATOM     15  C   UNL     1       1.866   0.852  15.377  0.00  0.00    +0.073 A 
ATOM     16  C   UNL     1       3.238   0.740  15.058  0.00  0.00    +0.265 A 
ATOM     17  O   UNL     1       4.086   0.925  15.917  0.00  0.00    -0.266 OA
ATOM     18  N   UNL     1       3.603   0.427  13.801  0.00  0.00    -0.243 N 
ATOM     19  H   UNL     1       4.547   0.352  13.588  0.00  0.00    +0.192 HD
ATOM     20  N   UNL     1       2.736   0.221  12.877  0.00  0.00    -0.171 NA
ENDBRANCH  11  13
ENDBRANCH   4   7
BRANCH   1  21
ATOM     21  C   UNL     1      -0.317  -0.106   4.898  0.00  0.00    +0.201 C 
BRANCH  21  23
ATOM     22  N   UNL     1      -0.015  -0.152   2.443  0.00  0.00    -0.314 N 
ATOM     23  C   UNL     1       0.450  -0.496   3.661  0.00  0.00    +0.230 C 
ATOM     24  O   UNL     1       1.486  -1.119   3.760  0.00  0.00    -0.274 OA
ATOM     25  H   UNL     1      -0.843   0.346   2.363  0.00  0.00    +0.149 HD
BRANCH  22  26
ATOM     26  C   UNL     1       0.731  -0.531   1.240  0.00  0.00    +0.107 C 
BRANCH  26  28
ATOM     27  C   UNL     1      -0.019   1.507   0.005  0.00  0.00    +0.009 C 
ATOM     28  C   UNL     1      -0.008  -0.023   0.001  0.00  0.00    -0.000 C 
ATOM     29  C   UNL     1       0.702  -0.524  -1.258  0.00  0.00    +0.009 C 
ENDBRANCH  26  28
ENDBRANCH  22  26
ENDBRANCH  21  23
ENDBRANCH   1  21
TORSDOF 6
