REMARK  Name = ZINC01681025
REMARK  6 active torsions:
REMARK  status: ('A' for Active; 'I' for Inactive)
REMARK    1  A    between atoms: C_1  and  C_2
REMARK    2  A    between atoms: C_5  and  C_8
REMARK    3  A    between atoms: N_9  and  N_10
REMARK    4  A    between atoms: N_13  and  N_14
REMARK    5  A    between atoms: C_15  and  C_16
REMARK    6  A    between atoms: C_19  and  C_22
REMARK                            x       y       z     vdW  Elec       q    Type
REMARK                         _______ _______ _______ _____ _____    ______ ____
ROOT
ATOM      1  N   UNL     1      -4.827   0.927   0.233  0.00  0.00    -0.189 N 
ATOM      2  C   UNL     1      -6.005   1.582   0.242  0.00  0.00    +0.339 C 
ATOM      3  O   UNL     1      -7.048   0.957   0.242  0.00  0.00    -0.249 OA
ATOM      4  N   UNL     1      -6.027   2.930   0.250  0.00  0.00    -0.189 N 
ATOM      5  H   UNL     1      -4.810  -0.040   0.301  0.00  0.00    +0.179 HD
ATOM      6  H   UNL     1      -5.198   3.429   0.176  0.00  0.00    +0.179 HD
ENDROOT
BRANCH   1   8
ATOM      7  C   UNL     1      -2.501   1.010   0.020  0.00  0.00    +0.138 C 
ATOM      8  N   UNL     1      -3.628   1.643   0.126  0.00  0.00    -0.186 NA
BRANCH   7  13
ATOM      9  C   UNL     1       2.453   3.932   0.002  0.00  0.00    +0.044 C 
ATOM     10  C   UNL     1       1.155   3.166   0.010  0.00  0.00    -0.050 A 
ATOM     11  C   UNL     1       1.171   1.783   0.003  0.00  0.00    +0.004 A 
ATOM     12  C   UNL     1      -0.013   1.075   0.010  0.00  0.00    +0.010 A 
ATOM     13  C   UNL     1      -1.231   1.759   0.019  0.00  0.00    -0.005 A 
ATOM     14  C   UNL     1      -1.240   3.156   0.032  0.00  0.00    +0.010 A 
ATOM     15  C   UNL     1      -0.048   3.850   0.025  0.00  0.00    +0.004 A 
ENDBRANCH   7  13
ENDBRANCH   1   8
BRANCH   4  16
ATOM     16  N   UNL     1      -7.246   3.610   0.366  0.00  0.00    -0.186 NA
ATOM     17  C   UNL     1      -7.278   4.904   0.276  0.00  0.00    +0.138 C 
BRANCH  17  18
ATOM     18  C   UNL     1      -8.542   5.628   0.507  0.00  0.00    -0.005 A 
ATOM     19  C   UNL     1      -9.682   4.935   0.919  0.00  0.00    +0.010 A 
ATOM     20  C   UNL     1     -10.860   5.620   1.137  0.00  0.00    +0.004 A 
ATOM     21  C   UNL     1     -10.915   6.989   0.940  0.00  0.00    -0.050 A 
ATOM     22  C   UNL     1      -9.790   7.681   0.527  0.00  0.00    +0.004 A 
ATOM     23  C   UNL     1      -8.605   7.010   0.310  0.00  0.00    +0.010 A 
ATOM     24  C   UNL     1     -12.207   7.729   1.176  0.00  0.00    +0.044 C 
ENDBRANCH  17  18
ENDBRANCH   4  16
TORSDOF 4
