REMARK  Name = ZINC48633784
REMARK  9 active torsions:
REMARK  status: ('A' for Active; 'I' for Inactive)
REMARK    1  A    between atoms: C_1  and  C_2
REMARK    2  A    between atoms: C_8  and  O_10
REMARK    3  A    between atoms: O_10  and  C_11
REMARK    4  A    between atoms: C_11  and  C_13
REMARK    5  A    between atoms: C_13  and  C_15
REMARK    6  A    between atoms: C_13  and  N_24
REMARK    7  A    between atoms: C_15  and  C_16
REMARK    8  A    between atoms: C_19  and  O_23
REMARK    9  A    between atoms: C_20  and  O_22
REMARK                            x       y       z     vdW  Elec       q    Type
REMARK                         _______ _______ _______ _____ _____    ______ ____
ROOT
ATOM      1  C   UNL     1       0.194   0.643   4.784  0.00  0.00    +0.040 C 
ENDROOT
BRANCH   1   2
ATOM      2  N   UNL     1       1.222   1.240   5.647  0.00  0.00    +0.387 N 
ATOM      3  H   UNL     1       1.653   2.017   5.169  0.00  0.00    -0.089 HD
ATOM      4  H   UNL     1       0.796   1.565   6.502  0.00  0.00    -0.089 HD
ATOM      5  H   UNL     1       1.923   0.547   5.862  0.00  0.00    -0.089 HD
ENDBRANCH   1   2
BRANCH   1   6
ATOM      6  C   UNL     1       0.829   0.157   3.507  0.00  0.00    +0.293 C 
ATOM      7  O   UNL     1       2.020  -0.046   3.464  0.00  0.00    -0.253 OA
BRANCH   6   8
ATOM      8  O   UNL     1       0.073  -0.050   2.417  0.00  0.00    -0.462 OA
BRANCH   8  15
ATOM      9  C   UNL     1      -0.019   1.526   0.010  0.00  0.00    +0.011 C 
ATOM     10  C   UNL     1       0.002  -0.004   0.002  0.00  0.00    +0.027 C 
ATOM     11  C   UNL     1       0.718  -0.497  -1.257  0.00  0.00    +0.007 C 
ATOM     12  C   UNL     1       0.739  -2.027  -1.265  0.00  0.00    +0.000 C 
ATOM     13  C   UNL     1       1.479  -2.534  -0.026  0.00  0.00    +0.004 C 
ATOM     14  C   UNL     1       0.763  -2.041   1.233  0.00  0.00    +0.045 C 
ATOM     15  C   UNL     1       0.742  -0.511   1.242  0.00  0.00    +0.179 C 
ENDBRANCH   8  15
ENDBRANCH   6   8
ENDBRANCH   1   6
BRANCH   1  16
ATOM     16  C   UNL     1      -0.460  -0.535   5.509  0.00  0.00    +0.030 C 
BRANCH  16  17
ATOM     17  C   UNL     1      -1.200  -0.031   6.721  0.00  0.00    -0.045 A 
ATOM     18  C   UNL     1      -0.548   0.064   7.936  0.00  0.00    +0.007 A 
ATOM     19  C   UNL     1      -1.223   0.526   9.052  0.00  0.00    +0.049 A 
ATOM     20  C   UNL     1      -2.555   0.895   8.952  0.00  0.00    +0.158 A 
ATOM     21  C   UNL     1      -3.210   0.800   7.728  0.00  0.00    +0.158 A 
ATOM     22  C   UNL     1      -2.527   0.341   6.614  0.00  0.00    +0.052 A 
BRANCH  21  23
ATOM     23  O   UNL     1      -4.517   1.161   7.626  0.00  0.00    -0.503 OA
ATOM     24  H   UNL     1      -4.652   2.092   7.401  0.00  0.00    +0.292 HD
ENDBRANCH  21  23
BRANCH  20  25
ATOM     25  O   UNL     1      -3.220   1.349  10.048  0.00  0.00    -0.503 OA
ATOM     26  H   UNL     1      -3.168   2.307  10.170  0.00  0.00    +0.292 HD
ENDBRANCH  20  25
ENDBRANCH  16  17
ENDBRANCH   1  16
TORSDOF 8
