REMARK  Name = ZINC67300250
REMARK  6 active torsions:
REMARK  status: ('A' for Active; 'I' for Inactive)
REMARK    1  A    between atoms: C_1  and  C_2
REMARK    2  A    between atoms: C_2  and  N_3
REMARK    3  A    between atoms: N_6  and  C_7
REMARK    4  A    between atoms: C_11  and  N_13
REMARK    5  A    between atoms: C_14  and  C_16
REMARK    6  A    between atoms: N_26  and  C_27
REMARK                            x       y       z     vdW  Elec       q    Type
REMARK                         _______ _______ _______ _____ _____    ______ ____
ROOT
ATOM      1  N   UNL     1       2.918  -6.052  -5.157  0.00  0.00    -0.281 N 
ATOM      2  C   UNL     1       2.886  -7.372  -5.431  0.00  0.00    +0.248 C 
ATOM      3  O   UNL     1       2.342  -8.139  -4.661  0.00  0.00    -0.270 OA
ATOM      4  H   UNL     1       3.409  -5.449  -5.736  0.00  0.00    +0.155 HD
ENDROOT
BRANCH   2   5
ATOM      5  C   UNL     1       3.510  -7.884  -6.666  0.00  0.00    +0.039 A 
ATOM      6  C   UNL     1       4.140  -7.002  -7.548  0.00  0.00    +0.015 A 
ATOM      7  C   UNL     1       4.725  -7.479  -8.701  0.00  0.00    +0.026 A 
ATOM      8  C   UNL     1       4.688  -8.836  -8.985  0.00  0.00    +0.051 A 
ATOM      9  C   UNL     1       4.056  -9.726  -8.109  0.00  0.00    +0.055 A 
ATOM     10  C   UNL     1       3.476  -9.253  -6.950  0.00  0.00    +0.038 A 
ATOM     11  N   UNL     1       4.020 -11.092  -8.420  0.00  0.00    -0.283 N 
ATOM     12  C   UNL     1       4.816 -11.598  -9.381  0.00  0.00    +0.235 C 
ATOM     13  O   UNL     1       4.740 -12.774  -9.665  0.00  0.00    -0.274 OA
ATOM     14  C   UNL     1       5.800 -10.717 -10.108  0.00  0.00    +0.200 C 
ATOM     15  N   UNL     1       5.279  -9.343 -10.144  0.00  0.00    -0.323 N 
ATOM     16  C   UNL     1       5.376  -8.530 -11.359  0.00  0.00    +0.130 C 
ATOM     17  H   UNL     1       3.416 -11.678  -7.939  0.00  0.00    +0.155 HD
ENDBRANCH   2   5
BRANCH   1  22
ATOM     18  C   UNL     1       0.976  -3.813  -2.976  0.00  0.00    +0.037 A 
ATOM     19  C   UNL     1       0.911  -4.573  -1.815  0.00  0.00    +0.023 A 
ATOM     20  C   UNL     1       1.510  -5.817  -1.768  0.00  0.00    +0.004 A 
ATOM     21  C   UNL     1       2.175  -6.309  -2.874  0.00  0.00    +0.023 A 
ATOM     22  C   UNL     1       2.244  -5.554  -4.038  0.00  0.00    +0.035 A 
ATOM     23  C   UNL     1       1.638  -4.306  -4.091  0.00  0.00    +0.046 A 
BRANCH  18  27
ATOM     24  N   UNL     1      -0.873  -0.953  -4.185  0.00  0.00    -0.299 N 
ATOM     25  C   UNL     1      -0.207  -2.124  -4.165  0.00  0.00    +0.304 C 
ATOM     26  O   UNL     1      -0.126  -2.795  -5.176  0.00  0.00    -0.253 OA
ATOM     27  N   UNL     1       0.368  -2.553  -3.023  0.00  0.00    -0.269 N 
ATOM     28  H   UNL     1      -0.938  -0.418  -3.378  0.00  0.00    +0.150 HD
ATOM     29  H   UNL     1       0.361  -1.988  -2.235  0.00  0.00    +0.156 HD
BRANCH  24  31
ATOM     30  C   UNL     1      -2.183   0.859  -5.177  0.00  0.00    +0.024 C 
ATOM     31  C   UNL     1      -1.498  -0.487  -5.425  0.00  0.00    +0.102 C 
ENDBRANCH  24  31
ENDBRANCH  18  27
ENDBRANCH   1  22
TORSDOF 4
