REMARK  Name = ZINC22590291
REMARK  13 active torsions:
REMARK  status: ('A' for Active; 'I' for Inactive)
REMARK    1  A    between atoms: C_3  and  O_8
REMARK    2  A    between atoms: O_8  and  C_9
REMARK    3  A    between atoms: C_11  and  N_32
REMARK    4  A    between atoms: C_13  and  O_15
REMARK    5  A    between atoms: O_15  and  C_16
REMARK    6  A    between atoms: C_19  and  C_22
REMARK    7  A    between atoms: N_24  and  C_25
REMARK    8  A    between atoms: C_25  and  C_26
REMARK    9  A    between atoms: C_25  and  C_28
REMARK   10  A    between atoms: C_25  and  C_30
REMARK   11  A    between atoms: C_26  and  O_27
REMARK   12  A    between atoms: C_28  and  O_29
REMARK   13  A    between atoms: C_30  and  O_31
REMARK                            x       y       z     vdW  Elec       q    Type
REMARK                         _______ _______ _______ _____ _____    ______ ____
ROOT
ATOM      1  C   UNL     1      -4.893  -0.434   0.064  0.00  0.00    +0.128 A 
ATOM      2  C   UNL     1      -4.983   0.947   0.195  0.00  0.00    +0.047 A 
ATOM      3  C   UNL     1      -3.840   1.714   0.225  0.00  0.00    +0.016 A 
ATOM      4  C   UNL     1      -2.587   1.102   0.125  0.00  0.00    +0.037 A 
ATOM      5  C   UNL     1      -2.501  -0.286  -0.012  0.00  0.00    +0.016 A 
ATOM      6  C   UNL     1      -3.648  -1.046  -0.037  0.00  0.00    +0.047 A 
ENDROOT
BRANCH   4   7
ATOM      7  C   UNL     1      -1.359   1.920   0.157  0.00  0.00    +0.245 C 
ATOM      8  O   UNL     1      -1.436   3.128   0.271  0.00  0.00    -0.270 OA
ATOM      9  N   UNL     1      -0.152   1.328   0.060  0.00  0.00    -0.299 N 
ATOM     10  H   UNL     1      -0.082   0.235  -0.039  0.00  0.00    +0.150 HD
BRANCH   9  11
ATOM     11  C   UNL     1       1.066   2.141   0.086  0.00  0.00    +0.104 C 
BRANCH  11  12
ATOM     12  C   UNL     1       1.141   2.906   1.409  0.00  0.00    +0.186 C 
BRANCH  12  13
ATOM     13  O   UNL     1       1.164   1.978   2.495  0.00  0.00    -0.393 OA
ATOM     14  H   UNL     1       1.217   2.344   3.530  0.00  0.00    +0.209 HD
ENDBRANCH  12  13
ENDBRANCH  11  12
BRANCH  11  15
ATOM     15  C   UNL     1       2.289   1.231  -0.047  0.00  0.00    +0.186 C 
BRANCH  15  16
ATOM     16  O   UNL     1       3.478   2.023  -0.022  0.00  0.00    -0.393 OA
ATOM     17  H   UNL     1       4.463   1.541  -0.106  0.00  0.00    +0.209 HD
ENDBRANCH  15  16
ENDBRANCH  11  15
BRANCH  11  18
ATOM     18  C   UNL     1       1.042   3.135  -1.077  0.00  0.00    +0.186 C 
BRANCH  18  19
ATOM     19  O   UNL     1       0.855   2.427  -2.305  0.00  0.00    -0.393 OA
ATOM     20  H   UNL     1       0.810   2.978  -3.256  0.00  0.00    +0.209 HD
ENDBRANCH  18  19
ENDBRANCH  11  18
ENDBRANCH   9  11
ENDBRANCH   4   7
BRANCH   1  21
ATOM     21  O   UNL     1      -6.021  -1.186   0.034  0.00  0.00    -0.456 OA
BRANCH  21  26
ATOM     22  C   UNL     1      -8.910  -1.573  -2.149  0.00  0.00    +0.134 A 
ATOM     23  C   UNL     1      -8.523  -0.789  -3.227  0.00  0.00    +0.079 A 
ATOM     24  C   UNL     1      -7.303  -0.141  -3.208  0.00  0.00    +0.133 A 
ATOM     25  C   UNL     1      -6.464  -0.273  -2.118  0.00  0.00    +0.079 A 
ATOM     26  C   UNL     1      -6.846  -1.057  -1.038  0.00  0.00    +0.134 A 
ATOM     27  C   UNL     1      -8.069  -1.712  -1.056  0.00  0.00    +0.092 A 
BRANCH  24  28
ATOM     28  N   UNL     1      -6.893   0.696  -4.358  0.00  0.00    +0.057 N 
ATOM     29  O   UNL     1      -5.817   1.267  -4.343  0.00  0.00    -0.126 OA
ATOM     30  O   UNL     1      -7.631   0.813  -5.320  0.00  0.00    -0.126 OA
ENDBRANCH  24  28
BRANCH  22  31
ATOM     31  O   UNL     1     -10.110  -2.210  -2.168  0.00  0.00    -0.456 OA
BRANCH  31  34
ATOM     32  C   UNL     1     -12.789  -1.404  -4.495  0.00  0.00    +0.005 A 
ATOM     33  C   UNL     1     -12.046  -1.463  -3.331  0.00  0.00    +0.046 A 
ATOM     34  C   UNL     1     -10.844  -2.155  -3.311  0.00  0.00    +0.130 A 
ATOM     35  C   UNL     1     -10.395  -2.795  -4.457  0.00  0.00    +0.066 A 
ATOM     36  C   UNL     1     -11.143  -2.737  -5.617  0.00  0.00    +0.044 A 
ATOM     37  C   UNL     1     -12.339  -2.042  -5.636  0.00  0.00    +0.020 A 
ATOM     38 CL   UNL     1     -10.582  -3.538  -7.052  0.00  0.00    -0.083 Cl
ENDBRANCH  31  34
ENDBRANCH  22  31
ENDBRANCH  21  26
ENDBRANCH   1  21
TORSDOF 13
