REMARK  Name = ZINC06022825
REMARK  6 active torsions:
REMARK  status: ('A' for Active; 'I' for Inactive)
REMARK    1  A    between atoms: C_1  and  C_2
REMARK    2  A    between atoms: C_2  and  C_3
REMARK    3  A    between atoms: C_2  and  C_4
REMARK    4  A    between atoms: C_2  and  N_5
REMARK    5  A    between atoms: C_9  and  C_11
REMARK    6  A    between atoms: C_11  and  N_12
REMARK                            x       y       z     vdW  Elec       q    Type
REMARK                         _______ _______ _______ _____ _____    ______ ____
ROOT
ATOM      1  C   UNL     1      -1.330   1.944   0.019  0.00  0.00    +0.214 C 
ENDROOT
BRANCH   1   2
ATOM      2  N   UNL     1      -2.430   0.977   0.019  0.00  0.00    -0.215 N 
ATOM      3  C   UNL     1      -2.995   0.469   1.136  0.00  0.00    +0.247 C 
ATOM      4  O   UNL     1      -2.701   0.716   2.286  0.00  0.00    -0.273 OA
ATOM      5  C   UNL     1      -4.069  -0.469   0.647  0.00  0.00    +0.113 C 
ATOM      6  C   UNL     1      -5.451  -0.037   1.153  0.00  0.00    +0.035 C 
ATOM      7  C   UNL     1      -6.197  -1.375   1.396  0.00  0.00    +0.003 C 
ATOM      8  C   UNL     1      -5.080  -2.297   1.947  0.00  0.00    +0.003 C 
ATOM      9  C   UNL     1      -3.825  -1.897   1.140  0.00  0.00    +0.035 C 
ATOM     10  N   UNL     1      -3.991  -0.387  -0.813  0.00  0.00    -0.285 N 
ATOM     11  C   UNL     1      -3.005   0.490  -1.089  0.00  0.00    +0.310 C 
ATOM     12  O   UNL     1      -2.672   0.801  -2.216  0.00  0.00    -0.252 OA
ATOM     13  H   UNL     1      -4.542  -0.864  -1.453  0.00  0.00    +0.151 HD
ENDBRANCH   1   2
BRANCH   1  18
ATOM     14  N   UNL     1       3.478   1.930  -0.021  0.00  0.00    -0.294 N 
ATOM     15  C   UNL     1       2.320   1.240  -0.013  0.00  0.00    +0.306 C 
ATOM     16  O   UNL     1       2.336   0.025  -0.020  0.00  0.00    -0.252 OA
ATOM     17  N   UNL     1       1.143   1.898   0.001  0.00  0.00    -0.239 N 
ATOM     18  C   UNL     1      -0.014   1.208   0.009  0.00  0.00    +0.238 C 
ATOM     19  O   UNL     1       0.002  -0.004   0.002  0.00  0.00    -0.274 OA
ATOM     20  H   UNL     1       3.465   2.900  -0.015  0.00  0.00    +0.151 HD
ATOM     21  H   UNL     1       1.130   2.868   0.007  0.00  0.00    +0.159 HD
BRANCH  14  23
ATOM     22  C   UNL     1       4.837   0.343  -1.292  0.00  0.00    +0.031 C 
ATOM     23  C   UNL     1       4.756   1.214  -0.037  0.00  0.00    +0.028 C 
ATOM     24  C   UNL     1       5.905   2.224  -0.042  0.00  0.00    +0.031 C 
ATOM     25  C   UNL     1       4.861   0.329   1.207  0.00  0.00    +0.031 C 
ENDBRANCH  14  23
ENDBRANCH   1  18
TORSDOF 3
