REMARK  Name = ZINC01646896
REMARK  9 active torsions:
REMARK  status: ('A' for Active; 'I' for Inactive)
REMARK    1  A    between atoms: C_1  and  O_2
REMARK    2  A    between atoms: O_2  and  C_3
REMARK    3  A    between atoms: C_7  and  C_17
REMARK    4  A    between atoms: C_11  and  O_15
REMARK    5  A    between atoms: C_12  and  O_13
REMARK    6  A    between atoms: O_13  and  C_14
REMARK    7  A    between atoms: O_15  and  C_16
REMARK    8  A    between atoms: C_21  and  C_30
REMARK    9  A    between atoms: C_26  and  O_29
REMARK                            x       y       z     vdW  Elec       q    Type
REMARK                         _______ _______ _______ _____ _____    ______ ____
ROOT
ATOM      1  C   UNL     1      -8.484   7.045   0.795  0.00  0.00    +0.166 A 
ATOM      2  C   UNL     1      -7.208   7.556   0.878  0.00  0.00    +0.059 A 
ATOM      3  C   UNL     1      -6.113   6.686   0.996  0.00  0.00    +0.008 A 
ATOM      4  C   UNL     1      -4.718   6.894   1.105  0.00  0.00    +0.041 A 
ATOM      5  C   UNL     1      -4.121   5.675   1.189  0.00  0.00    +0.103 A 
ATOM      6  N   UNL     1      -5.092   4.692   1.146  0.00  0.00    -0.348 N 
ATOM      7  H   UNL     1      -4.931   3.737   1.192  0.00  0.00    +0.166 HD
ATOM      8  C   UNL     1      -6.326   5.295   1.027  0.00  0.00    +0.093 A 
ATOM      9  C   UNL     1      -7.625   4.793   0.941  0.00  0.00    +0.189 A 
ATOM     10  C   UNL     1      -8.695   5.664   0.826  0.00  0.00    +0.206 A 
ENDROOT
BRANCH   5  11
ATOM     11  C   UNL     1      -2.676   5.441   1.312  0.00  0.00    +0.267 C 
ATOM     12  O   UNL     1      -1.917   6.382   1.446  0.00  0.00    -0.268 OA
ATOM     13  N   UNL     1      -2.192   4.184   1.277  0.00  0.00    -0.265 N 
ATOM     14  C   UNL     1      -3.011   2.970   1.224  0.00  0.00    +0.123 C 
ATOM     15  C   UNL     1      -2.006   1.806   1.199  0.00  0.00    +0.053 C 
ATOM     16  C   UNL     1      -0.650   2.474   1.241  0.00  0.00    -0.020 A 
ATOM     17  C   UNL     1      -0.836   3.848   1.284  0.00  0.00    +0.044 A 
ATOM     18  C   UNL     1       0.281   4.683   1.328  0.00  0.00    +0.069 A 
ATOM     19  C   UNL     1       1.555   4.143   1.328  0.00  0.00    +0.119 A 
ATOM     20  C   UNL     1       1.728   2.767   1.284  0.00  0.00    +0.046 A 
ATOM     21  C   UNL     1       0.624   1.937   1.240  0.00  0.00    +0.009 A 
BRANCH  19  22
ATOM     22  O   UNL     1       2.639   4.961   1.371  0.00  0.00    -0.507 OA
ATOM     23  H   UNL     1       2.940   5.168   2.267  0.00  0.00    +0.292 HD
ENDBRANCH  19  22
BRANCH  15  24
ATOM     24  C   UNL     1      -2.197   0.909   2.423  0.00  0.00    +0.118 C 
ATOM     25 CL   UNL     1      -1.008  -0.445   2.368  0.00  0.00    -0.125 Cl
ENDBRANCH  15  24
ENDBRANCH   5  11
BRANCH   1  27
ATOM     26  C   UNL     1      -9.260   9.289   0.656  0.00  0.00    +0.277 C 
ATOM     27  O   UNL     1      -9.545   7.889   0.681  0.00  0.00    -0.491 OA
ENDBRANCH   1  27
BRANCH  10  28
ATOM     28  O   UNL     1      -9.960   5.172   0.742  0.00  0.00    -0.488 OA
ATOM     29  C   UNL     1     -10.462   4.894  -0.567  0.00  0.00    +0.277 C 
ENDBRANCH  10  28
BRANCH   9  30
ATOM     30  O   UNL     1      -7.840   3.450   0.970  0.00  0.00    -0.489 OA
ATOM     31  C   UNL     1      -8.043   2.853   2.252  0.00  0.00    +0.277 C 
ENDBRANCH   9  30
TORSDOF 6
