REMARK  Name = ZINC02778930
REMARK  9 active torsions:
REMARK  status: ('A' for Active; 'I' for Inactive)
REMARK    1  A    between atoms: C_1  and  C_2
REMARK    2  A    between atoms: C_2  and  N_3
REMARK    3  A    between atoms: C_4  and  C_8
REMARK    4  A    between atoms: N_10  and  N_11
REMARK    5  A    between atoms: C_12  and  C_30
REMARK    6  A    between atoms: C_22  and  C_26
REMARK    7  A    between atoms: C_26  and  C_27
REMARK    8  A    between atoms: C_26  and  C_28
REMARK    9  A    between atoms: C_26  and  C_29
REMARK                            x       y       z     vdW  Elec       q    Type
REMARK                         _______ _______ _______ _____ _____    ______ ____
ROOT
ATOM      1  N   UNL     1      -1.163   7.020   0.089  0.00  0.00    -0.209 N 
ATOM      2  C   UNL     1      -1.015   7.723   1.241  0.00  0.00    +0.129 A 
ATOM      3  N   UNL     1      -1.583   8.889   1.398  0.00  0.00    -0.225 NA
ATOM      4  C   UNL     1      -2.325   9.424   0.432  0.00  0.00    +0.116 A 
ATOM      5  C   UNL     1      -2.535   8.772  -0.792  0.00  0.00    +0.077 A 
ATOM      6  C   UNL     1      -1.894   7.498  -0.935  0.00  0.00    +0.280 A 
ATOM      7  O   UNL     1      -2.012   6.856  -1.965  0.00  0.00    -0.265 OA
ATOM      8  C   UNL     1      -3.374   9.480  -1.759  0.00  0.00    -0.023 A 
ATOM      9  C   UNL     1      -3.860  10.681  -1.383  0.00  0.00    -0.004 A 
ATOM     10  S   UNL     1      -3.236  10.937   0.257  0.00  0.00    -0.073 S 
ATOM     11  C   UNL     1      -4.736  11.597  -2.183  0.00  0.00    +0.046 C 
ATOM     12  C   UNL     1      -5.313  10.805  -3.365  0.00  0.00    -0.000 C 
ATOM     13  C   UNL     1      -4.175  10.037  -4.044  0.00  0.00    +0.009 C 
ATOM     14  C   UNL     1      -3.697   8.904  -3.135  0.00  0.00    +0.037 C 
ATOM     15  C   UNL     1      -0.182   7.149   2.357  0.00  0.00    +0.088 C 
ENDROOT
BRANCH   1  18
ATOM     16  C   UNL     1      -1.263   4.641   0.046  0.00  0.00    +0.280 C 
ATOM     17  O   UNL     1      -2.474   4.703   0.145  0.00  0.00    -0.267 OA
ATOM     18  N   UNL     1      -0.536   5.773  -0.039  0.00  0.00    -0.213 N 
ATOM     19  H   UNL     1       0.421   5.724  -0.188  0.00  0.00    +0.176 HD
BRANCH  16  21
ATOM     20  N   UNL     1      -1.191   2.104  -0.006  0.00  0.00    -0.259 N 
ATOM     21  C   UNL     1      -0.592   3.332   0.019  0.00  0.00    +0.125 A 
ATOM     22  C   UNL     1       0.772   3.097   0.019  0.00  0.00    +0.054 A 
ATOM     23  C   UNL     1       0.908   1.708  -0.015  0.00  0.00    +0.135 A 
ATOM     24  N   UNL     1      -0.292   1.187  -0.025  0.00  0.00    -0.179 NA
BRANCH  20  26
ATOM     25  C   UNL     1      -3.124   1.653   1.423  0.00  0.00    +0.029 C 
ATOM     26  C   UNL     1      -2.637   1.870  -0.011  0.00  0.00    +0.141 C 
ENDBRANCH  20  26
ENDBRANCH  16  21
ENDBRANCH   1  18
BRANCH  12  27
ATOM     27  C   UNL     1      -5.951  11.769  -4.366  0.00  0.00    -0.035 C 
ATOM     28  C   UNL     1      -4.891  12.747  -4.879  0.00  0.00    +0.011 C 
ATOM     29  C   UNL     1      -6.525  10.977  -5.543  0.00  0.00    +0.011 C 
ATOM     30  C   UNL     1      -7.074  12.548  -3.680  0.00  0.00    +0.011 C 
ENDBRANCH  12  27
TORSDOF 4
