REMARK  Name = ZINC61642574
REMARK  7 active torsions:
REMARK  status: ('A' for Active; 'I' for Inactive)
REMARK    1  A    between atoms: C_1  and  N_2
REMARK    2  A    between atoms: N_2  and  C_3
REMARK    3  A    between atoms: N_2  and  C_4
REMARK    4  A    between atoms: C_4  and  C_5
REMARK    5  A    between atoms: N_10  and  S_11
REMARK    6  A    between atoms: S_11  and  C_14
REMARK    7  A    between atoms: C_15  and  N_22
REMARK                            x       y       z     vdW  Elec       q    Type
REMARK                         _______ _______ _______ _____ _____    ______ ____
ROOT
ATOM      1  S   UNL     1       1.350   2.211   0.788  0.00  0.00    +0.064 S 
ATOM      2  O   UNL     1       1.113   3.599   0.592  0.00  0.00    -0.153 OA
ATOM      3  O   UNL     1       0.371   1.341   1.339  0.00  0.00    -0.153 OA
ENDROOT
BRANCH   1   4
ATOM      4  C   UNL     1       2.773   2.085   1.819  0.00  0.00    +0.144 A 
ATOM      5  C   UNL     1       3.061   0.888   2.464  0.00  0.00    +0.054 A 
ATOM      6  C   UNL     1       4.183   0.792   3.275  0.00  0.00    +0.044 A 
ATOM      7  C   UNL     1       5.011   1.887   3.441  0.00  0.00    +0.044 A 
ATOM      8  C   UNL     1       4.722   3.077   2.798  0.00  0.00    +0.042 A 
ATOM      9  C   UNL     1       3.607   3.175   1.984  0.00  0.00    +0.070 A 
ATOM     10 CL   UNL     1       3.252   4.668   1.174  0.00  0.00    -0.081 Cl
ATOM     11 CL   UNL     1       6.415   1.767   4.456  0.00  0.00    -0.083 Cl
BRANCH   5  12
ATOM     12  N   UNL     1       2.222  -0.216   2.295  0.00  0.00    -0.356 N 
ATOM     13  H   UNL     1       1.525  -0.198   1.621  0.00  0.00    +0.142 HD
ATOM     14  H   UNL     1       2.337  -1.002   2.853  0.00  0.00    +0.142 HD
ENDBRANCH   5  12
ENDBRANCH   1   4
BRANCH   1  19
ATOM     15  C   UNL     1       1.674   0.172  -1.077  0.00  0.00    +0.063 C 
ATOM     16  C   UNL     1       2.184   0.058  -2.529  0.00  0.00    +0.020 C 
ATOM     17  C   UNL     1       3.058   1.329  -2.691  0.00  0.00    +0.019 C 
ATOM     18  C   UNL     1       2.271   2.359  -1.843  0.00  0.00    +0.110 C 
ATOM     19  N   UNL     1       1.760   1.588  -0.690  0.00  0.00    -0.175 NA
BRANCH  15  20
ATOM     20  C   UNL     1       0.222  -0.303  -0.996  0.00  0.00    -0.059 C 
BRANCH  20  22
ATOM     21  C   UNL     1       0.846  -2.511  -0.295  0.00  0.00    -0.097 C 
ATOM     22  N   UNL     1       0.154  -1.731  -1.331  0.00  0.00    +0.377 N 
ATOM     23  C   UNL     1      -1.252  -2.151  -1.404  0.00  0.00    -0.097 C 
ATOM     24  H   UNL     1       0.599  -1.889  -2.223  0.00  0.00    -0.083 HD
ENDBRANCH  20  22
ENDBRANCH  15  20
ENDBRANCH   1  19
TORSDOF 5
