REMARK  Name = ZINC02201364
REMARK  7 active torsions:
REMARK  status: ('A' for Active; 'I' for Inactive)
REMARK    1  A    between atoms: C_2  and  C_3
REMARK    2  A    between atoms: C_3  and  N_4
REMARK    3  A    between atoms: C_5  and  C_7
REMARK    4  A    between atoms: C_7  and  C_29
REMARK    5  A    between atoms: C_8  and  C_9
REMARK    6  A    between atoms: C_10  and  N_20
REMARK    7  A    between atoms: C_23  and  C_26
REMARK                            x       y       z     vdW  Elec       q    Type
REMARK                         _______ _______ _______ _____ _____    ______ ____
ROOT
ATOM      1  C   UNL     1      -0.154  -2.663  -0.173  0.00  0.00    +0.081 A 
ATOM      2  C   UNL     1      -1.388  -2.072  -0.549  0.00  0.00    +0.136 A 
ATOM      3  N   UNL     1      -1.490  -0.753  -0.601  0.00  0.00    -0.214 NA
ATOM      4  C   UNL     1      -0.459   0.042  -0.309  0.00  0.00    +0.142 A 
ATOM      5  C   UNL     1      -0.630   1.436  -0.382  0.00  0.00    +0.047 A 
ATOM      6  C   UNL     1       0.416   2.259  -0.085  0.00  0.00    +0.005 A 
ATOM      7  C   UNL     1       1.647   1.704   0.291  0.00  0.00    +0.018 A 
ATOM      8  C   UNL     1       1.793   0.361   0.356  0.00  0.00    +0.096 A 
ATOM      9  N   UNL     1       0.753  -0.469   0.060  0.00  0.00    -0.268 N 
ATOM     10  C   UNL     1       0.934  -1.806   0.136  0.00  0.00    +0.267 A 
ATOM     11  O   UNL     1       2.013  -2.267   0.463  0.00  0.00    -0.267 OA
ENDROOT
BRANCH   2  12
ATOM     12  N   UNL     1      -2.470  -2.864  -0.858  0.00  0.00    -0.314 N 
ATOM     13  C   UNL     1      -2.203  -3.678  -2.051  0.00  0.00    +0.107 C 
ATOM     14  C   UNL     1      -3.365  -4.647  -2.279  0.00  0.00    +0.031 C 
ATOM     15  C   UNL     1      -4.660  -3.850  -2.461  0.00  0.00    +0.078 C 
ATOM     16  C   UNL     1      -4.889  -2.974  -1.226  0.00  0.00    +0.031 C 
ATOM     17  C   UNL     1      -3.683  -2.054  -1.029  0.00  0.00    +0.107 C 
BRANCH  15  18
ATOM     18  C   UNL     1      -5.818  -4.800  -2.627  0.00  0.00    +0.214 C 
ATOM     19  O   UNL     1      -6.737  -4.779  -1.836  0.00  0.00    -0.276 OA
ATOM     20  N   UNL     1      -5.832  -5.672  -3.655  0.00  0.00    -0.329 N 
ATOM     21  H   UNL     1      -5.097  -5.689  -4.287  0.00  0.00    +0.145 HD
ATOM     22  H   UNL     1      -6.578  -6.284  -3.761  0.00  0.00    +0.145 HD
ENDBRANCH  15  18
ENDBRANCH   2  12
BRANCH   1  24
ATOM     23  C   UNL     1      -0.869  -4.808   0.688  0.00  0.00    +0.114 C 
ATOM     24  C   UNL     1      -0.013  -4.060  -0.109  0.00  0.00    +0.040 C 
BRANCH  23  26
ATOM     25  N   UNL     1      -1.611  -6.998   1.461  0.00  0.00    -0.307 N 
ATOM     26  C   UNL     1      -0.779  -6.271   0.687  0.00  0.00    +0.255 C 
ATOM     27  O   UNL     1       0.046  -6.830  -0.011  0.00  0.00    -0.269 OA
ATOM     28  H   UNL     1      -2.268  -6.552   2.017  0.00  0.00    +0.149 HD
BRANCH  25  29
ATOM     29  C   UNL     1      -1.521  -8.460   1.460  0.00  0.00    +0.131 C 
BRANCH  29  31
ATOM     30  C   UNL     1      -3.415  -9.913   1.971  0.00  0.00    +0.005 C 
ATOM     31  C   UNL     1      -2.552  -9.027   2.402  0.00  0.00    -0.016 C 
ENDBRANCH  29  31
ENDBRANCH  25  29
ENDBRANCH  23  26
BRANCH  23  32
ATOM     32  C   UNL     1      -1.840  -4.150   1.510  0.00  0.00    +0.104 C 
ATOM     33  N   UNL     1      -2.610  -3.629   2.162  0.00  0.00    -0.191 NA
ENDBRANCH  23  32
ENDBRANCH   1  24
TORSDOF 7
