REMARK  Name = ZINC37519100
REMARK  5 active torsions:
REMARK  status: ('A' for Active; 'I' for Inactive)
REMARK    1  A    between atoms: C_1  and  C_2
REMARK    2  A    between atoms: C_6  and  N_19
REMARK    3  A    between atoms: C_7  and  S_8
REMARK    4  A    between atoms: S_8  and  N_11
REMARK    5  A    between atoms: N_11  and  C_12
REMARK                            x       y       z     vdW  Elec       q    Type
REMARK                         _______ _______ _______ _____ _____    ______ ____
ROOT
ATOM      1  S   UNL     1       1.148   1.027   1.664  0.00  0.00    +0.094 S 
ATOM      2  O   UNL     1       2.381   0.595   2.221  0.00  0.00    -0.148 OA
ATOM      3  O   UNL     1       1.048   2.177   0.835  0.00  0.00    -0.148 OA
ENDROOT
BRANCH   1  10
ATOM      4  C   UNL     1       2.445  -1.702   1.532  0.00  0.00    +0.046 C 
ATOM      5  C   UNL     1       1.180  -1.537   0.730  0.00  0.00    -0.022 A 
ATOM      6  C   UNL     1       0.682  -2.600  -0.000  0.00  0.00    +0.005 A 
ATOM      7  C   UNL     1      -0.478  -2.449  -0.737  0.00  0.00    +0.003 A 
ATOM      8  C   UNL     1      -1.140  -1.235  -0.743  0.00  0.00    +0.035 A 
ATOM      9  C   UNL     1      -0.642  -0.173  -0.012  0.00  0.00    +0.153 A 
ATOM     10  C   UNL     1       0.516  -0.325   0.728  0.00  0.00    +0.143 A 
BRANCH   9  11
ATOM     11  N   UNL     1      -1.350   1.127  -0.019  0.00  0.00    +0.058 N 
ATOM     12  O   UNL     1      -1.865   1.529  -1.036  0.00  0.00    -0.126 OA
ATOM     13  O   UNL     1      -1.414   1.786   0.992  0.00  0.00    -0.126 OA
ENDBRANCH   9  11
ENDBRANCH   1  10
BRANCH   1  14
ATOM     14  N   UNL     1       0.113   1.269   2.934  0.00  0.00    -0.096 NA
BRANCH  14  15
ATOM     15  C   UNL     1       0.366   2.291   3.858  0.00  0.00    +0.090 A 
ATOM     16  C   UNL     1       1.482   3.113   3.713  0.00  0.00    +0.031 A 
ATOM     17  C   UNL     1       1.692   4.109   4.649  0.00  0.00    +0.043 A 
ATOM     18  C   UNL     1       0.789   4.257   5.697  0.00  0.00    +0.094 A 
ATOM     19  N   UNL     1      -0.260   3.457   5.803  0.00  0.00    -0.348 N 
ATOM     20  C   UNL     1      -0.494   2.500   4.925  0.00  0.00    +0.110 A 
ATOM     21  N   UNL     1       0.992   5.257   6.645  0.00  0.00    -0.345 N 
ATOM     22  H   UNL     1       1.759   5.846   6.572  0.00  0.00    +0.144 HD
ATOM     23  H   UNL     1       0.365   5.365   7.378  0.00  0.00    +0.144 HD
ATOM     24  H   UNL     1      -0.874   3.580   6.544  0.00  0.00    +0.167 HD
ENDBRANCH  14  15
ENDBRANCH   1  14
TORSDOF 4
