REMARK  Name = ZINC35279282
REMARK  7 active torsions:
REMARK  status: ('A' for Active; 'I' for Inactive)
REMARK    1  A    between atoms: C_4  and  O_7
REMARK    2  A    between atoms: O_7  and  C_8
REMARK    3  A    between atoms: C_12  and  C_14
REMARK    4  A    between atoms: C_16  and  C_17
REMARK    5  A    between atoms: C_17  and  C_18
REMARK    6  A    between atoms: N_30  and  C_31
REMARK    7  A    between atoms: C_31  and  C_32
REMARK                            x       y       z     vdW  Elec       q    Type
REMARK                         _______ _______ _______ _____ _____    ______ ____
ROOT
ATOM      1  C   UNL     1       5.955  -4.821   0.371  0.00  0.00    +0.145 C 
ATOM      2  C   UNL     1       6.183  -5.346   1.769  0.00  0.00    +0.076 C 
ATOM      3  C   UNL     1       6.260  -6.694   1.672  0.00  0.00    +0.249 C 
ATOM      4  O   UNL     1       6.460  -7.545   2.705  0.00  0.00    -0.282 OA
ATOM      5  C   UNL     1       6.092  -7.089   0.257  0.00  0.00    +0.288 C 
ATOM      6  O   UNL     1       6.113  -8.232  -0.155  0.00  0.00    -0.266 OA
ATOM      7  N   UNL     1       5.913  -5.996  -0.507  0.00  0.00    -0.276 N 
ENDROOT
BRANCH   1  12
ATOM      8  C   UNL     1       3.432  -2.015   0.168  0.00  0.00    +0.129 A 
ATOM      9  C   UNL     1       2.236  -2.719   0.182  0.00  0.00    +0.046 A 
ATOM     10  C   UNL     1       2.250  -4.098   0.257  0.00  0.00    +0.004 A 
ATOM     11  C   UNL     1       3.453  -4.777   0.318  0.00  0.00    +0.006 A 
ATOM     12  C   UNL     1       4.645  -4.078   0.304  0.00  0.00    -0.019 A 
ATOM     13  C   UNL     1       4.638  -2.698   0.223  0.00  0.00    +0.052 A 
BRANCH   8  14
ATOM     14  O   UNL     1       3.422  -0.658   0.093  0.00  0.00    -0.456 OA
BRANCH  14  18
ATOM     15  C   UNL     1      -0.220   1.268   0.326  0.00  0.00    +0.000 A 
ATOM     16  C   UNL     1       0.281   0.601   1.429  0.00  0.00    +0.004 A 
ATOM     17  C   UNL     1       1.499  -0.044   1.354  0.00  0.00    +0.046 A 
ATOM     18  C   UNL     1       2.222  -0.024   0.170  0.00  0.00    +0.128 A 
ATOM     19  C   UNL     1       1.718   0.645  -0.936  0.00  0.00    +0.046 A 
ATOM     20  C   UNL     1       0.499   1.289  -0.856  0.00  0.00    +0.004 A 
ENDBRANCH  14  18
ENDBRANCH   8  14
ENDBRANCH   1  12
BRANCH   2  21
ATOM     21  C   UNL     1       6.298  -4.550   2.995  0.00  0.00    +0.195 C 
ATOM     22  O   UNL     1       5.444  -4.636   3.858  0.00  0.00    -0.287 OA
BRANCH  21  23
ATOM     23  C   UNL     1       7.450  -3.643   3.182  0.00  0.00    +0.022 A 
ATOM     24  C   UNL     1       8.382  -3.473   2.155  0.00  0.00    +0.013 A 
ATOM     25  C   UNL     1       9.454  -2.626   2.335  0.00  0.00    +0.021 A 
ATOM     26  C   UNL     1       9.608  -1.944   3.532  0.00  0.00    +0.041 A 
ATOM     27  C   UNL     1       8.688  -2.109   4.553  0.00  0.00    +0.021 A 
ATOM     28  C   UNL     1       7.608  -2.949   4.383  0.00  0.00    +0.013 A 
ATOM     29 CL   UNL     1      10.962  -0.879   3.751  0.00  0.00    -0.084 Cl
ENDBRANCH  21  23
ENDBRANCH   2  21
BRANCH   7  30
ATOM     30  C   UNL     1       5.712  -5.982  -1.958  0.00  0.00    +0.183 C 
BRANCH  30  31
ATOM     31  C   UNL     1       7.048  -5.882  -2.649  0.00  0.00    +0.122 A 
ATOM     32  C   UNL     1       7.813  -6.918  -3.035  0.00  0.00    +0.046 A 
ATOM     33  C   UNL     1       8.969  -6.372  -3.638  0.00  0.00    +0.041 A 
ATOM     34  C   UNL     1       8.841  -5.034  -3.584  0.00  0.00    +0.195 A 
ATOM     35  O   UNL     1       7.673  -4.743  -2.989  0.00  0.00    -0.466 OA
ENDBRANCH  30  31
ENDBRANCH   7  30
TORSDOF 7
