REMARK  Name = ZINC65740764
REMARK  8 active torsions:
REMARK  status: ('A' for Active; 'I' for Inactive)
REMARK    1  A    between atoms: C_1  and  C_2
REMARK    2  A    between atoms: C_10  and  O_26
REMARK    3  A    between atoms: C_20  and  O_25
REMARK    4  A    between atoms: C_22  and  O_24
REMARK    5  A    between atoms: O_26  and  C_27
REMARK    6  A    between atoms: C_27  and  C_29
REMARK    7  A    between atoms: C_29  and  C_30
REMARK    8  A    between atoms: C_30  and  C_31
REMARK                            x       y       z     vdW  Elec       q    Type
REMARK                         _______ _______ _______ _____ _____    ______ ____
ROOT
ATOM      1  C   UNL     1      -0.021   1.532   0.009  0.00  0.00    +0.014 C 
ATOM      2  C   UNL     1      -0.021   0.003  -0.009  0.00  0.00    -0.000 C 
ATOM      3  C   UNL     1      -1.436  -0.508   0.161  0.00  0.00    +0.010 C 
ATOM      4  C   UNL     1      -1.998   0.103   1.459  0.00  0.00    +0.009 C 
ATOM      5  C   UNL     1      -1.113  -0.249   2.646  0.00  0.00    +0.023 C 
ATOM      6  C   UNL     1      -1.621   0.359   3.921  0.00  0.00    -0.041 A 
ATOM      7  C   UNL     1      -2.993   0.491   4.087  0.00  0.00    +0.008 A 
ATOM      8  C   UNL     1      -3.512   1.034   5.242  0.00  0.00    +0.046 A 
ATOM      9  C   UNL     1      -2.655   1.452   6.250  0.00  0.00    +0.132 A 
ATOM     10  C   UNL     1      -1.287   1.325   6.083  0.00  0.00    +0.050 A 
ATOM     11  C   UNL     1      -0.764   0.783   4.916  0.00  0.00    -0.040 A 
ATOM     12  C   UNL     1       0.734   0.702   4.794  0.00  0.00    +0.036 C 
ATOM     13  C   UNL     1       1.151  -0.216   3.647  0.00  0.00    +0.009 C 
ATOM     14  C   UNL     1       0.340   0.188   2.415  0.00  0.00    +0.001 C 
ATOM     15  C   UNL     1       0.830  -0.533   1.176  0.00  0.00    +0.004 C 
ATOM     16  C   UNL     1       2.251  -0.200   0.709  0.00  0.00    +0.038 C 
ATOM     17  C   UNL     1       2.219  -0.573  -0.798  0.00  0.00    +0.144 C 
ATOM     18  C   UNL     1       0.735  -0.494  -1.237  0.00  0.00    +0.149 C 
ENDROOT
BRANCH  18  19
ATOM     19  O   UNL     1       0.586   0.430  -2.317  0.00  0.00    -0.389 OA
ATOM     20  H   UNL     1       1.046   0.166  -3.126  0.00  0.00    +0.210 HD
ENDBRANCH  18  19
BRANCH  17  21
ATOM     21  O   UNL     1       2.716  -1.899  -0.986  0.00  0.00    -0.389 OA
ATOM     22  H   UNL     1       3.635  -2.018  -0.707  0.00  0.00    +0.210 HD
ENDBRANCH  17  21
BRANCH   9  23
ATOM     23  O   UNL     1      -3.156   1.985   7.395  0.00  0.00    -0.426 OA
BRANCH  23  24
ATOM     24  C   UNL     1      -3.703   1.149   8.293  0.00  0.00    +0.313 C 
ATOM     25  O   UNL     1      -3.652  -0.045   8.115  0.00  0.00    -0.250 OA
BRANCH  24  26
ATOM     26  C   UNL     1      -4.379   1.701   9.521  0.00  0.00    +0.132 C 
BRANCH  26  27
ATOM     27  C   UNL     1      -4.912   0.546  10.371  0.00  0.00    +0.136 C 
BRANCH  27  28
ATOM     28  C   UNL     1      -5.589   1.097  11.600  0.00  0.00    +0.357 C 
ATOM     29  O   UNL     1      -5.641   2.302  11.778  0.00  0.00    -0.246 OA
ATOM     30  O   UNL     1      -6.086   0.338  12.415  0.00  0.00    -0.246 OA
ENDBRANCH  27  28
ENDBRANCH  26  27
ENDBRANCH  24  26
ENDBRANCH  23  24
ENDBRANCH   9  23
TORSDOF 7
