REMARK  Name = ZINC61687582
REMARK  8 active torsions:
REMARK  status: ('A' for Active; 'I' for Inactive)
REMARK    1  A    between atoms: C_1  and  C_2
REMARK    2  A    between atoms: C_3  and  C_20
REMARK    3  A    between atoms: C_4  and  N_19
REMARK    4  A    between atoms: C_6  and  C_8
REMARK    5  A    between atoms: C_11  and  C_13
REMARK    6  A    between atoms: C_16  and  C_18
REMARK    7  A    between atoms: C_20  and  C_21
REMARK    8  A    between atoms: C_20  and  C_22
REMARK                            x       y       z     vdW  Elec       q    Type
REMARK                         _______ _______ _______ _____ _____    ______ ____
ROOT
ATOM      1  C   UNL     1      -0.421   1.510  -0.171  0.00  0.00    +0.066 C 
ATOM      2  C   UNL     1      -0.255   0.016  -0.062  0.00  0.00    +0.047 A 
ATOM      3  C   UNL     1      -0.105  -0.755  -1.200  0.00  0.00    +0.016 A 
ATOM      4  C   UNL     1       0.047  -2.136  -1.056  0.00  0.00    +0.124 A 
ATOM      5  N   UNL     1       0.043  -2.662   0.164  0.00  0.00    -0.210 NA
ATOM      6  C   UNL     1      -0.103  -1.888   1.233  0.00  0.00    +0.198 A 
ATOM      7  N   UNL     1      -0.244  -0.571   1.124  0.00  0.00    -0.230 NA
ENDROOT
BRANCH   6   8
ATOM      8  C   UNL     1      -0.103  -2.504   2.574  0.00  0.00    +0.172 A 
ATOM      9  C   UNL     1      -0.248  -1.845   3.755  0.00  0.00    +0.053 A 
ATOM     10  C   UNL     1      -0.187  -2.817   4.771  0.00  0.00    +0.046 A 
ATOM     11  C   UNL     1      -0.010  -4.010   4.168  0.00  0.00    +0.109 A 
ATOM     12  O   UNL     1       0.035  -3.817   2.841  0.00  0.00    -0.456 OA
BRANCH  11  13
ATOM     13  C   UNL     1       0.111  -5.339   4.867  0.00  0.00    +0.058 C 
ATOM     14  C   UNL     1       0.512  -6.549   4.021  0.00  0.00    +0.015 C 
ATOM     15  C   UNL     1      -0.925  -6.412   4.529  0.00  0.00    -0.003 C 
ATOM     16  C   UNL     1      -2.006  -6.054   3.506  0.00  0.00    +0.008 C 
ENDBRANCH  11  13
ENDBRANCH   6   8
BRANCH   4  17
ATOM     17  N   UNL     1       0.200  -2.946  -2.170  0.00  0.00    -0.343 N 
ATOM     18  H   UNL     1       0.301  -2.549  -3.049  0.00  0.00    +0.144 HD
ATOM     19  H   UNL     1       0.205  -3.911  -2.071  0.00  0.00    +0.144 HD
ENDBRANCH   4  17
BRANCH   3  20
ATOM     20  C   UNL     1      -0.107  -0.119  -2.566  0.00  0.00    +0.018 C 
ATOM     21  C   UNL     1       1.243  -0.364  -3.245  0.00  0.00    +0.012 C 
ATOM     22  C   UNL     1      -1.222  -0.734  -3.414  0.00  0.00    +0.012 C 
ENDBRANCH   3  20
TORSDOF 4
