REMARK  Name = ZINC40335638
REMARK  5 active torsions:
REMARK  status: ('A' for Active; 'I' for Inactive)
REMARK    1  A    between atoms: C_8  and  C_11
REMARK    2  A    between atoms: C_11  and  N_12
REMARK    3  A    between atoms: C_13  and  C_15
REMARK    4  A    between atoms: C_17  and  N_22
REMARK    5  A    between atoms: C_19  and  N_21
REMARK                            x       y       z     vdW  Elec       q    Type
REMARK                         _______ _______ _______ _____ _____    ______ ____
ROOT
ATOM      1  N   UNL     1       5.193  -3.271   0.115  0.00  0.00    -0.308 N 
ATOM      2  C   UNL     1       6.058  -4.168  -0.397  0.00  0.00    +0.244 C 
ATOM      3  O   UNL     1       5.688  -4.949  -1.252  0.00  0.00    -0.270 OA
ATOM      4  H   UNL     1       5.488  -2.647   0.798  0.00  0.00    +0.149 HD
ENDROOT
BRANCH   2   5
ATOM      5  C   UNL     1       7.457  -4.203   0.080  0.00  0.00    +0.040 A 
ATOM      6  C   UNL     1       7.882  -3.311   1.065  0.00  0.00    +0.036 A 
ATOM      7  C   UNL     1       9.195  -3.347   1.511  0.00  0.00    +0.027 A 
ATOM      8  C   UNL     1      10.086  -4.268   0.978  0.00  0.00    +0.045 A 
ATOM      9  C   UNL     1       9.667  -5.157  -0.003  0.00  0.00    +0.027 A 
ATOM     10  C   UNL     1       8.354  -5.131  -0.449  0.00  0.00    +0.036 A 
BRANCH   9  11
ATOM     11  N   UNL     1      10.567  -6.082  -0.537  0.00  0.00    -0.358 N 
ATOM     12  H   UNL     1      11.484  -6.104  -0.222  0.00  0.00    +0.142 HD
ATOM     13  H   UNL     1      10.274  -6.704  -1.222  0.00  0.00    +0.142 HD
ENDBRANCH   9  11
BRANCH   7  14
ATOM     14  N   UNL     1       9.621  -2.454   2.498  0.00  0.00    -0.358 N 
ATOM     15  H   UNL     1       8.999  -1.810   2.870  0.00  0.00    +0.142 HD
ATOM     16  H   UNL     1      10.539  -2.478   2.810  0.00  0.00    +0.142 HD
ENDBRANCH   7  14
ENDBRANCH   2   5
BRANCH   1  17
ATOM     17  C   UNL     1       3.807  -3.236  -0.358  0.00  0.00    +0.149 C 
BRANCH  17  25
ATOM     18  C   UNL     1      -0.017   1.379   0.010  0.00  0.00    +0.000 A 
ATOM     19  C   UNL     1       1.174   2.082   0.002  0.00  0.00    +0.004 A 
ATOM     20  C   UNL     1       2.379   1.411  -0.017  0.00  0.00    +0.046 A 
ATOM     21  C   UNL     1       2.407   0.019  -0.028  0.00  0.00    +0.124 A 
ATOM     22  C   UNL     1       1.204  -0.676  -0.013  0.00  0.00    -0.002 A 
ATOM     23  C   UNL     1       0.002  -0.004   0.002  0.00  0.00    +0.007 A 
ATOM     24  C   UNL     1       1.545  -2.154  -0.005  0.00  0.00    +0.085 C 
ATOM     25  C   UNL     1       3.043  -2.135   0.380  0.00  0.00    +0.195 C 
ATOM     26  O   UNL     1       3.468  -0.833  -0.059  0.00  0.00    -0.487 OA
ENDBRANCH  17  25
ENDBRANCH   1  17
TORSDOF 5
