REMARK  Name = ZINC06616822
REMARK  8 active torsions:
REMARK  status: ('A' for Active; 'I' for Inactive)
REMARK    1  A    between atoms: C_1  and  C_2
REMARK    2  A    between atoms: C_2  and  C_3
REMARK    3  A    between atoms: C_2  and  C_4
REMARK    4  A    between atoms: C_4  and  C_30
REMARK    5  A    between atoms: C_9  and  C_11
REMARK    6  A    between atoms: C_14  and  O_18
REMARK    7  A    between atoms: C_15  and  O_17
REMARK    8  A    between atoms: N_21  and  C_24
REMARK                            x       y       z     vdW  Elec       q    Type
REMARK                         _______ _______ _______ _____ _____    ______ ____
ROOT
ATOM      1  C   UNL     1      -0.006   1.481   0.004  0.00  0.00    +0.050 C 
ATOM      2  C   UNL     1       1.486   1.872  -0.035  0.00  0.00    +0.086 C 
ATOM      3  C   UNL     1       2.233   0.648   0.560  0.00  0.00    +0.077 C 
ATOM      4  C   UNL     1       1.122  -0.367   0.901  0.00  0.00    -0.027 C 
ATOM      5  C   UNL     1       3.050   0.121  -0.599  0.00  0.00    +0.225 C 
ATOM      6  O   UNL     1       3.790  -0.837  -0.556  0.00  0.00    -0.275 OA
ATOM      7  N   UNL     1       2.828   0.879  -1.679  0.00  0.00    -0.239 N 
ATOM      8  C   UNL     1       1.968   1.886  -1.485  0.00  0.00    +0.225 C 
ATOM      9  O   UNL     1       1.627   2.689  -2.326  0.00  0.00    -0.275 OA
ATOM     10  N   UNL     1       0.015   0.018   0.025  0.00  0.00    +0.396 N 
ATOM     11  H   UNL     1       0.168  -0.348  -0.921  0.00  0.00    -0.083 HD
ATOM     12  H   UNL     1      -0.872  -0.344   0.394  0.00  0.00    -0.083 HD
ENDROOT
BRANCH   4  13
ATOM     13  C   UNL     1       1.588  -1.771   0.615  0.00  0.00    -0.057 A 
ATOM     14  C   UNL     1       1.632  -2.231  -0.689  0.00  0.00    +0.006 A 
ATOM     15  C   UNL     1       2.059  -3.518  -0.956  0.00  0.00    +0.049 A 
ATOM     16  C   UNL     1       2.444  -4.351   0.082  0.00  0.00    +0.158 A 
ATOM     17  C   UNL     1       2.400  -3.888   1.394  0.00  0.00    +0.158 A 
ATOM     18  C   UNL     1       1.976  -2.595   1.655  0.00  0.00    +0.051 A 
BRANCH  17  19
ATOM     19  O   UNL     1       2.777  -4.701   2.417  0.00  0.00    -0.503 OA
ATOM     20  H   UNL     1       3.717  -4.645   2.637  0.00  0.00    +0.292 HD
ENDBRANCH  17  19
BRANCH  16  21
ATOM     21  O   UNL     1       2.864  -5.617  -0.180  0.00  0.00    -0.503 OA
ATOM     22  H   UNL     1       3.817  -5.692  -0.330  0.00  0.00    +0.292 HD
ENDBRANCH  16  21
ENDBRANCH   4  13
BRANCH   7  23
ATOM     23  C   UNL     1       3.473   0.627  -2.970  0.00  0.00    +0.084 C 
ATOM     24  C   UNL     1       3.097  -0.772  -3.463  0.00  0.00    +0.023 C 
ATOM     25  C   UNL     1       3.771  -1.035  -4.812  0.00  0.00    +0.002 C 
ATOM     26  C   UNL     1       5.290  -0.942  -4.649  0.00  0.00    +0.000 C 
ATOM     27  C   UNL     1       5.665   0.456  -4.156  0.00  0.00    +0.002 C 
ATOM     28  C   UNL     1       4.992   0.720  -2.808  0.00  0.00    +0.023 C 
ENDBRANCH   7  23
BRANCH   1  30
ATOM     29  C   UNL     1      -2.168   1.493  -1.250  0.00  0.00    +0.006 C 
ATOM     30  C   UNL     1      -0.728   2.011  -1.237  0.00  0.00    -0.017 C 
ATOM     31  C   UNL     1      -0.737   3.541  -1.207  0.00  0.00    +0.006 C 
ENDBRANCH   1  30
BRANCH   1  32
ATOM     32  C   UNL     1      -0.656   2.010   1.256  0.00  0.00    +0.346 C 
ATOM     33  O   UNL     1      -0.229   3.010   1.782  0.00  0.00    -0.248 OA
ATOM     34  O   UNL     1      -1.709   1.369   1.788  0.00  0.00    -0.248 OA
ENDBRANCH   1  32
TORSDOF 6
