REMARK  Name = ZINC16020973
REMARK  9 active torsions:
REMARK  status: ('A' for Active; 'I' for Inactive)
REMARK    1  A    between atoms: C_1  and  C_2
REMARK    2  A    between atoms: C_5  and  C_7
REMARK    3  A    between atoms: C_8  and  C_9
REMARK    4  A    between atoms: N_11  and  C_12
REMARK    5  A    between atoms: C_16  and  C_18
REMARK    6  A    between atoms: N_20  and  C_21
REMARK    7  A    between atoms: C_22  and  C_34
REMARK    8  A    between atoms: N_23  and  C_33
REMARK    9  A    between atoms: N_24  and  C_27
REMARK                            x       y       z     vdW  Elec       q    Type
REMARK                         _______ _______ _______ _____ _____    ______ ____
ROOT
ATOM      1  C   UNL     1       1.045   1.587  -0.868  0.00  0.00    +0.034 A 
ATOM      2  C   UNL     1       2.284   0.962  -0.954  0.00  0.00    +0.023 A 
ATOM      3  C   UNL     1       3.445   1.694  -0.792  0.00  0.00    +0.003 A 
ATOM      4  C   UNL     1       3.382   3.050  -0.544  0.00  0.00    +0.013 A 
ATOM      5  C   UNL     1       2.144   3.687  -0.455  0.00  0.00    +0.039 A 
ATOM      6  C   UNL     1       0.972   2.950  -0.624  0.00  0.00    +0.036 A 
ENDROOT
BRANCH   1   9
ATOM      7  C   UNL     1      -1.239   1.175  -0.347  0.00  0.00    +0.241 C 
ATOM      8  O   UNL     1      -1.199   2.064   0.485  0.00  0.00    -0.270 OA
ATOM      9  N   UNL     1      -0.127   0.842  -1.032  0.00  0.00    -0.282 N 
ATOM     10  H   UNL     1      -0.139   0.083  -1.636  0.00  0.00    +0.155 HD
BRANCH   7  12
ATOM     11  C   UNL     1      -3.572   0.827   0.096  0.00  0.00    +0.051 C 
ATOM     12  C   UNL     1      -2.453   0.492  -0.594  0.00  0.00    +0.071 C 
BRANCH  11  17
ATOM     13  C   UNL     1      -6.847  -2.356  -1.843  0.00  0.00    +0.086 C 
ATOM     14  C   UNL     1      -6.249  -1.259  -1.000  0.00  0.00    +0.103 A 
ATOM     15  C   UNL     1      -6.914  -0.524  -0.081  0.00  0.00    +0.045 A 
ATOM     16  C   UNL     1      -5.993   0.376   0.477  0.00  0.00    +0.049 A 
ATOM     17  C   UNL     1      -4.787   0.143  -0.151  0.00  0.00    +0.128 A 
ATOM     18  O   UNL     1      -4.971  -0.856  -1.040  0.00  0.00    -0.461 OA
ENDBRANCH  11  17
ENDBRANCH   7  12
ENDBRANCH   1   9
BRANCH   5  19
ATOM     19  C   UNL     1       2.074   5.140  -0.189  0.00  0.00    +0.248 C 
ATOM     20  O   UNL     1       0.994   5.693  -0.113  0.00  0.00    -0.270 OA
ATOM     21  N   UNL     1       3.208   5.851  -0.032  0.00  0.00    -0.276 N 
ATOM     22  H   UNL     1       4.069   5.426  -0.167  0.00  0.00    +0.155 HD
BRANCH  21  23
ATOM     23  C   UNL     1       3.142   7.211   0.327  0.00  0.00    +0.121 A 
ATOM     24  C   UNL     1       3.721   7.785   1.406  0.00  0.00    +0.059 A 
ATOM     25  N   UNL     1       3.423   9.122   1.403  0.00  0.00    -0.282 N 
ATOM     26  N   UNL     1       2.628   9.413   0.289  0.00  0.00    -0.216 N 
ATOM     27  C   UNL     1       2.438   8.268  -0.400  0.00  0.00    +0.293 A 
ATOM     28  O   UNL     1       1.800   8.139  -1.430  0.00  0.00    -0.264 OA
ATOM     29  C   UNL     1       3.865  10.092   2.408  0.00  0.00    +0.171 C 
ATOM     30  C   UNL     1       4.556   7.072   2.438  0.00  0.00    +0.067 C 
BRANCH  26  31
ATOM     31  C   UNL     1       2.124  10.671  -0.054  0.00  0.00    +0.067 A 
ATOM     32  C   UNL     1       1.487  11.450   0.902  0.00  0.00    +0.028 A 
ATOM     33  C   UNL     1       0.996  12.696   0.561  0.00  0.00    +0.002 A 
ATOM     34  C   UNL     1       1.128  13.162  -0.734  0.00  0.00    +0.000 A 
ATOM     35  C   UNL     1       1.757  12.386  -1.690  0.00  0.00    +0.002 A 
ATOM     36  C   UNL     1       2.255  11.142  -1.355  0.00  0.00    +0.028 A 
ENDBRANCH  26  31
ENDBRANCH  21  23
ENDBRANCH   5  19
TORSDOF 6
