REMARK  Name = ZINC59309590
REMARK  11 active torsions:
REMARK  status: ('A' for Active; 'I' for Inactive)
REMARK    1  A    between atoms: C_1  and  C_2
REMARK    2  A    between atoms: C_2  and  S_3
REMARK    3  A    between atoms: S_3  and  C_4
REMARK    4  A    between atoms: C_9  and  N_13
REMARK    5  A    between atoms: C_14  and  C_16
REMARK    6  A    between atoms: C_16  and  S_17
REMARK    7  A    between atoms: S_17  and  C_18
REMARK    8  A    between atoms: N_23  and  N_24
REMARK    9  A    between atoms: C_25  and  C_26
REMARK   10  A    between atoms: C_25  and  C_27
REMARK   11  A    between atoms: C_30  and  N_33
REMARK                            x       y       z     vdW  Elec       q    Type
REMARK                         _______ _______ _______ _____ _____    ______ ____
ROOT
ATOM      1  C   UNL     1       1.992 -13.599   2.614  0.00  0.00    +0.211 A 
ATOM      2  N   UNL     1       1.189 -14.567   3.068  0.00  0.00    -0.186 NA
ATOM      3  C   UNL     1       1.351 -15.654   2.343  0.00  0.00    +0.232 A 
ATOM      4  N   UNL     1       2.277 -15.390   1.398  0.00  0.00    -0.245 N 
ATOM      5  N   UNL     1       2.672 -14.056   1.589  0.00  0.00    -0.144 NA
ATOM      6  N   UNL     1       0.688 -16.855   2.519  0.00  0.00    -0.205 N 
ATOM      7  H   UNL     1       0.877 -17.603   1.932  0.00  0.00    +0.177 HD
ATOM      8  H   UNL     1       2.603 -16.000   0.718  0.00  0.00    +0.192 HD
ENDROOT
BRANCH   6   9
ATOM      9  N   UNL     1      -0.255 -16.991   3.547  0.00  0.00    -0.184 NA
ATOM     10  C   UNL     1      -0.802 -18.145   3.777  0.00  0.00    +0.063 C 
ATOM     11  C   UNL     1      -1.944 -18.256   4.754  0.00  0.00    +0.068 C 
BRANCH  10  12
ATOM     12  C   UNL     1      -0.307 -19.347   3.081  0.00  0.00    -0.002 A 
ATOM     13  C   UNL     1       1.054 -19.482   2.797  0.00  0.00    +0.011 A 
ATOM     14  C   UNL     1       1.513 -20.606   2.147  0.00  0.00    +0.023 A 
ATOM     15  C   UNL     1       0.623 -21.607   1.774  0.00  0.00    +0.025 A 
ATOM     16  C   UNL     1      -0.733 -21.477   2.054  0.00  0.00    +0.023 A 
ATOM     17  C   UNL     1      -1.198 -20.358   2.710  0.00  0.00    +0.011 A 
BRANCH  15  18
ATOM     18  N   UNL     1       1.091 -22.745   1.115  0.00  0.00    -0.358 N 
ATOM     19  H   UNL     1       2.036 -22.837   0.919  0.00  0.00    +0.142 HD
ATOM     20  H   UNL     1       0.471 -23.444   0.854  0.00  0.00    +0.142 HD
ENDBRANCH  15  18
ENDBRANCH  10  12
ENDBRANCH   6   9
BRANCH   1  21
ATOM     21  S   UNL     1       2.111 -11.972   3.279  0.00  0.00    -0.075 S 
BRANCH  21  22
ATOM     22  C   UNL     1       3.348 -11.159   2.230  0.00  0.00    +0.173 C 
BRANCH  22  24
ATOM     23  N   UNL     1       4.427  -8.940   2.061  0.00  0.00    -0.285 N 
ATOM     24  C   UNL     1       3.549  -9.740   2.696  0.00  0.00    +0.227 C 
ATOM     25  O   UNL     1       2.919  -9.319   3.644  0.00  0.00    -0.275 OA
ATOM     26  H   UNL     1       4.886  -9.257   1.268  0.00  0.00    +0.155 HD
BRANCH  23  32
ATOM     27  C   UNL     1       4.287  -3.182   4.574  0.00  0.00    +0.136 A 
ATOM     28  N   UNL     1       5.306  -3.806   4.027  0.00  0.00    -0.233 NA
ATOM     29  C   UNL     1       5.205  -5.054   3.519  0.00  0.00    +0.080 A 
ATOM     30  C   UNL     1       6.217  -5.831   2.908  0.00  0.00    +0.031 A 
ATOM     31  C   UNL     1       5.949  -7.090   2.440  0.00  0.00    +0.025 A 
ATOM     32  C   UNL     1       4.678  -7.650   2.548  0.00  0.00    +0.035 A 
ATOM     33  C   UNL     1       3.662  -6.913   3.143  0.00  0.00    +0.040 A 
ATOM     34  C   UNL     1       3.928  -5.652   3.612  0.00  0.00    +0.042 A 
ATOM     35  S   UNL     1       2.977  -4.388   4.423  0.00  0.00    -0.061 S 
BRANCH  27  36
ATOM     36  S   UNL     1       4.229  -1.570   5.283  0.00  0.00    -0.099 S 
BRANCH  36  38
ATOM     37  C   UNL     1       6.010   0.471   5.662  0.00  0.00    +0.016 C 
ATOM     38  C   UNL     1       5.918  -0.941   5.081  0.00  0.00    +0.073 C 
ENDBRANCH  36  38
ENDBRANCH  27  36
ENDBRANCH  23  32
ENDBRANCH  22  24
ENDBRANCH  21  22
ENDBRANCH   1  21
TORSDOF 9
