REMARK  Name = ZINC42403799
REMARK  4 active torsions:
REMARK  status: ('A' for Active; 'I' for Inactive)
REMARK    1  A    between atoms: C_2  and  N_22
REMARK    2  A    between atoms: C_4  and  C_11
REMARK    3  A    between atoms: C_11  and  N_12
REMARK    4  A    between atoms: C_17  and  C_19
REMARK                            x       y       z     vdW  Elec       q    Type
REMARK                         _______ _______ _______ _____ _____    ______ ____
ROOT
ATOM      1  C   UNL     1       0.015   0.290   1.367  0.00  0.00    +0.032 A 
ATOM      2  C   UNL     1       1.058   1.200   1.256  0.00  0.00    +0.025 A 
ATOM      3  C   UNL     1       2.332   0.757   0.923  0.00  0.00    +0.028 A 
ATOM      4  C   UNL     1       2.558  -0.587   0.702  0.00  0.00    -0.020 A 
ATOM      5  C   UNL     1       1.515  -1.496   0.813  0.00  0.00    +0.130 A 
ATOM      6  C   UNL     1       0.244  -1.055   1.148  0.00  0.00    +0.022 A 
ATOM      7  C   UNL     1      -0.894  -2.035   1.279  0.00  0.00    +0.202 C 
ATOM      8  O   UNL     1      -0.528  -3.271   0.659  0.00  0.00    -0.339 OA
ATOM      9  C   UNL     1       0.764  -3.739   1.062  0.00  0.00    +0.394 C 
ATOM     10  O   UNL     1       1.751  -2.817   0.588  0.00  0.00    -0.466 OA
ENDROOT
BRANCH   2  11
ATOM     11  N   UNL     1       0.826   2.562   1.478  0.00  0.00    -0.358 N 
ATOM     12  H   UNL     1      -0.063   2.871   1.710  0.00  0.00    +0.142 HD
ATOM     13  H   UNL     1       1.555   3.197   1.401  0.00  0.00    +0.142 HD
ENDBRANCH   2  11
BRANCH   4  14
ATOM     14  C   UNL     1       3.940  -1.067   0.340  0.00  0.00    -0.038 C 
BRANCH  14  15
ATOM     15  N   UNL     1       4.019  -1.281  -1.111  0.00  0.00    +0.390 N 
ATOM     16  C   UNL     1       3.098  -2.356  -1.497  0.00  0.00    -0.077 C 
ATOM     17  C   UNL     1       3.117  -2.528  -3.018  0.00  0.00    -0.019 C 
ATOM     18  C   UNL     1       4.537  -2.883  -3.468  0.00  0.00    -0.003 C 
ATOM     19  C   UNL     1       5.501  -1.791  -2.995  0.00  0.00    -0.006 C 
ATOM     20  C   UNL     1       5.393  -1.647  -1.475  0.00  0.00    +0.019 C 
ATOM     21  H   UNL     1       3.760  -0.431  -1.589  0.00  0.00    -0.080 HD
BRANCH  20  22
ATOM     22  C   UNL     1       6.340  -0.573  -1.005  0.00  0.00    +0.197 C 
ATOM     23  O   UNL     1       5.958   0.575  -0.912  0.00  0.00    -0.278 OA
ATOM     24  N   UNL     1       7.612  -0.887  -0.688  0.00  0.00    -0.331 N 
ATOM     25  H   UNL     1       7.918  -1.805  -0.763  0.00  0.00    +0.145 HD
ATOM     26  H   UNL     1       8.221  -0.196  -0.386  0.00  0.00    +0.145 HD
ENDBRANCH  20  22
ENDBRANCH  14  15
ENDBRANCH   4  14
TORSDOF 4
