REMARK  Name = ZINC38964787
REMARK  7 active torsions:
REMARK  status: ('A' for Active; 'I' for Inactive)
REMARK    1  A    between atoms: C_1  and  C_2
REMARK    2  A    between atoms: C_2  and  O_3
REMARK    3  A    between atoms: O_3  and  C_4
REMARK    4  A    between atoms: C_9  and  N_10
REMARK    5  A    between atoms: C_11  and  O_35
REMARK    6  A    between atoms: C_14  and  O_34
REMARK    7  A    between atoms: C_15  and  C_19
REMARK                            x       y       z     vdW  Elec       q    Type
REMARK                         _______ _______ _______ _____ _____    ______ ____
ROOT
ATOM      1  N   UNL     1      -3.903  -1.566   0.030  0.00  0.00    -0.222 N 
ATOM      2  C   UNL     1      -4.479  -1.148  -1.239  0.00  0.00    +0.339 C 
ATOM      3  N   UNL     1      -5.857  -0.707  -1.096  0.00  0.00    -0.204 NA
ATOM      4  C   UNL     1      -6.380  -0.332   0.007  0.00  0.00    +0.200 C 
ATOM      5  C   UNL     1      -5.621  -0.307   1.301  0.00  0.00    +0.183 C 
ATOM      6  C   UNL     1      -4.408  -1.188   1.212  0.00  0.00    +0.237 C 
ATOM      7  O   UNL     1      -3.871  -1.563   2.233  0.00  0.00    -0.274 OA
ENDROOT
BRANCH   5   8
ATOM      8  C   UNL     1      -5.184   1.128   1.604  0.00  0.00    +0.122 C 
ATOM      9  C   UNL     1      -6.403   1.992   1.828  0.00  0.00    +0.039 A 
ATOM     10  H   UNL     1      -7.656   0.847   3.035  0.00  0.00    +0.166 HD
ATOM     11  C   UNL     1      -6.533   3.232   1.302  0.00  0.00    -0.016 A 
ATOM     12  C   UNL     1      -7.817   3.743   1.727  0.00  0.00    +0.003 A 
ATOM     13  C   UNL     1      -8.483   4.951   1.496  0.00  0.00    +0.010 A 
ATOM     14  C   UNL     1      -9.720   5.098   2.072  0.00  0.00    +0.001 A 
ATOM     15  C   UNL     1     -10.294   4.104   2.848  0.00  0.00    +0.002 A 
ATOM     16  C   UNL     1      -9.657   2.899   3.094  0.00  0.00    +0.026 A 
ATOM     17  C   UNL     1      -8.400   2.722   2.522  0.00  0.00    +0.047 A 
ATOM     18  N   UNL     1      -7.516   1.681   2.560  0.00  0.00    -0.356 N 
ATOM     19  C   UNL     1      -5.481   3.886   0.443  0.00  0.00    +0.052 C 
ATOM     20  C   UNL     1      -4.171   3.106   0.621  0.00  0.00    +0.086 C 
ATOM     21  N   UNL     1      -4.428   1.666   0.462  0.00  0.00    -0.307 NA
ATOM     22  H   UNL     1      -3.570   1.155   0.324  0.00  0.00    +0.123 HD
ENDBRANCH   5   8
BRANCH   1  28
ATOM     23  C   UNL     1      -1.498  -1.849   0.006  0.00  0.00    +0.142 A 
ATOM     24  C   UNL     1      -0.390  -2.680  -0.003  0.00  0.00    +0.047 A 
ATOM     25  C   UNL     1      -0.554  -4.052  -0.009  0.00  0.00    +0.004 A 
ATOM     26  C   UNL     1      -1.823  -4.601  -0.005  0.00  0.00    +0.002 A 
ATOM     27  C   UNL     1      -2.934  -3.779   0.005  0.00  0.00    +0.027 A 
ATOM     28  C   UNL     1      -2.777  -2.401   0.016  0.00  0.00    +0.082 A 
BRANCH  23  29
ATOM     29  O   UNL     1      -1.339  -0.499   0.012  0.00  0.00    -0.490 OA
BRANCH  29  31
ATOM     30  C   UNL     1      -0.019   1.526   0.010  0.00  0.00    +0.048 C 
ATOM     31  C   UNL     1       0.002  -0.004   0.002  0.00  0.00    +0.226 C 
ENDBRANCH  29  31
ENDBRANCH  23  29
ENDBRANCH   1  28
BRANCH   4  32
ATOM     32  O   UNL     1      -7.671   0.059   0.008  0.00  0.00    -0.495 OA
ATOM     33  H   UNL     1      -8.096   0.017  -0.860  0.00  0.00    +0.293 HD
ENDBRANCH   4  32
BRANCH   2  34
ATOM     34  O   UNL     1      -4.438  -2.246  -2.152  0.00  0.00    -0.356 OA
ATOM     35  H   UNL     1      -4.805  -2.047  -3.024  0.00  0.00    +0.214 HD
ENDBRANCH   2  34
TORSDOF 6
