REMARK  Name = ZINC16671661
REMARK  6 active torsions:
REMARK  status: ('A' for Active; 'I' for Inactive)
REMARK    1  A    between atoms: C_1  and  O_2
REMARK    2  A    between atoms: O_2  and  C_3
REMARK    3  A    between atoms: C_7  and  C_10
REMARK    4  A    between atoms: C_8  and  O_9
REMARK    5  A    between atoms: N_11  and  N_12
REMARK    6  A    between atoms: C_13  and  C_15
REMARK                            x       y       z     vdW  Elec       q    Type
REMARK                         _______ _______ _______ _____ _____    ______ ____
ROOT
ATOM      1  C   UNL     1       2.327   1.053  -0.111  0.00  0.00    +0.142 C 
ATOM      2  N   UNL     1       3.400   1.715  -0.421  0.00  0.00    -0.187 NA
ENDROOT
BRANCH   1   7
ATOM      3  C   UNL     1       1.180  -2.524  -0.329  0.00  0.00    +0.163 A 
ATOM      4  C   UNL     1       2.376  -3.197  -0.135  0.00  0.00    +0.064 A 
ATOM      5  C   UNL     1       3.551  -2.491   0.066  0.00  0.00    +0.022 A 
ATOM      6  C   UNL     1       3.541  -1.111   0.074  0.00  0.00    +0.028 A 
ATOM      7  C   UNL     1       2.342  -0.420  -0.120  0.00  0.00    +0.041 A 
ATOM      8  C   UNL     1       1.154  -1.135  -0.318  0.00  0.00    +0.167 A 
ATOM      9 BR   UNL     1       5.175  -3.422   0.329  0.00  0.00    -0.050 Br
BRANCH   3  11
ATOM     10  C   UNL     1       0.130  -4.650  -0.519  0.00  0.00    +0.277 C 
ATOM     11  O   UNL     1       0.030  -3.224  -0.525  0.00  0.00    -0.491 OA
ENDBRANCH   3  11
BRANCH   8  12
ATOM     12  O   UNL     1      -0.018  -0.473  -0.503  0.00  0.00    -0.503 OA
ATOM     13  H   UNL     1      -0.180  -0.208  -1.419  0.00  0.00    +0.292 HD
ENDBRANCH   8  12
ENDBRANCH   1   7
BRANCH   2  14
ATOM     14  N   UNL     1       4.490   1.052  -1.000  0.00  0.00    -0.202 N 
ATOM     15  C   UNL     1       5.643   1.715  -1.219  0.00  0.00    +0.288 C 
ATOM     16  O   UNL     1       5.735   2.889  -0.920  0.00  0.00    -0.267 OA
ATOM     17  H   UNL     1       4.416   0.115  -1.238  0.00  0.00    +0.178 HD
BRANCH  15  18
ATOM     18  C   UNL     1       6.796   1.012  -1.825  0.00  0.00    +0.211 A 
ATOM     19  C   UNL     1       8.140   1.544  -2.148  0.00  0.00    +0.193 A 
ATOM     20  N   UNL     1       8.746   0.497  -2.658  0.00  0.00    -0.033 NA
ATOM     21  O   UNL     1       7.991  -0.446  -2.657  0.00  0.00    -0.240 OA
ATOM     22  N   UNL     1       6.888  -0.244  -2.205  0.00  0.00    -0.042 NA
ATOM     23  N   UNL     1       8.634   2.828  -1.960  0.00  0.00    -0.339 N 
ATOM     24  H   UNL     1       8.069   3.512  -1.567  0.00  0.00    +0.144 HD
ATOM     25  H   UNL     1       9.544   3.041  -2.221  0.00  0.00    +0.144 HD
ENDBRANCH  15  18
ENDBRANCH   2  14
TORSDOF 5
