REMARK  Name = ZINC40560415
REMARK  6 active torsions:
REMARK  status: ('A' for Active; 'I' for Inactive)
REMARK    1  A    between atoms: C_1  and  C_2
REMARK    2  A    between atoms: C_2  and  N_3
REMARK    3  A    between atoms: N_3  and  C_4
REMARK    4  A    between atoms: C_4  and  C_5
REMARK    5  A    between atoms: C_5  and  C_6
REMARK    6  A    between atoms: N_11  and  C_12
REMARK                            x       y       z     vdW  Elec       q    Type
REMARK                         _______ _______ _______ _____ _____    ______ ____
ROOT
ATOM      1  N   UNL     1       0.798   0.674   0.692  0.00  0.00    -0.285 N 
ATOM      2  C   UNL     1       2.133   0.501   0.749  0.00  0.00    +0.307 C 
ATOM      3  O   UNL     1       2.808   1.206   1.474  0.00  0.00    -0.252 OA
ATOM      4  N   UNL     1       2.721  -0.456   0.003  0.00  0.00    -0.266 N 
ATOM      5  H   UNL     1       2.177  -1.065  -0.520  0.00  0.00    +0.156 HD
ENDROOT
BRANCH   4   6
ATOM      6  C   UNL     1       4.118  -0.569  -0.018  0.00  0.00    +0.084 A 
ATOM      7  C   UNL     1       4.771  -1.313   0.959  0.00  0.00    +0.148 A 
ATOM      8  C   UNL     1       6.149  -1.423   0.937  0.00  0.00    +0.078 A 
ATOM      9  C   UNL     1       6.879  -0.794  -0.058  0.00  0.00    +0.127 A 
ATOM     10  C   UNL     1       6.231  -0.053  -1.032  0.00  0.00    +0.055 A 
ATOM     11  C   UNL     1       4.852   0.056  -1.016  0.00  0.00    +0.045 A 
ATOM     12 BR   UNL     1       3.968   1.062  -2.352  0.00  0.00    -0.048 Br
ATOM     13  F   UNL     1       8.225  -0.903  -0.079  0.00  0.00    -0.205 F 
ATOM     14  F   UNL     1       4.059  -1.926   1.930  0.00  0.00    -0.203 F 
ENDBRANCH   4   6
BRANCH   1  16
ATOM     15  C   UNL     1      -0.129   0.472  -1.563  0.00  0.00    +0.024 C 
ATOM     16  C   UNL     1      -0.015  -0.176  -0.181  0.00  0.00    +0.106 C 
ENDBRANCH   1  16
BRANCH   1  17
ATOM     17  C   UNL     1       0.159   1.714   1.503  0.00  0.00    +0.120 C 
BRANCH  17  18
ATOM     18  C   UNL     1      -0.232   1.131   2.862  0.00  0.00    +0.144 C 
BRANCH  18  19
ATOM     19  C   UNL     1      -0.889   2.200   3.697  0.00  0.00    +0.358 C 
ATOM     20  O   UNL     1      -1.032   3.324   3.246  0.00  0.00    -0.246 OA
ATOM     21  O   UNL     1      -1.279   1.941   4.823  0.00  0.00    -0.246 OA
ENDBRANCH  18  19
ENDBRANCH  17  18
ENDBRANCH   1  17
TORSDOF 5
