REMARK  Name = ZINC40302264
REMARK  3 active torsions:
REMARK  status: ('A' for Active; 'I' for Inactive)
REMARK    1  A    between atoms: C_5  and  N_7
REMARK    2  A    between atoms: C_8  and  C_10
REMARK    3  A    between atoms: C_14  and  N_19
REMARK                            x       y       z     vdW  Elec       q    Type
REMARK                         _______ _______ _______ _____ _____    ______ ____
ROOT
ATOM      1  C   UNL     1       0.118  -4.237   0.191  0.00  0.00    +0.191 A 
ATOM      2  C   UNL     1      -0.974  -5.037   0.299  0.00  0.00    +0.063 A 
ATOM      3  C   UNL     1      -0.467  -6.407   0.372  0.00  0.00    +0.023 A 
ATOM      4  C   UNL     1      -1.071  -7.662   0.490  0.00  0.00    +0.034 A 
ATOM      5  C   UNL     1      -0.282  -8.796   0.534  0.00  0.00    +0.025 A 
ATOM      6  C   UNL     1       1.106  -8.687   0.461  0.00  0.00    +0.026 A 
ATOM      7  C   UNL     1       1.708  -7.454   0.345  0.00  0.00    +0.048 A 
ATOM      8  C   UNL     1       0.934  -6.301   0.299  0.00  0.00    +0.136 A 
ATOM      9  O   UNL     1       1.237  -4.992   0.186  0.00  0.00    -0.450 OA
ENDROOT
BRANCH   1  11
ATOM     10  N   UNL     1       1.238  -2.079  -0.021  0.00  0.00    -0.278 N 
ATOM     11  C   UNL     1       0.087  -2.772   0.088  0.00  0.00    +0.284 C 
ATOM     12  O   UNL     1      -0.979  -2.184   0.102  0.00  0.00    -0.266 OA
ATOM     13  H   UNL     1       2.080  -2.550  -0.112  0.00  0.00    +0.155 HD
BRANCH  10  18
ATOM     14  C   UNL     1       0.154   1.372   0.636  0.00  0.00    +0.002 A 
ATOM     15  C   UNL     1       1.174   2.086   0.035  0.00  0.00    +0.001 A 
ATOM     16  C   UNL     1       2.215   1.421  -0.586  0.00  0.00    +0.016 A 
ATOM     17  C   UNL     1       2.239   0.039  -0.606  0.00  0.00    +0.035 A 
ATOM     18  C   UNL     1       1.216  -0.681  -0.002  0.00  0.00    +0.047 A 
ATOM     19  C   UNL     1       0.172  -0.009   0.620  0.00  0.00    +0.024 A 
ATOM     20  I   UNL     1       3.817  -0.968  -1.547  0.00  0.00    -0.042 I 
ENDBRANCH  10  18
ENDBRANCH   1  11
BRANCH   5  21
ATOM     21  N   UNL     1      -0.878 -10.057   0.652  0.00  0.00    -0.358 N 
ATOM     22  H   UNL     1      -1.844 -10.134   0.703  0.00  0.00    +0.142 HD
ATOM     23  H   UNL     1      -0.326 -10.853   0.682  0.00  0.00    +0.142 HD
ENDBRANCH   5  21
TORSDOF 3
