REMARK  Name = ZINC09459935
REMARK  5 active torsions:
REMARK  status: ('A' for Active; 'I' for Inactive)
REMARK    1  A    between atoms: N_13  and  C_17
REMARK    2  A    between atoms: C_17  and  C_18
REMARK    3  A    between atoms: N_20  and  C_21
REMARK    4  A    between atoms: C_21  and  C_22
REMARK    5  A    between atoms: C_25  and  C_27
REMARK                            x       y       z     vdW  Elec       q    Type
REMARK                         _______ _______ _______ _____ _____    ______ ____
ROOT
ATOM      1  C   UNL     1       4.312   5.498  -0.607  0.00  0.00    +0.213 C 
ENDROOT
BRANCH   1  14
ATOM      2  C   UNL     1       2.394   0.022  -0.028  0.00  0.00    +0.001 A 
ATOM      3  C   UNL     1       1.204  -0.682  -0.017  0.00  0.00    +0.004 A 
ATOM      4  C   UNL     1       0.002  -0.004   0.002  0.00  0.00    +0.046 A 
ATOM      5  C   UNL     1      -0.017   1.387   0.010  0.00  0.00    +0.126 A 
ATOM      6  C   UNL     1       1.177   2.090   0.002  0.00  0.00    +0.027 A 
ATOM      7  C   UNL     1       2.379   1.403  -0.018  0.00  0.00    +0.010 A 
ATOM      8  C   UNL     1       1.193   3.592   0.021  0.00  0.00    +0.144 C 
ATOM      9  C   UNL     1      -0.171   4.153  -0.368  0.00  0.00    +0.081 C 
ATOM     10  C   UNL     1      -1.248   3.393   0.418  0.00  0.00    +0.232 C 
ATOM     11  O   UNL     1      -1.217   2.022   0.019  0.00  0.00    -0.492 OA
ATOM     12  C   UNL     1       2.263   4.120  -0.907  0.00  0.00    +0.252 C 
ATOM     13  O   UNL     1       2.340   3.957  -2.106  0.00  0.00    -0.272 OA
ATOM     14  N   UNL     1       3.114   4.810  -0.119  0.00  0.00    -0.215 N 
ATOM     15  C   UNL     1       2.728   4.787   1.162  0.00  0.00    +0.310 C 
ATOM     16  O   UNL     1       3.334   5.339   2.060  0.00  0.00    -0.252 OA
ATOM     17  N   UNL     1       1.593   4.086   1.345  0.00  0.00    -0.281 N 
ATOM     18  H   UNL     1       1.132   3.936   2.185  0.00  0.00    +0.152 HD
ENDBRANCH   1  14
BRANCH   1  19
ATOM     19  C   UNL     1       3.960   6.914  -0.983  0.00  0.00    +0.231 C 
ATOM     20  O   UNL     1       2.820   7.309  -0.857  0.00  0.00    -0.274 OA
ATOM     21  N   UNL     1       4.911   7.741  -1.461  0.00  0.00    -0.307 N 
ATOM     22  H   UNL     1       5.822   7.425  -1.562  0.00  0.00    +0.149 HD
BRANCH  21  23
ATOM     23  C   UNL     1       4.568   9.118  -1.827  0.00  0.00    +0.178 C 
BRANCH  23  24
ATOM     24  C   UNL     1       5.800   9.826  -2.328  0.00  0.00    +0.123 A 
ATOM     25  C   UNL     1       6.219   9.863  -3.608  0.00  0.00    +0.047 A 
ATOM     26  C   UNL     1       7.401  10.629  -3.634  0.00  0.00    +0.050 A 
ATOM     27  C   UNL     1       7.646  11.014  -2.353  0.00  0.00    +0.135 A 
ATOM     28  O   UNL     1       6.667  10.520  -1.572  0.00  0.00    -0.458 OA
BRANCH  27  29
ATOM     29  C   UNL     1       8.789  11.833  -1.897  0.00  0.00    +0.017 A 
ATOM     30  C   UNL     1       9.742  12.278  -2.815  0.00  0.00    +0.013 A 
ATOM     31  C   UNL     1      10.805  13.045  -2.384  0.00  0.00    +0.021 A 
ATOM     32  C   UNL     1      10.932  13.366  -1.043  0.00  0.00    +0.041 A 
ATOM     33  C   UNL     1       9.992  12.922  -0.127  0.00  0.00    +0.021 A 
ATOM     34  C   UNL     1       8.923  12.159  -0.546  0.00  0.00    +0.013 A 
ATOM     35 CL   UNL     1      12.275  14.326  -0.507  0.00  0.00    -0.084 Cl
ENDBRANCH  27  29
ENDBRANCH  23  24
ENDBRANCH  21  23
ENDBRANCH   1  19
TORSDOF 5
