REMARK  Name = ZINC53994450
REMARK  3 active torsions:
REMARK  status: ('A' for Active; 'I' for Inactive)
REMARK    1  A    between atoms: C_3  and  O_13
REMARK    2  A    between atoms: C_6  and  C_7
REMARK    3  A    between atoms: O_13  and  C_14
REMARK                            x       y       z     vdW  Elec       q    Type
REMARK                         _______ _______ _______ _____ _____    ______ ____
ROOT
ATOM      1  C   UNL     1      -0.027   1.445  -0.077  0.00  0.00    +0.015 A 
ATOM      2  C   UNL     1       1.169   2.130  -0.074  0.00  0.00    +0.047 A 
ATOM      3  C   UNL     1       2.370   1.435  -0.023  0.00  0.00    +0.128 A 
ATOM      4  C   UNL     1       2.369   0.047   0.026  0.00  0.00    +0.047 A 
ATOM      5  C   UNL     1       1.176  -0.644   0.024  0.00  0.00    +0.015 A 
ATOM      6  C   UNL     1      -0.031   0.051  -0.028  0.00  0.00    +0.020 A 
ENDROOT
BRANCH   6   7
ATOM      7  C   UNL     1      -1.316  -0.689  -0.030  0.00  0.00    +0.170 A 
ATOM      8  N   UNL     1      -1.342  -2.010   0.021  0.00  0.00    -0.204 NA
ATOM      9  C   UNL     1      -2.524  -2.600   0.016  0.00  0.00    +0.176 A 
ATOM     10  S   UNL     1      -3.586  -1.300  -0.061  0.00  0.00    +0.049 S 
ATOM     11  N   UNL     1      -2.468  -0.051  -0.077  0.00  0.00    -0.187 NA
ATOM     12  N   UNL     1      -2.815  -3.951   0.062  0.00  0.00    -0.336 N 
ATOM     13  H   UNL     1      -2.096  -4.601   0.104  0.00  0.00    +0.144 HD
ATOM     14  H   UNL     1      -3.739  -4.249   0.051  0.00  0.00    +0.144 HD
ENDBRANCH   6   7
BRANCH   3  15
ATOM     15  O   UNL     1       3.547   2.113  -0.022  0.00  0.00    -0.456 OA
BRANCH  15  16
ATOM     16  C   UNL     1       3.846   2.870   1.067  0.00  0.00    +0.129 A 
ATOM     17  C   UNL     1       4.970   3.683   1.060  0.00  0.00    +0.049 A 
ATOM     18  C   UNL     1       5.272   4.452   2.167  0.00  0.00    +0.042 A 
ATOM     19  C   UNL     1       4.454   4.411   3.283  0.00  0.00    +0.124 A 
ATOM     20  C   UNL     1       3.332   3.600   3.292  0.00  0.00    +0.042 A 
ATOM     21  C   UNL     1       3.024   2.835   2.184  0.00  0.00    +0.049 A 
ATOM     22  F   UNL     1       4.752   5.163   4.365  0.00  0.00    -0.205 F 
ENDBRANCH  15  16
ENDBRANCH   3  15
TORSDOF 3
