REMARK  Name = ZINC42356228
REMARK  4 active torsions:
REMARK  status: ('A' for Active; 'I' for Inactive)
REMARK    1  A    between atoms: C_1  and  C_2
REMARK    2  A    between atoms: C_3  and  S_15
REMARK    3  A    between atoms: N_6  and  C_7
REMARK    4  A    between atoms: S_15  and  N_18
REMARK                            x       y       z     vdW  Elec       q    Type
REMARK                         _______ _______ _______ _____ _____    ______ ____
ROOT
ATOM      1  C   UNL     1      -0.018   1.503   0.010  0.00  0.00    +0.067 C 
ATOM      2  C   UNL     1       0.002  -0.004   0.002  0.00  0.00    +0.063 A 
ATOM      3  C   UNL     1       0.008  -0.796  -1.095  0.00  0.00    +0.145 A 
ATOM      4  C   UNL     1       0.029  -2.127  -0.666  0.00  0.00    +0.163 A 
ATOM      5  N   UNL     1       0.034  -2.134   0.643  0.00  0.00    -0.177 NA
ATOM      6  N   UNL     1       0.023  -0.805   1.088  0.00  0.00    -0.262 N 
ENDROOT
BRANCH   6   7
ATOM      7  C   UNL     1       0.030  -0.364   2.485  0.00  0.00    +0.130 C 
ATOM      8  C   UNL     1      -1.206  -0.930   3.204  0.00  0.00    +0.051 C 
ATOM      9  C   UNL     1      -1.015  -0.717   4.733  0.00  0.00    +0.168 C 
ATOM     10  S   UNL     1       0.771  -1.131   4.912  0.00  0.00    -0.029 S 
ATOM     11  O   UNL     1       1.390  -0.160   5.745  0.00  0.00    -0.174 OA
ATOM     12  O   UNL     1       0.896  -2.510   5.232  0.00  0.00    -0.174 OA
ATOM     13  C   UNL     1       1.319  -0.869   3.176  0.00  0.00    +0.192 C 
ENDBRANCH   6   7
BRANCH   3  14
ATOM     14  S   UNL     1      -0.007  -0.247  -2.770  0.00  0.00    +0.059 S 
ATOM     15  O   UNL     1       1.004   0.745  -2.881  0.00  0.00    -0.153 OA
ATOM     16  O   UNL     1      -0.021  -1.415  -3.579  0.00  0.00    -0.153 OA
BRANCH  14  17
ATOM     17  N   UNL     1      -1.453   0.520  -3.020  0.00  0.00    -0.203 NA
ATOM     18  H   UNL     1      -2.096   0.592  -2.297  0.00  0.00    +0.144 HD
ATOM     19  H   UNL     1      -1.657   0.898  -3.890  0.00  0.00    +0.144 HD
ENDBRANCH  14  17
ENDBRANCH   3  14
TORSDOF 3
