REMARK  Name = ZINC21467522
REMARK  10 active torsions:
REMARK  status: ('A' for Active; 'I' for Inactive)
REMARK    1  A    between atoms: C_1  and  C_2
REMARK    2  A    between atoms: C_5  and  S_9
REMARK    3  A    between atoms: C_7  and  C_8
REMARK    4  A    between atoms: S_9  and  N_12
REMARK    5  A    between atoms: N_12  and  C_13
REMARK    6  A    between atoms: C_13  and  C_14
REMARK    7  A    between atoms: C_14  and  O_16
REMARK    8  A    between atoms: O_16  and  C_17
REMARK    9  A    between atoms: C_17  and  C_18
REMARK   10  A    between atoms: N_20  and  C_21
REMARK                            x       y       z     vdW  Elec       q    Type
REMARK                         _______ _______ _______ _____ _____    ______ ____
ROOT
ATOM      1  C   UNL     1      -4.888   0.917   0.243  0.00  0.00    +0.328 C 
ENDROOT
BRANCH   1   2
ATOM      2  C   UNL     1      -3.601   1.693   0.129  0.00  0.00    +0.255 C 
ATOM      3  O   UNL     1      -3.621   2.905   0.137  0.00  0.00    -0.272 OA
ATOM      4  N   UNL     1      -2.428   1.038   0.018  0.00  0.00    -0.283 N 
ATOM      5  H   UNL     1      -2.416  -0.057  -0.077  0.00  0.00    +0.155 HD
BRANCH   4   6
ATOM      6  C   UNL     1      -1.224   1.754   0.023  0.00  0.00    +0.037 A 
ATOM      7  C   UNL     1      -0.148   1.309  -0.734  0.00  0.00    +0.027 A 
ATOM      8  C   UNL     1       1.043   2.009  -0.725  0.00  0.00    +0.051 A 
ATOM      9  C   UNL     1       1.165   3.160   0.034  0.00  0.00    +0.167 A 
ATOM     10  C   UNL     1       0.084   3.614   0.790  0.00  0.00    +0.169 A 
ATOM     11  C   UNL     1      -1.108   2.912   0.781  0.00  0.00    +0.073 A 
ATOM     12  O   UNL     1       0.465   4.759   1.440  0.00  0.00    -0.447 OA
ATOM     13  C   UNL     1       1.581   5.232   0.672  0.00  0.00    +0.254 C 
ATOM     14  O   UNL     1       2.212   4.027   0.216  0.00  0.00    -0.448 OA
ATOM     15  C   UNL     1       2.533   6.069   1.533  0.00  0.00    +0.093 C 
ATOM     16  C   UNL     1       3.061   7.155   0.559  0.00  0.00    +0.008 C 
ATOM     17  C   UNL     1       1.818   7.473  -0.310  0.00  0.00    +0.008 C 
ATOM     18  C   UNL     1       1.126   6.104  -0.498  0.00  0.00    +0.093 C 
ENDBRANCH   4   6
ENDBRANCH   1   2
BRANCH   1  19
ATOM     19  O   UNL     1      -6.003   1.842   0.350  0.00  0.00    -0.454 OA
BRANCH  19  20
ATOM     20  C   UNL     1      -7.229   1.309   0.460  0.00  0.00    +0.323 C 
ATOM     21  O   UNL     1      -7.367   0.108   0.466  0.00  0.00    -0.249 OA
BRANCH  20  22
ATOM     22  C   UNL     1      -8.434   2.206   0.575  0.00  0.00    +0.226 C 
BRANCH  22  23
ATOM     23  N   UNL     1      -9.645   1.388   0.681  0.00  0.00    -0.179 NA
ATOM     24  H   UNL     1      -9.656   0.367   0.273  0.00  0.00    +0.149 HD
BRANCH  23  25
ATOM     25  S   UNL     1     -11.065   2.072   1.188  0.00  0.00    +0.059 S 
ATOM     26  O   UNL     1     -12.044   1.043   1.161  0.00  0.00    -0.153 OA
ATOM     27  O   UNL     1     -10.764   2.807   2.367  0.00  0.00    -0.153 OA
BRANCH  25  32
ATOM     28  C   UNL     1     -12.689   6.109  -2.992  0.00  0.00    +0.044 C 
ATOM     29  C   UNL     1     -12.284   5.101  -1.948  0.00  0.00    -0.047 A 
ATOM     30  C   UNL     1     -11.483   5.487  -0.889  0.00  0.00    +0.005 A 
ATOM     31  C   UNL     1     -11.115   4.563   0.071  0.00  0.00    +0.029 A 
ATOM     32  C   UNL     1     -11.539   3.251  -0.033  0.00  0.00    +0.106 A 
ATOM     33  C   UNL     1     -12.341   2.866  -1.091  0.00  0.00    +0.032 A 
ATOM     34  C   UNL     1     -12.713   3.791  -2.049  0.00  0.00    -0.046 A 
ATOM     35  C   UNL     1     -13.587   3.371  -3.202  0.00  0.00    +0.044 C 
ENDBRANCH  25  32
ENDBRANCH  23  25
ENDBRANCH  22  23
ENDBRANCH  20  22
ENDBRANCH  19  20
ENDBRANCH   1  19
TORSDOF 8
