REMARK  Name = ZINC36365704
REMARK  4 active torsions:
REMARK  status: ('A' for Active; 'I' for Inactive)
REMARK    1  A    between atoms: C_1  and  C_2
REMARK    2  A    between atoms: C_10  and  C_13
REMARK    3  A    between atoms: C_16  and  O_31
REMARK    4  A    between atoms: C_20  and  C_30
REMARK                            x       y       z     vdW  Elec       q    Type
REMARK                         _______ _______ _______ _____ _____    ______ ____
ROOT
ATOM      1  C   UNL     1       0.088  -5.156   3.538  0.00  0.00    +0.070 C 
ATOM      2  C   UNL     1      -1.149  -4.867   4.396  0.00  0.00    +0.108 C 
ATOM      3  C   UNL     1      -0.997  -3.587   5.165  0.00  0.00    +0.190 C 
ATOM      4  N   UNL     1       0.140  -3.156   5.624  0.00  0.00    -0.197 NA
ATOM      5  C   UNL     1       1.273  -3.866   5.361  0.00  0.00    +0.165 A 
ATOM      6  C   UNL     1       1.306  -4.839   4.369  0.00  0.00    +0.028 A 
ATOM      7  C   UNL     1       2.579  -5.377   4.339  0.00  0.00    +0.066 A 
ATOM      8  N   UNL     1       3.308  -4.771   5.248  0.00  0.00    -0.168 NA
ATOM      9  N   UNL     1       2.513  -3.808   5.900  0.00  0.00    -0.194 N 
ATOM     10  C   UNL     1       2.930  -2.945   6.919  0.00  0.00    +0.178 A 
ATOM     11  C   UNL     1       4.010  -3.293   7.730  0.00  0.00    +0.055 A 
ATOM     12  C   UNL     1       4.386  -2.406   8.725  0.00  0.00    +0.077 A 
ATOM     13  C   UNL     1       3.662  -1.223   8.854  0.00  0.00    +0.289 A 
ATOM     14  N   UNL     1       2.651  -0.977   8.038  0.00  0.00    -0.105 NA
ATOM     15  N   UNL     1       2.305  -1.796   7.112  0.00  0.00    -0.126 NA
ATOM     16  O   UNL     1       3.994  -0.324   9.816  0.00  0.00    -0.264 OA
ATOM     17  C   UNL     1       3.050  -6.475   3.420  0.00  0.00    +0.068 C 
ENDROOT
BRANCH   1  27
ATOM     18  C   UNL     1      -0.018   1.503   0.010  0.00  0.00    +0.044 C 
ATOM     19  C   UNL     1       0.002  -0.004   0.002  0.00  0.00    -0.050 A 
ATOM     20  C   UNL     1       0.006  -0.688  -1.205  0.00  0.00    +0.007 A 
ATOM     21  C   UNL     1       0.024  -2.066  -1.234  0.00  0.00    +0.047 A 
ATOM     22  C   UNL     1       0.039  -2.784  -0.043  0.00  0.00    +0.138 A 
ATOM     23  C   UNL     1       0.036  -2.090   1.178  0.00  0.00    +0.064 A 
ATOM     24  C   UNL     1       0.023  -0.696   1.193  0.00  0.00    +0.018 A 
ATOM     25  C   UNL     1       0.052  -2.874   2.428  0.00  0.00    +0.196 A 
ATOM     26  O   UNL     1       0.050  -2.331   3.519  0.00  0.00    -0.287 OA
ATOM     27  C   UNL     1       0.070  -4.289   2.305  0.00  0.00    +0.043 A 
ATOM     28  C   UNL     1       0.072  -4.850   1.083  0.00  0.00    +0.203 A 
ATOM     29  O   UNL     1       0.057  -4.132  -0.045  0.00  0.00    -0.462 OA
ENDBRANCH   1  27
BRANCH   3  30
ATOM     30  O   UNL     1      -2.100  -2.844   5.391  0.00  0.00    -0.495 OA
ATOM     31  H   UNL     1      -1.932  -2.033   5.892  0.00  0.00    +0.293 HD
ENDBRANCH   3  30
TORSDOF 2
