REMARK  Name = ZINC13225919
REMARK  4 active torsions:
REMARK  status: ('A' for Active; 'I' for Inactive)
REMARK    1  A    between atoms: C_1  and  C_2
REMARK    2  A    between atoms: C_2  and  C_7
REMARK    3  A    between atoms: N_9  and  C_10
REMARK    4  A    between atoms: C_15  and  C_16
REMARK                            x       y       z     vdW  Elec       q    Type
REMARK                         _______ _______ _______ _____ _____    ______ ____
ROOT
ATOM      1  C   UNL     1      -2.508   1.218  -0.080  0.00  0.00    +0.051 A 
ATOM      2  C   UNL     1      -3.718   1.896  -0.066  0.00  0.00    +0.073 A 
ATOM      3  C   UNL     1      -3.733   3.276   0.051  0.00  0.00    +0.164 A 
ATOM      4  C   UNL     1      -2.541   3.988   0.154  0.00  0.00    +0.163 A 
ATOM      5  C   UNL     1      -1.331   3.327   0.148  0.00  0.00    +0.066 A 
ATOM      6  C   UNL     1      -1.304   1.932   0.024  0.00  0.00    +0.088 A 
ATOM      7  O   UNL     1      -2.576   5.349   0.269  0.00  0.00    -0.488 OA
ATOM      8  C   UNL     1      -3.112   5.860   1.491  0.00  0.00    +0.232 C 
ATOM      9  C   UNL     1      -4.629   5.938   1.425  0.00  0.00    +0.082 C 
ATOM     10  C   UNL     1      -5.274   4.566   1.302  0.00  0.00    +0.232 C 
ATOM     11  O   UNL     1      -4.920   3.947   0.064  0.00  0.00    -0.488 OA
ENDROOT
BRANCH   1  14
ATOM     12  C   UNL     1      -3.410  -0.797  -0.956  0.00  0.00    +0.226 C 
ATOM     13  O   UNL     1      -4.197  -0.148  -1.612  0.00  0.00    -0.275 OA
ATOM     14  N   UNL     1      -2.488  -0.172  -0.198  0.00  0.00    -0.284 N 
ATOM     15  H   UNL     1      -1.810  -0.688   0.266  0.00  0.00    +0.155 HD
BRANCH  12  17
ATOM     16  C   UNL     1      -3.105  -3.004   0.324  0.00  0.00    +0.024 C 
ATOM     17  C   UNL     1      -3.463  -2.303  -0.988  0.00  0.00    +0.080 C 
ATOM     18  C   UNL     1      -3.063  -2.996  -2.292  0.00  0.00    +0.058 C 
ATOM     19  C   UNL     1      -4.533  -2.954  -1.867  0.00  0.00    +0.133 C 
ATOM     20 CL   UNL     1      -5.274  -4.488  -1.279  0.00  0.00    -0.100 Cl
ATOM     21 CL   UNL     1      -5.633  -1.860  -2.786  0.00  0.00    -0.100 Cl
ENDBRANCH  12  17
ENDBRANCH   1  14
BRANCH   6  22
ATOM     22  C   UNL     1      -0.018   1.218   0.009  0.00  0.00    +0.388 C 
ATOM     23  O   UNL     1       0.002   0.002  -0.003  0.00  0.00    -0.241 OA
ATOM     24  O   UNL     1       1.138   1.911   0.003  0.00  0.00    -0.241 OA
ENDBRANCH   6  22
TORSDOF 3
