REMARK  Name = ZINC12862552
REMARK  6 active torsions:
REMARK  status: ('A' for Active; 'I' for Inactive)
REMARK    1  A    between atoms: C_1  and  C_2
REMARK    2  A    between atoms: N_6  and  N_7
REMARK    3  A    between atoms: N_7  and  C_8
REMARK    4  A    between atoms: C_8  and  N_10
REMARK    5  A    between atoms: C_22  and  C_33
REMARK    6  A    between atoms: C_26  and  C_27
REMARK                            x       y       z     vdW  Elec       q    Type
REMARK                         _______ _______ _______ _____ _____    ______ ____
ROOT
ATOM      1  C   UNL     1       0.549   4.328   1.351  0.00  0.00    +0.012 C 
ATOM      2  C   UNL     1      -0.809   3.625   1.373  0.00  0.00    -0.025 C 
ATOM      3  C   UNL     1      -0.601   2.108   1.356  0.00  0.00    +0.013 C 
ATOM      4  C   UNL     1       0.218   1.717   0.122  0.00  0.00    +0.053 C 
ATOM      5  C   UNL     1      -0.484   2.252  -1.107  0.00  0.00    +0.037 C 
ATOM      6  N   UNL     1      -0.750   1.487  -2.098  0.00  0.00    -0.190 NA
ATOM      7  C   UNL     1      -0.862   3.716  -1.131  0.00  0.00    +0.056 C 
ATOM      8  C   UNL     1      -1.625   4.051   0.151  0.00  0.00    +0.001 C 
ATOM      9  C   UNL     1      -2.969   3.321   0.167  0.00  0.00    +0.005 C 
ATOM     10  C   UNL     1      -3.736   3.717   1.430  0.00  0.00    +0.008 C 
ATOM     11  C   UNL     1      -2.936   3.324   2.674  0.00  0.00    +0.019 C 
ATOM     12  C   UNL     1      -1.556   3.998   2.636  0.00  0.00    +0.002 C 
ATOM     13  C   UNL     1      -1.695   5.513   2.723  0.00  0.00    +0.006 C 
ATOM     14  C   UNL     1      -2.312   5.938   4.061  0.00  0.00    +0.016 C 
ATOM     15  C   UNL     1      -3.735   5.384   4.134  0.00  0.00    +0.015 C 
ATOM     16  C   UNL     1      -3.643   3.871   3.893  0.00  0.00    -0.056 C 
ATOM     17  C   UNL     1      -4.232   3.291   4.931  0.00  0.00    +0.001 C 
ATOM     18  C   UNL     1      -4.664   4.276   5.917  0.00  0.00    +0.005 C 
ATOM     19  C   UNL     1      -4.349   5.531   5.498  0.00  0.00    -0.031 C 
ATOM     20  C   UNL     1      -4.621   6.041   3.074  0.00  0.00    +0.021 C 
ENDROOT
BRANCH  19  21
ATOM     21  C   UNL     1      -4.559   6.733   6.204  0.00  0.00    +0.000 C 
ATOM     22  C   UNL     1      -4.241   7.990   5.792  0.00  0.00    +0.098 C 
ATOM     23  C   UNL     1      -4.615   8.918   6.784  0.00  0.00    +0.333 C 
ATOM     24  O   UNL     1      -4.458  10.121   6.697  0.00  0.00    -0.246 OA
ATOM     25  O   UNL     1      -5.163   8.295   7.844  0.00  0.00    -0.457 OA
ATOM     26  C   UNL     1      -5.176   6.888   7.576  0.00  0.00    +0.268 C 
ENDBRANCH  19  21
BRANCH   6  27
ATOM     27  N   UNL     1      -0.282   0.166  -2.109  0.00  0.00    -0.219 N 
ATOM     28  H   UNL     1       0.185  -0.190  -1.337  0.00  0.00    +0.176 HD
BRANCH  27  29
ATOM     29  C   UNL     1      -0.482  -0.611  -3.192  0.00  0.00    +0.147 C 
ATOM     30  S   UNL     1       0.089  -2.224  -3.206  0.00  0.00    -0.017 S 
BRANCH  29  31
ATOM     31  N   UNL     1      -1.131  -0.117  -4.265  0.00  0.00    -0.339 N 
ATOM     32  H   UNL     1      -1.455   0.798  -4.258  0.00  0.00    +0.144 HD
ATOM     33  H   UNL     1      -1.275  -0.676  -5.045  0.00  0.00    +0.144 HD
ENDBRANCH  29  31
ENDBRANCH  27  29
ENDBRANCH   6  27
TORSDOF 4
