REMARK  Name = ZINC39637132
REMARK  9 active torsions:
REMARK  status: ('A' for Active; 'I' for Inactive)
REMARK    1  A    between atoms: C_1  and  C_2
REMARK    2  A    between atoms: C_7  and  N_12
REMARK    3  A    between atoms: C_9  and  C_11
REMARK    4  A    between atoms: C_13  and  C_15
REMARK    5  A    between atoms: C_26  and  C_28
REMARK    6  A    between atoms: C_30  and  O_36
REMARK    7  A    between atoms: C_32  and  O_34
REMARK    8  A    between atoms: O_34  and  C_35
REMARK    9  A    between atoms: O_36  and  C_37
REMARK                            x       y       z     vdW  Elec       q    Type
REMARK                         _______ _______ _______ _____ _____    ______ ____
ROOT
ATOM      1  C   UNL     1       2.093  -4.483   3.543  0.00  0.00    +0.100 C 
ATOM      2  C   UNL     1       3.635  -4.572   3.540  0.00  0.00    +0.121 C 
ATOM      3  N   UNL     1       3.942  -5.776   4.348  0.00  0.00    -0.296 N 
ATOM      4  C   UNL     1       2.900  -6.757   3.959  0.00  0.00    +0.115 C 
ATOM      5  C   UNL     1       1.614  -5.918   3.817  0.00  0.00    -0.004 C 
ATOM      6  C   UNL     1       0.778  -6.429   2.648  0.00  0.00    -0.010 C 
ATOM      7  C   UNL     1       0.265  -7.836   2.969  0.00  0.00    -0.082 C 
ATOM      8  N   UNL     1      -0.543  -7.796   4.194  0.00  0.00    +0.379 N 
ATOM      9  C   UNL     1       0.293  -7.393   5.332  0.00  0.00    -0.082 C 
ATOM     10  C   UNL     1       0.807  -5.968   5.110  0.00  0.00    -0.010 C 
ATOM     11  C   UNL     1       4.942  -5.941   5.237  0.00  0.00    +0.247 C 
ATOM     12  O   UNL     1       5.654  -5.002   5.532  0.00  0.00    -0.270 OA
ATOM     13  H   UNL     1      -1.294  -7.133   4.078  0.00  0.00    -0.086 HD
ATOM     14  H   UNL     1      -0.929  -8.711   4.370  0.00  0.00    -0.086 HD
ENDROOT
BRANCH  11  15
ATOM     15  C   UNL     1       5.172  -7.266   5.853  0.00  0.00    +0.044 A 
ATOM     16  C   UNL     1       4.697  -8.420   5.228  0.00  0.00    +0.059 A 
ATOM     17  C   UNL     1       4.914  -9.659   5.809  0.00  0.00    +0.124 A 
ATOM     18  C   UNL     1       5.604  -9.753   7.009  0.00  0.00    +0.091 A 
ATOM     19  C   UNL     1       6.078  -8.608   7.633  0.00  0.00    +0.124 A 
ATOM     20  C   UNL     1       5.869  -7.366   7.057  0.00  0.00    +0.059 A 
BRANCH  19  21
ATOM     21  O   UNL     1       6.752  -8.706   8.809  0.00  0.00    -0.495 OA
ATOM     22  C   UNL     1       6.936 -10.018   9.344  0.00  0.00    +0.277 C 
ENDBRANCH  19  21
BRANCH  17  23
ATOM     23  O   UNL     1       4.452 -10.783   5.201  0.00  0.00    -0.495 OA
ATOM     24  C   UNL     1       4.712 -12.027   5.855  0.00  0.00    +0.277 C 
ENDBRANCH  17  23
ENDBRANCH  11  15
BRANCH   1  26
ATOM     25  N   UNL     1       0.439  -3.317   2.120  0.00  0.00    -0.312 N 
ATOM     26  C   UNL     1       1.592  -4.010   2.202  0.00  0.00    +0.218 C 
ATOM     27  O   UNL     1       2.227  -4.254   1.198  0.00  0.00    -0.275 OA
ATOM     28  H   UNL     1      -0.068  -3.122   2.923  0.00  0.00    +0.149 HD
BRANCH  25  34
ATOM     29  C   UNL     1      -3.593  -2.020  -0.431  0.00  0.00    +0.008 C 
ATOM     30  C   UNL     1      -2.074  -2.199  -0.488  0.00  0.00    -0.009 C 
ATOM     31  C   UNL     1      -1.416  -0.862  -0.836  0.00  0.00    +0.003 C 
ATOM     32  C   UNL     1       0.102  -1.041  -0.892  0.00  0.00    +0.002 C 
ATOM     33  C   UNL     1       0.611  -1.520   0.469  0.00  0.00    +0.022 C 
ATOM     34  C   UNL     1      -0.047  -2.857   0.817  0.00  0.00    +0.076 C 
ATOM     35  C   UNL     1      -1.566  -2.679   0.873  0.00  0.00    +0.009 C 
ATOM     36  C   UNL     1      -2.224  -4.015   1.221  0.00  0.00    +0.009 C 
ENDBRANCH  25  34
ENDBRANCH   1  26
TORSDOF 5
