REMARK  Name = ZINC66682045
REMARK  13 active torsions:
REMARK  status: ('A' for Active; 'I' for Inactive)
REMARK    1  A    between atoms: C_1  and  C_2
REMARK    2  A    between atoms: C_5  and  C_8
REMARK    3  A    between atoms: C_8  and  C_10
REMARK    4  A    between atoms: C_8  and  N_28
REMARK    5  A    between atoms: C_10  and  N_11
REMARK    6  A    between atoms: N_14  and  C_15
REMARK    7  A    between atoms: C_18  and  C_22
REMARK    8  A    between atoms: C_19  and  C_21
REMARK    9  A    between atoms: N_24  and  C_25
REMARK   10  A    between atoms: C_25  and  C_26
REMARK   11  A    between atoms: C_25  and  C_27
REMARK   12  A    between atoms: N_28  and  C_29
REMARK   13  A    between atoms: N_28  and  C_30
REMARK                            x       y       z     vdW  Elec       q    Type
REMARK                         _______ _______ _______ _____ _____    ______ ____
ROOT
ATOM      1  N   UNL     1      -1.726  -5.705   0.940  0.00  0.00    -0.300 N 
ATOM      2  C   UNL     1      -2.744  -6.588   0.947  0.00  0.00    +0.304 C 
ATOM      3  O   UNL     1      -3.890  -6.196   0.836  0.00  0.00    -0.253 OA
ATOM      4  N   UNL     1      -2.492  -7.905   1.076  0.00  0.00    -0.269 N 
ATOM      5  H   UNL     1      -0.812  -6.017   1.029  0.00  0.00    +0.150 HD
ATOM      6  H   UNL     1      -1.577  -8.224   1.100  0.00  0.00    +0.156 HD
ENDROOT
BRANCH   4   7
ATOM      7  C   UNL     1      -3.548  -8.810   1.177  0.00  0.00    +0.035 A 
ATOM      8  C   UNL     1      -4.719  -8.594   0.457  0.00  0.00    +0.024 A 
ATOM      9  C   UNL     1      -5.764  -9.485   0.554  0.00  0.00    +0.015 A 
ATOM     10  C   UNL     1      -5.647 -10.609   1.376  0.00  0.00    +0.040 A 
ATOM     11  C   UNL     1      -4.470 -10.824   2.097  0.00  0.00    -0.037 A 
ATOM     12  C   UNL     1      -3.427  -9.931   1.992  0.00  0.00    +0.027 A 
ATOM     13  C   UNL     1      -4.339 -12.034   2.986  0.00  0.00    +0.044 C 
BRANCH  10  14
ATOM     14  C   UNL     1      -6.765 -11.567   1.483  0.00  0.00    +0.245 C 
ATOM     15  O   UNL     1      -6.678 -12.521   2.230  0.00  0.00    -0.270 OA
ATOM     16  N   UNL     1      -7.882 -11.383   0.751  0.00  0.00    -0.309 N 
ATOM     17  H   UNL     1      -7.951 -10.621   0.155  0.00  0.00    +0.149 HD
BRANCH  16  18
ATOM     18  C   UNL     1      -8.992 -12.333   0.857  0.00  0.00    +0.067 C 
ATOM     19  C   UNL     1      -9.880 -11.950   2.042  0.00  0.00    +0.027 C 
ATOM     20  C   UNL     1      -9.816 -12.300  -0.431  0.00  0.00    +0.027 C 
ENDBRANCH  16  18
ENDBRANCH  10  14
ENDBRANCH   4   7
BRANCH   1  21
ATOM     21  C   UNL     1      -2.000  -4.272   0.800  0.00  0.00    +0.095 C 
BRANCH  21  22
ATOM     22  C   UNL     1      -0.678  -3.509   0.694  0.00  0.00    -0.021 C 
BRANCH  22  27
ATOM     23  C   UNL     1       2.087  -5.108  -4.122  0.00  0.00    +0.044 C 
ATOM     24  C   UNL     1       1.366  -4.691  -2.866  0.00  0.00    -0.050 A 
ATOM     25  C   UNL     1       1.735  -5.227  -1.647  0.00  0.00    +0.003 A 
ATOM     26  C   UNL     1       1.074  -4.844  -0.494  0.00  0.00    +0.002 A 
ATOM     27  C   UNL     1       0.043  -3.925  -0.562  0.00  0.00    -0.059 A 
ATOM     28  C   UNL     1      -0.325  -3.388  -1.781  0.00  0.00    +0.002 A 
ATOM     29  C   UNL     1       0.339  -3.767  -2.933  0.00  0.00    +0.003 A 
ENDBRANCH  22  27
BRANCH  22  30
ATOM     30  N   UNL     1      -0.949  -2.065   0.647  0.00  0.00    +0.382 N 
ATOM     31  C   UNL     1      -1.571  -1.643   1.909  0.00  0.00    -0.096 C 
ATOM     32  C   UNL     1       0.312  -1.337   0.455  0.00  0.00    -0.096 C 
ATOM     33  H   UNL     1      -1.574  -1.865  -0.119  0.00  0.00    -0.082 HD
ENDBRANCH  22  30
ENDBRANCH  21  22
ENDBRANCH   1  21
TORSDOF 7
