REMARK  Name = ZINC00815918
REMARK  8 active torsions:
REMARK  status: ('A' for Active; 'I' for Inactive)
REMARK    1  A    between atoms: C_1  and  C_2
REMARK    2  A    between atoms: C_7  and  C_17
REMARK    3  A    between atoms: C_20  and  O_24
REMARK    4  A    between atoms: C_21  and  O_23
REMARK    5  A    between atoms: O_24  and  C_25
REMARK    6  A    between atoms: C_28  and  C_30
REMARK    7  A    between atoms: C_30  and  O_32
REMARK    8  A    between atoms: O_32  and  C_33
REMARK                            x       y       z     vdW  Elec       q    Type
REMARK                         _______ _______ _______ _____ _____    ______ ____
ROOT
ATOM      1  C   UNL     1       1.008  -6.025  -3.422  0.00  0.00    +0.009 C 
ATOM      2  C   UNL     1       1.650  -4.697  -3.017  0.00  0.00    +0.013 C 
ATOM      3  C   UNL     1       1.325  -4.388  -1.557  0.00  0.00    +0.055 C 
ATOM      4  C   UNL     1       1.974  -3.076  -1.147  0.00  0.00    +0.017 C 
ATOM      5  C   UNL     1       3.146  -2.700  -1.687  0.00  0.00    +0.037 C 
ATOM      6  C   UNL     1       3.900  -1.431  -1.369  0.00  0.00    +0.136 C 
ATOM      7  N   UNL     1       3.407  -0.713  -0.213  0.00  0.00    -0.331 N 
ATOM      8  C   UNL     1       2.131  -0.155  -0.206  0.00  0.00    +0.049 A 
ATOM      9  C   UNL     1       1.943   1.218  -0.170  0.00  0.00    +0.025 A 
ATOM     10  C   UNL     1       0.659   1.730  -0.243  0.00  0.00    +0.002 A 
ATOM     11  C   UNL     1      -0.429   0.883  -0.344  0.00  0.00    +0.002 A 
ATOM     12  C   UNL     1      -0.246  -0.490  -0.353  0.00  0.00    +0.025 A 
ATOM     13  C   UNL     1       1.036  -1.003  -0.275  0.00  0.00    +0.052 A 
ATOM     14  N   UNL     1       1.288  -2.370  -0.213  0.00  0.00    -0.316 N 
ATOM     15  C   UNL     1       3.779  -3.513  -2.656  0.00  0.00    +0.177 C 
ATOM     16  O   UNL     1       4.850  -3.160  -3.109  0.00  0.00    -0.291 OA
ATOM     17  C   UNL     1       3.175  -4.796  -3.144  0.00  0.00    +0.171 C 
ATOM     18  H   UNL     1       3.974  -0.619   0.569  0.00  0.00    +0.147 HD
ATOM     19  H   UNL     1       0.948  -2.854   0.555  0.00  0.00    +0.152 HD
ENDROOT
BRANCH   6  20
ATOM     20  C   UNL     1       3.825  -0.518  -2.566  0.00  0.00    -0.019 A 
ATOM     21  C   UNL     1       2.601  -0.033  -2.987  0.00  0.00    +0.009 A 
ATOM     22  C   UNL     1       2.527   0.810  -4.081  0.00  0.00    +0.050 A 
ATOM     23  C   UNL     1       3.681   1.161  -4.764  0.00  0.00    +0.161 A 
ATOM     24  C   UNL     1       4.912   0.668  -4.343  0.00  0.00    +0.159 A 
ATOM     25  C   UNL     1       4.980  -0.172  -3.243  0.00  0.00    +0.055 A 
BRANCH  24  26
ATOM     26  O   UNL     1       6.047   1.010  -5.010  0.00  0.00    -0.503 OA
ATOM     27  H   UNL     1       6.276   0.407  -5.731  0.00  0.00    +0.292 HD
ENDBRANCH  24  26
BRANCH  23  28
ATOM     28  O   UNL     1       3.610   1.984  -5.844  0.00  0.00    -0.491 OA
ATOM     29  C   UNL     1       2.312   2.451  -6.219  0.00  0.00    +0.277 C 
ENDBRANCH  23  28
ENDBRANCH   6  20
BRANCH  17  30
ATOM     30  C   UNL     1       3.549  -5.014  -4.588  0.00  0.00    +0.318 C 
ATOM     31  O   UNL     1       2.686  -5.100  -5.429  0.00  0.00    -0.250 OA
BRANCH  30  32
ATOM     32  O   UNL     1       4.840  -5.112  -4.939  0.00  0.00    -0.467 OA
ATOM     33  C   UNL     1       5.127  -5.322  -6.347  0.00  0.00    +0.280 C 
ENDBRANCH  30  32
ENDBRANCH  17  30
TORSDOF 5
