REMARK  Name = ZINC67610699
REMARK  9 active torsions:
REMARK  status: ('A' for Active; 'I' for Inactive)
REMARK    1  A    between atoms: C_1  and  C_2
REMARK    2  A    between atoms: C_4  and  C_7
REMARK    3  A    between atoms: C_7  and  N_8
REMARK    4  A    between atoms: N_11  and  C_12
REMARK    5  A    between atoms: C_12  and  C_13
REMARK    6  A    between atoms: C_13  and  C_15
REMARK    7  A    between atoms: C_13  and  N_23
REMARK    8  A    between atoms: C_20  and  O_21
REMARK    9  A    between atoms: O_21  and  C_22
REMARK                            x       y       z     vdW  Elec       q    Type
REMARK                         _______ _______ _______ _____ _____    ______ ____
ROOT
ATOM      1  C   UNL     1      -3.505  -6.913  -4.652  0.00  0.00    -0.017 C 
ENDROOT
BRANCH   1   2
ATOM      2  N   UNL     1      -3.913  -5.742  -5.439  0.00  0.00    +0.385 N 
ATOM      3  C   UNL     1      -4.105  -6.139  -6.840  0.00  0.00    -0.078 C 
ATOM      4  C   UNL     1      -4.609  -4.942  -7.649  0.00  0.00    -0.019 C 
ATOM      5  C   UNL     1      -3.578  -3.812  -7.573  0.00  0.00    -0.004 C 
ATOM      6  C   UNL     1      -3.331  -3.457  -6.104  0.00  0.00    -0.019 C 
ATOM      7  C   UNL     1      -2.875  -4.709  -5.352  0.00  0.00    -0.078 C 
ATOM      8  H   UNL     1      -4.780  -5.378  -5.074  0.00  0.00    -0.081 HD
ENDBRANCH   1   2
BRANCH   1   9
ATOM      9  C   UNL     1      -4.625  -7.922  -4.633  0.00  0.00    -0.018 A 
ATOM     10  C   UNL     1      -5.916  -7.527  -4.927  0.00  0.00    +0.005 A 
ATOM     11  C   UNL     1      -6.943  -8.451  -4.909  0.00  0.00    +0.000 A 
ATOM     12  C   UNL     1      -6.682  -9.774  -4.599  0.00  0.00    +0.004 A 
ATOM     13  C   UNL     1      -5.393 -10.173  -4.305  0.00  0.00    +0.046 A 
ATOM     14  C   UNL     1      -4.359  -9.248  -4.327  0.00  0.00    +0.122 A 
BRANCH  14  15
ATOM     15  O   UNL     1      -3.089  -9.640  -4.043  0.00  0.00    -0.495 OA
ATOM     16  C   UNL     1      -2.889 -11.021  -3.737  0.00  0.00    +0.277 C 
ENDBRANCH  14  15
ENDBRANCH   1   9
BRANCH   1  17
ATOM     17  C   UNL     1      -3.186  -6.478  -3.220  0.00  0.00    +0.095 C 
BRANCH  17  21
ATOM     18  N   UNL     1      -5.379  -4.714  -0.854  0.00  0.00    -0.294 N 
ATOM     19  C   UNL     1      -4.322  -5.371  -1.370  0.00  0.00    +0.300 C 
ATOM     20  O   UNL     1      -3.355  -5.610  -0.672  0.00  0.00    -0.253 OA
ATOM     21  N   UNL     1      -4.336  -5.764  -2.659  0.00  0.00    -0.301 N 
ATOM     22  H   UNL     1      -6.151  -4.524  -1.410  0.00  0.00    +0.151 HD
ATOM     23  H   UNL     1      -5.107  -5.574  -3.216  0.00  0.00    +0.150 HD
BRANCH  18  24
ATOM     24  C   UNL     1      -5.364  -4.287   0.547  0.00  0.00    +0.164 C 
BRANCH  24  28
ATOM     25  C   UNL     1     -10.117  -3.401   2.153  0.00  0.00    +0.089 C 
ATOM     26  C   UNL     1      -8.736  -3.212   1.579  0.00  0.00    +0.135 A 
ATOM     27  C   UNL     1      -7.795  -4.166   1.448  0.00  0.00    +0.072 A 
ATOM     28  C   UNL     1      -6.654  -3.580   0.871  0.00  0.00    +0.101 A 
ATOM     29  N   UNL     1      -6.908  -2.318   0.666  0.00  0.00    -0.081 NA
ATOM     30  O   UNL     1      -8.230  -2.063   1.105  0.00  0.00    -0.360 OA
ENDBRANCH  24  28
ENDBRANCH  18  24
ENDBRANCH  17  21
ENDBRANCH   1  17
TORSDOF 7
