REMARK  Name = ZINC43730049
REMARK  3 active torsions:
REMARK  status: ('A' for Active; 'I' for Inactive)
REMARK    1  A    between atoms: C_8  and  C_27
REMARK    2  A    between atoms: C_27  and  C_29
REMARK    3  A    between atoms: C_33  and  N_35
REMARK                            x       y       z     vdW  Elec       q    Type
REMARK                         _______ _______ _______ _____ _____    ______ ____
ROOT
ATOM      1  C   UNL     1      -0.077   1.376   0.008  0.00  0.00    +0.000 A 
ATOM      2  C   UNL     1       1.105   2.094   0.014  0.00  0.00    +0.002 A 
ATOM      3  C   UNL     1       2.318   1.438   0.013  0.00  0.00    +0.023 A 
ATOM      4  C   UNL     1       2.362   0.046   0.005  0.00  0.00    +0.038 A 
ATOM      5  C   UNL     1       1.166  -0.666  -0.001  0.00  0.00    -0.011 A 
ATOM      6  C   UNL     1      -0.043  -0.007   0.000  0.00  0.00    +0.006 A 
ATOM      7  C   UNL     1       1.552  -2.119  -0.012  0.00  0.00    +0.085 C 
ATOM      8  C   UNL     1       1.000  -2.832  -1.254  0.00  0.00    +0.066 C 
ATOM      9  C   UNL     1       0.115  -3.969  -0.703  0.00  0.00    -0.055 C 
ATOM     10  C   UNL     1       0.408  -5.262  -1.484  0.00  0.00    -0.016 C 
ATOM     11  C   UNL     1       1.529  -5.973  -0.701  0.00  0.00    -0.020 C 
ATOM     12  C   UNL     1       1.850  -5.037   0.481  0.00  0.00    -0.076 C 
ATOM     13  N   UNL     1       0.608  -4.207   0.688  0.00  0.00    +0.395 N 
ATOM     14  C   UNL     1       0.978  -2.868   1.186  0.00  0.00    +0.060 C 
ATOM     15  C   UNL     1       1.966  -2.960   2.315  0.00  0.00    -0.024 A 
ATOM     16  C   UNL     1       3.232  -3.491   2.423  0.00  0.00    +0.043 A 
ATOM     17  C   UNL     1       3.912  -3.421   3.628  0.00  0.00    +0.124 A 
ATOM     18  C   UNL     1       3.314  -2.816   4.721  0.00  0.00    +0.040 A 
ATOM     19  C   UNL     1       2.046  -2.283   4.615  0.00  0.00    +0.026 A 
ATOM     20  C   UNL     1       1.357  -2.350   3.406  0.00  0.00    +0.036 A 
ATOM     21  N   UNL     1       0.084  -1.892   3.055  0.00  0.00    -0.286 N 
ATOM     22  C   UNL     1      -0.214  -2.157   1.769  0.00  0.00    +0.212 C 
ATOM     23  O   UNL     1      -1.243  -1.877   1.192  0.00  0.00    -0.277 OA
ATOM     24  F   UNL     1       5.154  -3.941   3.737  0.00  0.00    -0.205 F 
ATOM     25  C   UNL     1       3.057  -2.122  -0.005  0.00  0.00    +0.228 C 
ATOM     26  O   UNL     1       3.779  -3.097  -0.008  0.00  0.00    -0.275 OA
ATOM     27  N   UNL     1       3.447  -0.833   0.004  0.00  0.00    -0.285 N 
ATOM     28  H   UNL     1      -0.515  -1.436   3.667  0.00  0.00    +0.155 HD
ATOM     29  H   UNL     1       4.375  -0.549   0.009  0.00  0.00    +0.155 HD
ATOM     30  H   UNL     1      -0.076  -4.668   1.269  0.00  0.00    -0.079 HD
ENDROOT
BRANCH   8  31
ATOM     31  C   UNL     1       0.177  -1.879  -2.082  0.00  0.00    +0.166 C 
ATOM     32  O   UNL     1      -1.026  -1.829  -1.932  0.00  0.00    -0.292 OA
BRANCH  31  33
ATOM     33  C   UNL     1       0.832  -1.009  -3.072  0.00  0.00    +0.020 A 
ATOM     34  C   UNL     1       2.198  -1.148  -3.335  0.00  0.00    +0.011 A 
ATOM     35  C   UNL     1       2.805  -0.329  -4.264  0.00  0.00    +0.003 A 
ATOM     36  C   UNL     1       2.064   0.629  -4.935  0.00  0.00    +0.033 A 
ATOM     37  C   UNL     1       0.712   0.773  -4.680  0.00  0.00    +0.127 A 
ATOM     38  C   UNL     1       0.090  -0.043  -3.759  0.00  0.00    +0.044 A 
BRANCH  37  39
ATOM     39  N   UNL     1      -0.070   1.800  -5.404  0.00  0.00    +0.056 N 
ATOM     40  O   UNL     1       0.473   2.513  -6.215  0.00  0.00    -0.126 OA
ATOM     41  O   UNL     1      -1.252   1.927  -5.182  0.00  0.00    -0.126 OA
ENDBRANCH  37  39
ENDBRANCH  31  33
ENDBRANCH   8  31
TORSDOF 3
