REMARK  Name = ZINC00390247
REMARK  5 active torsions:
REMARK  status: ('A' for Active; 'I' for Inactive)
REMARK    1  A    between atoms: C_9  and  C_24
REMARK    2  A    between atoms: C_10  and  N_23
REMARK    3  A    between atoms: N_11  and  C_14
REMARK    4  A    between atoms: C_14  and  C_15
REMARK    5  A    between atoms: C_15  and  C_16
REMARK                            x       y       z     vdW  Elec       q    Type
REMARK                         _______ _______ _______ _____ _____    ______ ____
ROOT
ATOM      1  C   UNL     1      -0.016   1.356   0.009  0.00  0.00    +0.002 A 
ATOM      2  C   UNL     1       1.170   2.088   0.002  0.00  0.00    +0.002 A 
ATOM      3  C   UNL     1       2.378   1.463  -0.013  0.00  0.00    +0.030 A 
ATOM      4  C   UNL     1       2.439   0.057  -0.021  0.00  0.00    +0.092 A 
ATOM      5  C   UNL     1       1.233  -0.687  -0.013  0.00  0.00    +0.090 A 
ATOM      6  C   UNL     1       0.002  -0.004   0.002  0.00  0.00    +0.030 A 
ATOM      7  N   UNL     1       1.264  -2.025  -0.022  0.00  0.00    -0.241 NA
ATOM      8  C   UNL     1       2.425  -2.648  -0.037  0.00  0.00    +0.128 A 
ATOM      9  C   UNL     1       2.837  -4.061  -0.050  0.00  0.00    +0.118 A 
ATOM     10  C   UNL     1       4.226  -4.068  -0.063  0.00  0.00    +0.118 A 
ATOM     11  N   UNL     1       4.708  -2.793  -0.060  0.00  0.00    -0.311 N 
ATOM     12  C   UNL     1       3.674  -1.881  -0.044  0.00  0.00    +0.163 A 
ATOM     13  N   UNL     1       3.624  -0.566  -0.037  0.00  0.00    -0.226 NA
ENDROOT
BRANCH  10  14
ATOM     14  N   UNL     1       5.003  -5.198  -0.078  0.00  0.00    -0.343 N 
ATOM     15  H   UNL     1       4.586  -6.074  -0.079  0.00  0.00    +0.144 HD
ATOM     16  H   UNL     1       5.971  -5.122  -0.086  0.00  0.00    +0.144 HD
ENDBRANCH  10  14
BRANCH   9  17
ATOM     17  C   UNL     1       1.975  -5.205  -0.049  0.00  0.00    +0.105 C 
ATOM     18  N   UNL     1       1.291  -6.112  -0.048  0.00  0.00    -0.191 NA
ENDBRANCH   9  17
BRANCH  11  19
ATOM     19  C   UNL     1       6.130  -2.441  -0.071  0.00  0.00    +0.130 C 
BRANCH  19  20
ATOM     20  C   UNL     1       6.611  -2.308  -1.517  0.00  0.00    +0.057 C 
BRANCH  20  21
ATOM     21  C   UNL     1       8.074  -1.945  -1.529  0.00  0.00    -0.046 A 
ATOM     22  C   UNL     1       8.456  -0.617  -1.518  0.00  0.00    +0.006 A 
ATOM     23  C   UNL     1       9.797  -0.283  -1.528  0.00  0.00    +0.038 A 
ATOM     24  C   UNL     1      10.758  -1.279  -1.549  0.00  0.00    +0.123 A 
ATOM     25  C   UNL     1      10.374  -2.610  -1.560  0.00  0.00    +0.038 A 
ATOM     26  C   UNL     1       9.032  -2.941  -1.545  0.00  0.00    +0.006 A 
ATOM     27  F   UNL     1      12.069  -0.954  -1.559  0.00  0.00    -0.205 F 
ENDBRANCH  20  21
ENDBRANCH  19  20
ENDBRANCH  11  19
TORSDOF 5
