REMARK  Name = ZINC12279949
REMARK  8 active torsions:
REMARK  status: ('A' for Active; 'I' for Inactive)
REMARK    1  A    between atoms: C_1  and  N_2
REMARK    2  A    between atoms: N_2  and  C_3
REMARK    3  A    between atoms: C_3  and  C_4
REMARK    4  A    between atoms: C_4  and  C_6
REMARK    5  A    between atoms: C_4  and  O_12
REMARK    6  A    between atoms: C_13  and  C_15
REMARK    7  A    between atoms: C_17  and  C_26
REMARK    8  A    between atoms: C_19  and  N_21
REMARK                            x       y       z     vdW  Elec       q    Type
REMARK                         _______ _______ _______ _____ _____    ______ ____
ROOT
ATOM      1  C   UNL     1       1.055  -4.008   1.649  0.00  0.00    +0.039 A 
ATOM      2  C   UNL     1       2.237  -4.707   1.893  0.00  0.00    +0.021 A 
ATOM      3  C   UNL     1       2.243  -6.098   1.841  0.00  0.00    -0.013 A 
ATOM      4  C   UNL     1       1.067  -6.789   1.546  0.00  0.00    +0.036 A 
ATOM      5  C   UNL     1      -0.107  -6.092   1.305  0.00  0.00    +0.070 A 
ATOM      6  C   UNL     1      -0.118  -4.706   1.360  0.00  0.00    +0.041 A 
ENDROOT
BRANCH   3   7
ATOM      7  C   UNL     1       3.496  -6.844   2.100  0.00  0.00    +0.008 A 
ATOM      8  C   UNL     1       4.661  -6.503   1.437  0.00  0.00    +0.010 A 
ATOM      9  C   UNL     1       5.844  -7.193   1.677  0.00  0.00    +0.001 A 
ATOM     10  C   UNL     1       5.886  -8.229   2.561  0.00  0.00    +0.010 A 
ATOM     11  C   UNL     1       4.724  -8.611   3.252  0.00  0.00    +0.001 A 
ATOM     12  C   UNL     1       3.511  -7.916   3.025  0.00  0.00    +0.079 A 
ATOM     13  N   UNL     1       2.405  -8.277   3.678  0.00  0.00    -0.254 NA
ATOM     14  C   UNL     1       2.413  -9.270   4.535  0.00  0.00    +0.111 A 
ATOM     15  C   UNL     1       3.571  -9.995   4.806  0.00  0.00    +0.020 A 
ATOM     16  C   UNL     1       4.738  -9.677   4.171  0.00  0.00    +0.011 A 
ENDBRANCH   3   7
BRANCH   5  17
ATOM     17  N   UNL     1      -1.287  -6.790   1.008  0.00  0.00    -0.200 N 
ATOM     18  C   UNL     1      -2.506  -6.269   0.750  0.00  0.00    +0.250 A 
ATOM     19  N   UNL     1      -3.316  -7.270   0.525  0.00  0.00    -0.116 NA
ATOM     20  N   UNL     1      -2.693  -8.388   0.625  0.00  0.00    -0.023 NA
ATOM     21  N   UNL     1      -1.453  -8.183   0.911  0.00  0.00    -0.039 NA
ENDBRANCH   5  17
BRANCH   1  24
ATOM     22  C   UNL     1       3.228  -2.530   0.621  0.00  0.00    +0.132 C 
ATOM     23  N   UNL     1       2.063  -1.829   1.167  0.00  0.00    -0.298 N 
ATOM     24  C   UNL     1       1.044  -2.531   1.702  0.00  0.00    +0.247 C 
ATOM     25  O   UNL     1       0.116  -1.949   2.228  0.00  0.00    -0.270 OA
BRANCH  23  26
ATOM     26  C   UNL     1       2.005  -0.366   1.131  0.00  0.00    +0.143 C 
BRANCH  26  27
ATOM     27  C   UNL     1       2.624   0.201   2.410  0.00  0.00    +0.162 C 
BRANCH  27  28
ATOM     28  C   UNL     1       2.455   1.698   2.429  0.00  0.00    -0.018 A 
ATOM     29  C   UNL     1       3.317   2.500   1.705  0.00  0.00    +0.006 A 
ATOM     30  C   UNL     1       3.159   3.874   1.719  0.00  0.00    +0.000 A 
ATOM     31  C   UNL     1       2.146   4.445   2.466  0.00  0.00    +0.000 A 
ATOM     32  C   UNL     1       1.288   3.643   3.195  0.00  0.00    +0.000 A 
ATOM     33  C   UNL     1       1.443   2.269   3.177  0.00  0.00    +0.006 A 
ENDBRANCH  27  28
BRANCH  27  34
ATOM     34  O   UNL     1       4.016  -0.122   2.449  0.00  0.00    -0.386 OA
ATOM     35  H   UNL     1       4.523   0.232   1.705  0.00  0.00    +0.210 HD
ENDBRANCH  27  34
ENDBRANCH  26  27
ENDBRANCH  23  26
ENDBRANCH   1  24
TORSDOF 7
