REMARK  Name = ZINC32860154
REMARK  8 active torsions:
REMARK  status: ('A' for Active; 'I' for Inactive)
REMARK    1  A    between atoms: C_1  and  C_2
REMARK    2  A    between atoms: C_15  and  C_17
REMARK    3  A    between atoms: C_17  and  N_18
REMARK    4  A    between atoms: N_18  and  C_19
REMARK    5  A    between atoms: N_18  and  C_20
REMARK    6  A    between atoms: C_20  and  C_22
REMARK    7  A    between atoms: C_20  and  C_23
REMARK    8  A    between atoms: N_25  and  C_26
REMARK                            x       y       z     vdW  Elec       q    Type
REMARK                         _______ _______ _______ _____ _____    ______ ____
ROOT
ATOM      1  C   UNL     1      -2.350   2.799  -0.146  0.00  0.00    +0.020 C 
ENDROOT
BRANCH   1  15
ATOM      2  C   UNL     1      -3.197   6.523  -2.765  0.00  0.00    +0.029 C 
ATOM      3  C   UNL     1      -4.018   5.915  -1.626  0.00  0.00    +0.087 C 
ATOM      4  C   UNL     1      -5.501   5.942  -2.000  0.00  0.00    +0.118 C 
ATOM      5  C   UNL     1      -6.278   5.014  -1.103  0.00  0.00    +0.219 C 
ATOM      6  O   UNL     1      -6.965   5.472  -0.214  0.00  0.00    -0.275 OA
ATOM      7  N   UNL     1      -6.215   3.676  -1.281  0.00  0.00    -0.284 N 
ATOM      8  C   UNL     1      -5.360   3.126  -2.243  0.00  0.00    +0.055 A 
ATOM      9  C   UNL     1      -5.816   2.177  -3.143  0.00  0.00    +0.025 A 
ATOM     10  C   UNL     1      -4.943   1.625  -4.062  0.00  0.00    +0.002 A 
ATOM     11  C   UNL     1      -3.617   2.018  -4.085  0.00  0.00    +0.002 A 
ATOM     12  C   UNL     1      -3.157   2.974  -3.199  0.00  0.00    +0.025 A 
ATOM     13  C   UNL     1      -4.025   3.542  -2.287  0.00  0.00    +0.058 A 
ATOM     14  N   UNL     1      -3.588   4.535  -1.400  0.00  0.00    -0.268 N 
ATOM     15  C   UNL     1      -2.783   4.226  -0.364  0.00  0.00    +0.204 C 
ATOM     16  O   UNL     1      -2.408   5.096   0.393  0.00  0.00    -0.277 OA
ATOM     17  H   UNL     1      -6.840   3.010  -0.668  0.00  0.00    +0.155 HD
ENDBRANCH   1  15
BRANCH   1  18
ATOM     18  N   UNL     1      -1.484   2.726   1.039  0.00  0.00    +0.391 N 
ATOM     19  C   UNL     1      -2.233   3.054   2.259  0.00  0.00    -0.094 C 
ATOM     20  H   UNL     1      -0.686   3.473   0.921  0.00  0.00    -0.080 HD
BRANCH  18  21
ATOM     21  C   UNL     1      -0.852   1.404   1.148  0.00  0.00    +0.017 C 
ATOM     22  C   UNL     1      -1.910   0.316   0.954  0.00  0.00    -0.004 C 
BRANCH  21  23
ATOM     23  C   UNL     1       0.211   1.266   0.089  0.00  0.00    +0.204 C 
ATOM     24  O   UNL     1       0.248   2.047  -0.839  0.00  0.00    -0.277 OA
ATOM     25  N   UNL     1       1.121   0.275   0.172  0.00  0.00    -0.282 N 
ATOM     26  H   UNL     1       1.148  -0.373   1.060  0.00  0.00    +0.155 HD
BRANCH  25  27
ATOM     27  C   UNL     1       2.032   0.071  -0.873  0.00  0.00    +0.105 A 
ATOM     28  C   UNL     1       2.231  -1.206  -1.385  0.00  0.00    +0.147 A 
ATOM     29  C   UNL     1       3.127  -1.403  -2.420  0.00  0.00    +0.040 A 
ATOM     30  C   UNL     1       3.832  -0.333  -2.939  0.00  0.00    +0.006 A 
ATOM     31  C   UNL     1       3.642   0.938  -2.429  0.00  0.00    +0.040 A 
ATOM     32  C   UNL     1       2.743   1.144  -1.397  0.00  0.00    +0.147 A 
ATOM     33  F   UNL     1       2.558   2.386  -0.899  0.00  0.00    -0.203 F 
ATOM     34  F   UNL     1       1.546  -2.253  -0.875  0.00  0.00    -0.203 F 
ENDBRANCH  25  27
ENDBRANCH  21  23
ENDBRANCH  18  21
ENDBRANCH   1  18
TORSDOF 5
