REMARK  Name = ZINC04869356
REMARK  7 active torsions:
REMARK  status: ('A' for Active; 'I' for Inactive)
REMARK    1  A    between atoms: C_10  and  N_12
REMARK    2  A    between atoms: C_13  and  C_15
REMARK    3  A    between atoms: C_15  and  O_16
REMARK    4  A    between atoms: O_16  and  C_17
REMARK    5  A    between atoms: C_17  and  C_19
REMARK    6  A    between atoms: C_22  and  N_28
REMARK    7  A    between atoms: C_23  and  N_25
REMARK                            x       y       z     vdW  Elec       q    Type
REMARK                         _______ _______ _______ _____ _____    ______ ____
ROOT
ATOM      1  C   UNL     1       6.150   1.879  -1.423  0.00  0.00    +0.328 C 
ENDROOT
BRANCH   1   3
ATOM      2  N   UNL     1       4.318   0.278  -0.975  0.00  0.00    -0.306 N 
ATOM      3  C   UNL     1       5.014   1.362  -0.578  0.00  0.00    +0.251 C 
ATOM      4  O   UNL     1       4.725   1.922   0.458  0.00  0.00    -0.272 OA
ATOM      5  H   UNL     1       4.549  -0.170  -1.804  0.00  0.00    +0.149 HD
BRANCH   2  15
ATOM      6  C   UNL     1      -0.288   2.036  -1.114  0.00  0.00    +0.000 A 
ATOM      7  C   UNL     1       0.942   2.655  -0.988  0.00  0.00    +0.000 A 
ATOM      8  C   UNL     1       2.058   1.905  -0.679  0.00  0.00    +0.006 A 
ATOM      9  C   UNL     1       1.956   0.532  -0.496  0.00  0.00    -0.024 A 
ATOM     10  C   UNL     1       0.733  -0.085  -0.626  0.00  0.00    -0.042 A 
ATOM     11  C   UNL     1      -0.390   0.672  -0.933  0.00  0.00    +0.004 A 
ATOM     12  C   UNL     1       0.552  -1.571  -0.457  0.00  0.00    +0.035 C 
ATOM     13  C   UNL     1       1.744  -2.177   0.281  0.00  0.00    +0.007 C 
ATOM     14  C   UNL     1       3.030  -1.718  -0.416  0.00  0.00    +0.027 C 
ATOM     15  C   UNL     1       3.213  -0.224  -0.154  0.00  0.00    +0.104 C 
ENDBRANCH   2  15
ENDBRANCH   1   3
BRANCH   1  16
ATOM     16  O   UNL     1       6.725   3.027  -0.796  0.00  0.00    -0.452 OA
BRANCH  16  17
ATOM     17  C   UNL     1       7.761   3.614  -1.427  0.00  0.00    +0.340 C 
ATOM     18  O   UNL     1       8.164   3.163  -2.481  0.00  0.00    -0.245 OA
BRANCH  17  19
ATOM     19  C   UNL     1       8.404   4.803  -0.840  0.00  0.00    +0.061 A 
ATOM     20  C   UNL     1       7.945   5.319   0.376  0.00  0.00    +0.017 A 
ATOM     21  C   UNL     1       8.542   6.420   0.921  0.00  0.00    +0.026 A 
ATOM     22  C   UNL     1       9.609   7.033   0.269  0.00  0.00    +0.055 A 
ATOM     23  C   UNL     1      10.073   6.526  -0.942  0.00  0.00    +0.147 A 
ATOM     24  C   UNL     1       9.479   5.413  -1.494  0.00  0.00    +0.049 A 
BRANCH  23  25
ATOM     25  N   UNL     1      11.207   7.180  -1.633  0.00  0.00    +0.058 N 
ATOM     26  O   UNL     1      11.217   7.256  -2.840  0.00  0.00    -0.126 OA
ATOM     27  O   UNL     1      12.123   7.638  -0.991  0.00  0.00    -0.126 OA
ENDBRANCH  23  25
BRANCH  22  28
ATOM     28  N   UNL     1      10.212   8.153   0.828  0.00  0.00    -0.356 N 
ATOM     29  H   UNL     1       9.968   8.441   1.722  0.00  0.00    +0.142 HD
ATOM     30  H   UNL     1      10.878   8.648   0.325  0.00  0.00    +0.142 HD
ENDBRANCH  22  28
ENDBRANCH  17  19
ENDBRANCH  16  17
ENDBRANCH   1  16
TORSDOF 7
