REMARK  Name = ZINC40761101
REMARK  6 active torsions:
REMARK  status: ('A' for Active; 'I' for Inactive)
REMARK    1  A    between atoms: C_1  and  C_2
REMARK    2  A    between atoms: C_5  and  S_8
REMARK    3  A    between atoms: S_8  and  N_11
REMARK    4  A    between atoms: N_11  and  N_12
REMARK    5  A    between atoms: C_14  and  N_29
REMARK    6  A    between atoms: C_15  and  N_19
REMARK                            x       y       z     vdW  Elec       q    Type
REMARK                         _______ _______ _______ _____ _____    ______ ____
ROOT
ATOM      1  N   UNL     1       2.500  -4.622   1.014  0.00  0.00    -0.244 N 
ATOM      2  C   UNL     1       3.205  -5.589   1.720  0.00  0.00    +0.159 A 
ATOM      3  C   UNL     1       4.051  -5.225   2.771  0.00  0.00    +0.107 A 
ATOM      4  C   UNL     1       4.735  -6.236   3.446  0.00  0.00    +0.150 A 
ATOM      5  N   UNL     1       4.557  -7.500   3.067  0.00  0.00    -0.219 NA
ATOM      6  C   UNL     1       3.750  -7.800   2.070  0.00  0.00    +0.225 A 
ATOM      7  N   UNL     1       3.081  -6.877   1.409  0.00  0.00    -0.218 NA
ATOM      8  H   UNL     1       2.596  -3.685   1.247  0.00  0.00    +0.169 HD
ENDROOT
BRANCH   4   9
ATOM      9  N   UNL     1       5.590  -5.929   4.500  0.00  0.00    -0.277 N 
ATOM     10  C   UNL     1       6.262  -6.939   5.162  0.00  0.00    +0.165 A 
ATOM     11  N   UNL     1       6.229  -8.233   4.940  0.00  0.00    -0.225 NA
ATOM     12  C   UNL     1       6.946  -9.113   5.673  0.00  0.00    +0.080 A 
ATOM     13  C   UNL     1       6.999 -10.520   5.541  0.00  0.00    +0.029 A 
ATOM     14  C   UNL     1       7.785 -11.272   6.375  0.00  0.00    +0.002 A 
ATOM     15  C   UNL     1       8.551 -10.687   7.372  0.00  0.00    +0.001 A 
ATOM     16  C   UNL     1       8.523  -9.313   7.530  0.00  0.00    +0.017 A 
ATOM     17  C   UNL     1       7.739  -8.552   6.700  0.00  0.00    +0.041 A 
ATOM     18  S   UNL     1       7.404  -6.815   6.531  0.00  0.00    -0.052 S 
ATOM     19  H   UNL     1       5.714  -5.005   4.770  0.00  0.00    +0.156 HD
ENDBRANCH   4   9
BRANCH   3  20
ATOM     20  N   UNL     1       4.208  -3.879   3.136  0.00  0.00    -0.353 N 
ATOM     21  H   UNL     1       3.726  -3.187   2.658  0.00  0.00    +0.143 HD
ATOM     22  H   UNL     1       4.799  -3.641   3.868  0.00  0.00    +0.143 HD
ENDBRANCH   3  20
BRANCH   1  23
ATOM     23  N   UNL     1       1.651  -4.999  -0.034  0.00  0.00    -0.109 NA
ATOM     24  H   UNL     1       1.993  -5.536  -0.767  0.00  0.00    +0.172 HD
BRANCH  23  25
ATOM     25  S   UNL     1       0.063  -4.530  -0.023  0.00  0.00    +0.074 S 
ATOM     26  O   UNL     1      -0.476  -4.950   1.223  0.00  0.00    -0.152 OA
ATOM     27  O   UNL     1      -0.490  -4.937  -1.267  0.00  0.00    -0.152 OA
BRANCH  25  32
ATOM     28  C   UNL     1      -0.018   1.503   0.010  0.00  0.00    +0.044 C 
ATOM     29  C   UNL     1       0.002  -0.004   0.002  0.00  0.00    -0.050 A 
ATOM     30  C   UNL     1       0.006  -0.689  -1.199  0.00  0.00    +0.005 A 
ATOM     31  C   UNL     1       0.025  -2.071  -1.206  0.00  0.00    +0.029 A 
ATOM     32  C   UNL     1       0.040  -2.768  -0.013  0.00  0.00    +0.107 A 
ATOM     33  C   UNL     1       0.037  -2.084   1.188  0.00  0.00    +0.029 A 
ATOM     34  C   UNL     1       0.023  -0.702   1.195  0.00  0.00    +0.005 A 
ENDBRANCH  25  32
ENDBRANCH  23  25
ENDBRANCH   1  23
TORSDOF 5
