REMARK  Name = ZINC17913912
REMARK  6 active torsions:
REMARK  status: ('A' for Active; 'I' for Inactive)
REMARK    1  A    between atoms: C_1  and  C_2
REMARK    2  A    between atoms: N_11  and  C_15
REMARK    3  A    between atoms: C_15  and  C_16
REMARK    4  A    between atoms: N_18  and  C_19
REMARK    5  A    between atoms: C_19  and  C_20
REMARK    6  A    between atoms: N_22  and  C_23
REMARK                            x       y       z     vdW  Elec       q    Type
REMARK                         _______ _______ _______ _____ _____    ______ ____
ROOT
ATOM      1  C   UNL     1       2.904   1.257  -1.441  0.00  0.00    +0.231 C 
ATOM      2  O   UNL     1       2.157   1.540  -2.354  0.00  0.00    -0.274 OA
ATOM      3  N   UNL     1       4.138   0.785  -1.702  0.00  0.00    -0.305 N 
ATOM      4  H   UNL     1       4.736   0.559  -0.972  0.00  0.00    +0.149 HD
ENDROOT
BRANCH   1   5
ATOM      5  C   UNL     1       2.451   1.435  -0.015  0.00  0.00    +0.213 C 
BRANCH   5  15
ATOM      6  C   UNL     1      -0.721   3.281   2.516  0.00  0.00    +0.010 C 
ATOM      7  C   UNL     1      -1.228   4.033   1.284  0.00  0.00    +0.018 C 
ATOM      8  C   UNL     1      -2.759   4.057   1.296  0.00  0.00    +0.006 C 
ATOM      9  C   UNL     1      -3.266   4.790   0.052  0.00  0.00    +0.000 C 
ATOM     10  C   UNL     1      -2.787   4.059  -1.203  0.00  0.00    +0.003 C 
ATOM     11  C   UNL     1      -1.256   4.035  -1.225  0.00  0.00    +0.035 C 
ATOM     12  C   UNL     1      -0.738   3.329   0.023  0.00  0.00    +0.115 C 
ATOM     13  C   UNL     1       0.772   3.271   0.006  0.00  0.00    +0.247 C 
ATOM     14  O   UNL     1       1.543   4.207  -0.002  0.00  0.00    -0.273 OA
ATOM     15  N   UNL     1       1.083   1.958   0.002  0.00  0.00    -0.215 N 
ATOM     16  C   UNL     1      -0.015   1.192   0.013  0.00  0.00    +0.310 C 
ATOM     17  O   UNL     1       0.008  -0.023   0.012  0.00  0.00    -0.252 OA
ATOM     18  N   UNL     1      -1.149   1.920   0.021  0.00  0.00    -0.285 N 
ATOM     19  H   UNL     1      -2.057   1.579   0.025  0.00  0.00    +0.151 HD
ENDBRANCH   5  15
ENDBRANCH   1   5
BRANCH   3  20
ATOM     20  C   UNL     1       4.578   0.612  -3.089  0.00  0.00    +0.200 C 
BRANCH  20  21
ATOM     21  C   UNL     1       5.986   0.074  -3.106  0.00  0.00    +0.234 C 
ATOM     22  O   UNL     1       6.565  -0.143  -2.062  0.00  0.00    -0.274 OA
ATOM     23  N   UNL     1       6.602  -0.165  -4.281  0.00  0.00    -0.284 N 
ATOM     24  H   UNL     1       6.117  -0.056  -5.114  0.00  0.00    +0.155 HD
BRANCH  23  25
ATOM     25  C   UNL     1       7.942  -0.573  -4.299  0.00  0.00    +0.036 A 
ATOM     26  C   UNL     1       8.781  -0.155  -5.323  0.00  0.00    +0.026 A 
ATOM     27  C   UNL     1      10.104  -0.553  -5.337  0.00  0.00    +0.043 A 
ATOM     28  C   UNL     1      10.591  -1.376  -4.337  0.00  0.00    +0.159 A 
ATOM     29  C   UNL     1       9.754  -1.799  -3.316  0.00  0.00    +0.160 A 
ATOM     30  C   UNL     1       8.430  -1.399  -3.296  0.00  0.00    +0.064 A 
ATOM     31  F   UNL     1      10.231  -2.603  -2.340  0.00  0.00    -0.202 F 
ATOM     32  F   UNL     1      11.884  -1.768  -4.355  0.00  0.00    -0.202 F 
ENDBRANCH  23  25
ENDBRANCH  20  21
ENDBRANCH   3  20
TORSDOF 5
