REMARK  Name = ZINC43221954
REMARK  11 active torsions:
REMARK  status: ('A' for Active; 'I' for Inactive)
REMARK    1  A    between atoms: C_1  and  C_2
REMARK    2  A    between atoms: C_2  and  C_3
REMARK    3  A    between atoms: C_3  and  C_5
REMARK    4  A    between atoms: C_3  and  C_6
REMARK    5  A    between atoms: C_6  and  C_35
REMARK    6  A    between atoms: C_11  and  C_14
REMARK    7  A    between atoms: C_16  and  C_22
REMARK    8  A    between atoms: C_17  and  O_21
REMARK    9  A    between atoms: C_18  and  C_20
REMARK   10  A    between atoms: N_25  and  C_28
REMARK   11  A    between atoms: C_33  and  C_34
REMARK                            x       y       z     vdW  Elec       q    Type
REMARK                         _______ _______ _______ _____ _____    ______ ____
ROOT
ATOM      1  C   UNL     1      -1.413  -2.059   0.130  0.00  0.00    +0.051 C 
ATOM      2  C   UNL     1      -2.833  -2.618   0.141  0.00  0.00    +0.086 C 
ATOM      3  C   UNL     1      -2.482  -4.031   0.742  0.00  0.00    +0.077 C 
ATOM      4  C   UNL     1      -1.631  -3.712   1.894  0.00  0.00    -0.027 C 
ATOM      5  N   UNL     1      -0.873  -2.481   1.464  0.00  0.00    +0.396 N 
ATOM      6  C   UNL     1      -3.662  -4.796   0.415  0.00  0.00    +0.229 C 
ATOM      7  O   UNL     1      -4.164  -5.691   1.061  0.00  0.00    -0.275 OA
ATOM      8  N   UNL     1      -4.092  -4.289  -0.786  0.00  0.00    -0.210 N 
ATOM      9  C   UNL     1      -3.483  -3.096  -1.118  0.00  0.00    +0.229 C 
ATOM     10  O   UNL     1      -3.470  -2.549  -2.200  0.00  0.00    -0.275 OA
ATOM     11  H   UNL     1       0.112  -2.687   1.384  0.00  0.00    -0.083 HD
ATOM     12  H   UNL     1      -1.017  -1.746   2.140  0.00  0.00    -0.083 HD
ENDROOT
BRANCH   4  13
ATOM     13  C   UNL     1      -2.475  -3.440   3.112  0.00  0.00    -0.060 A 
ATOM     14  C   UNL     1      -3.082  -2.208   3.270  0.00  0.00    +0.009 A 
ATOM     15  C   UNL     1      -3.856  -1.956   4.386  0.00  0.00    -0.009 A 
ATOM     16  C   UNL     1      -4.025  -2.941   5.349  0.00  0.00    +0.123 A 
ATOM     17  C   UNL     1      -3.416  -4.177   5.187  0.00  0.00    -0.009 A 
ATOM     18  C   UNL     1      -2.647  -4.425   4.067  0.00  0.00    +0.009 A 
ATOM     19  C   UNL     1      -3.598  -5.249   6.231  0.00  0.00    +0.047 C 
ATOM     20  C   UNL     1      -4.516  -0.612   4.559  0.00  0.00    +0.047 C 
BRANCH  16  21
ATOM     21  O   UNL     1      -4.786  -2.695   6.447  0.00  0.00    -0.506 OA
ATOM     22  H   UNL     1      -5.720  -2.920   6.337  0.00  0.00    +0.292 HD
ENDBRANCH  16  21
ENDBRANCH   4  13
BRANCH   8  23
ATOM     23  C   UNL     1      -5.058  -4.911  -1.589  0.00  0.00    +0.047 A 
ATOM     24  C   UNL     1      -6.402  -4.603  -1.424  0.00  0.00    +0.024 A 
ATOM     25  C   UNL     1      -7.352  -5.217  -2.217  0.00  0.00    +0.002 A 
ATOM     26  C   UNL     1      -6.965  -6.138  -3.174  0.00  0.00    +0.000 A 
ATOM     27  C   UNL     1      -5.628  -6.446  -3.341  0.00  0.00    +0.005 A 
ATOM     28  C   UNL     1      -4.673  -5.831  -2.555  0.00  0.00    -0.029 A 
ATOM     29  C   UNL     1      -3.215  -6.163  -2.741  0.00  0.00    +0.045 C 
ENDBRANCH   8  23
BRANCH   1  30
ATOM     30  C   UNL     1      -0.606  -2.667  -0.988  0.00  0.00    +0.347 C 
ATOM     31  O   UNL     1       0.382  -3.335  -0.734  0.00  0.00    -0.248 OA
ATOM     32  O   UNL     1      -0.941  -2.490  -2.147  0.00  0.00    -0.248 OA
ENDBRANCH   1  30
BRANCH   1  33
ATOM     33  C   UNL     1      -1.433  -0.534   0.013  0.00  0.00    -0.014 C 
ATOM     34  C   UNL     1      -2.135  -0.131  -1.286  0.00  0.00    +0.006 C 
BRANCH  33  36
ATOM     35  C   UNL     1      -0.019   1.526   0.010  0.00  0.00    +0.004 C 
ATOM     36  C   UNL     1       0.002  -0.004   0.002  0.00  0.00    -0.001 C 
ENDBRANCH  33  36
ENDBRANCH   1  33
TORSDOF 6
