REMARK  Name = ZINC32655192
REMARK  7 active torsions:
REMARK  status: ('A' for Active; 'I' for Inactive)
REMARK    1  A    between atoms: C_1  and  C_2
REMARK    2  A    between atoms: C_2  and  C_37
REMARK    3  A    between atoms: C_6  and  C_25
REMARK    4  A    between atoms: C_12  and  S_16
REMARK    5  A    between atoms: S_16  and  C_17
REMARK    6  A    between atoms: C_17  and  C_18
REMARK    7  A    between atoms: C_28  and  N_31
REMARK                            x       y       z     vdW  Elec       q    Type
REMARK                         _______ _______ _______ _____ _____    ______ ____
ROOT
ATOM      1  C   UNL     1      -0.019   1.526   0.010  0.00  0.00    +0.011 C 
ATOM      2  C   UNL     1       0.002  -0.004   0.002  0.00  0.00    -0.023 C 
ATOM      3  C   UNL     1       0.740  -0.502  -1.242  0.00  0.00    +0.058 C 
ATOM      4  C   UNL     1       2.168  -0.013  -1.215  0.00  0.00    +0.017 C 
ATOM      5  C   UNL     1       2.816   0.178  -0.046  0.00  0.00    +0.024 C 
ATOM      6  C   UNL     1       4.246   0.652  -0.009  0.00  0.00    +0.092 C 
ATOM      7  C   UNL     1       4.655   1.261  -1.315  0.00  0.00    +0.071 A 
ATOM      8  C   UNL     1       5.782   2.070  -1.399  0.00  0.00    +0.280 A 
ATOM      9  O   UNL     1       6.532   2.323  -0.299  0.00  0.00    -0.265 OA
ATOM     10  N   UNL     1       6.115   2.590  -2.577  0.00  0.00    -0.183 NA
ATOM     11  C   UNL     1       5.388   2.347  -3.658  0.00  0.00    +0.194 A 
ATOM     12  N   UNL     1       4.306   1.581  -3.614  0.00  0.00    -0.206 NA
ATOM     13  C   UNL     1       3.916   1.030  -2.468  0.00  0.00    +0.135 A 
ATOM     14  N   UNL     1       2.785   0.234  -2.411  0.00  0.00    -0.302 N 
ATOM     15  C   UNL     1       2.173  -0.058   1.182  0.00  0.00    +0.162 C 
ATOM     16  O   UNL     1       2.786   0.114   2.217  0.00  0.00    -0.292 OA
ATOM     17  C   UNL     1       0.742  -0.517   1.242  0.00  0.00    +0.086 C 
ATOM     18  C   UNL     1      -1.431  -0.539   0.000  0.00  0.00    +0.011 C 
ATOM     19  H   UNL     1       2.427  -0.153  -3.225  0.00  0.00    +0.153 HD
ENDROOT
BRANCH   6  20
ATOM     20  C   UNL     1       5.146  -0.520   0.290  0.00  0.00    -0.035 A 
ATOM     21  C   UNL     1       5.175  -1.605  -0.566  0.00  0.00    +0.007 A 
ATOM     22  C   UNL     1       6.000  -2.679  -0.293  0.00  0.00    +0.033 A 
ATOM     23  C   UNL     1       6.797  -2.669   0.837  0.00  0.00    +0.126 A 
ATOM     24  C   UNL     1       6.769  -1.584   1.692  0.00  0.00    +0.033 A 
ATOM     25  C   UNL     1       5.947  -0.507   1.417  0.00  0.00    +0.007 A 
BRANCH  23  26
ATOM     26  N   UNL     1       7.680  -3.820   1.130  0.00  0.00    +0.056 N 
ATOM     27  O   UNL     1       7.705  -4.769   0.382  0.00  0.00    -0.126 OA
ATOM     28  O   UNL     1       8.377  -3.811   2.118  0.00  0.00    -0.126 OA
ENDBRANCH  23  26
ENDBRANCH   6  20
BRANCH  11  29
ATOM     29  S   UNL     1       5.872   3.059  -5.195  0.00  0.00    -0.081 S 
BRANCH  29  30
ATOM     30  C   UNL     1       7.367   4.003  -4.790  0.00  0.00    +0.114 C 
BRANCH  30  31
ATOM     31  C   UNL     1       7.891   4.672  -6.035  0.00  0.00    -0.019 A 
ATOM     32  C   UNL     1       8.798   4.014  -6.843  0.00  0.00    +0.006 A 
ATOM     33  C   UNL     1       9.279   4.628  -7.985  0.00  0.00    +0.000 A 
ATOM     34  C   UNL     1       8.853   5.900  -8.318  0.00  0.00    +0.001 A 
ATOM     35  C   UNL     1       7.946   6.559  -7.510  0.00  0.00    +0.020 A 
ATOM     36  C   UNL     1       7.460   5.943  -6.371  0.00  0.00    +0.045 A 
ATOM     37 CL   UNL     1       6.315   6.768  -5.359  0.00  0.00    -0.083 Cl
ENDBRANCH  30  31
ENDBRANCH  29  30
ENDBRANCH  11  29
TORSDOF 5
