REMARK  Name = ZINC04721650
REMARK  7 active torsions:
REMARK  status: ('A' for Active; 'I' for Inactive)
REMARK    1  A    between atoms: C_1  and  C_2
REMARK    2  A    between atoms: C_2  and  C_3
REMARK    3  A    between atoms: C_2  and  C_4
REMARK    4  A    between atoms: C_2  and  C_5
REMARK    5  A    between atoms: C_12  and  N_25
REMARK    6  A    between atoms: C_13  and  C_23
REMARK    7  A    between atoms: C_14  and  C_16
REMARK                            x       y       z     vdW  Elec       q    Type
REMARK                         _______ _______ _______ _____ _____    ______ ____
ROOT
ATOM      1  C   UNL     1       0.685  -0.810  -2.058  0.00  0.00    +0.076 A 
ATOM      2  C   UNL     1       0.907  -2.181  -2.084  0.00  0.00    +0.050 A 
ATOM      3  C   UNL     1       1.532  -2.486  -3.261  0.00  0.00    +0.222 A 
ATOM      4  N   UNL     1       1.693  -1.341  -3.944  0.00  0.00    -0.246 N 
ATOM      5  H   UNL     1       2.107  -1.250  -4.816  0.00  0.00    +0.192 HD
ATOM      6  N   UNL     1       1.150  -0.301  -3.174  0.00  0.00    -0.175 NA
ATOM      7  O   UNL     1       1.892  -3.751  -3.592  0.00  0.00    -0.423 OA
ATOM      8  C   UNL     1       1.868  -4.683  -2.618  0.00  0.00    +0.200 C 
ATOM      9  C   UNL     1       1.270  -4.502  -1.419  0.00  0.00    +0.098 C 
ATOM     10  C   UNL     1       0.557  -3.224  -1.055  0.00  0.00    +0.101 C 
ENDROOT
BRANCH  10  11
ATOM     11  C   UNL     1      -0.932  -3.455  -1.050  0.00  0.00    -0.034 A 
ATOM     12  C   UNL     1      -1.602  -3.669  -2.240  0.00  0.00    +0.007 A 
ATOM     13  C   UNL     1      -2.967  -3.881  -2.236  0.00  0.00    +0.038 A 
ATOM     14  C   UNL     1      -3.665  -3.879  -1.040  0.00  0.00    +0.123 A 
ATOM     15  C   UNL     1      -2.993  -3.664   0.151  0.00  0.00    +0.038 A 
ATOM     16  C   UNL     1      -1.626  -3.458   0.146  0.00  0.00    +0.007 A 
ATOM     17  F   UNL     1      -5.000  -4.086  -1.036  0.00  0.00    -0.205 F 
ENDBRANCH  10  11
BRANCH   1  19
ATOM     18  C   UNL     1      -1.465  -0.404  -0.892  0.00  0.00    +0.017 C 
ATOM     19  C   UNL     1       0.020  -0.043  -0.944  0.00  0.00    +0.007 C 
ATOM     20  C   UNL     1       0.172   1.458  -1.198  0.00  0.00    +0.017 C 
ATOM     21  C   UNL     1       0.680  -0.404   0.388  0.00  0.00    +0.017 C 
ENDBRANCH   1  19
BRANCH   8  22
ATOM     22  N   UNL     1       2.487  -5.884  -2.857  0.00  0.00    -0.328 N 
ATOM     23  H   UNL     1       2.925  -6.043  -3.708  0.00  0.00    +0.145 HD
ATOM     24  H   UNL     1       2.487  -6.574  -2.175  0.00  0.00    +0.145 HD
ENDBRANCH   8  22
BRANCH   9  25
ATOM     25  C   UNL     1       1.315  -5.564  -0.460  0.00  0.00    +0.101 C 
ATOM     26  N   UNL     1       1.351  -6.407   0.301  0.00  0.00    -0.191 NA
ENDBRANCH   9  25
TORSDOF 4
