REMARK  Name = ZINC26556916
REMARK  8 active torsions:
REMARK  status: ('A' for Active; 'I' for Inactive)
REMARK    1  A    between atoms: C_1  and  C_2
REMARK    2  A    between atoms: C_5  and  N_8
REMARK    3  A    between atoms: C_12  and  C_14
REMARK    4  A    between atoms: C_14  and  C_16
REMARK    5  A    between atoms: C_14  and  S_17
REMARK    6  A    between atoms: S_17  and  C_18
REMARK    7  A    between atoms: C_20  and  C_25
REMARK    8  A    between atoms: C_22  and  N_24
REMARK                            x       y       z     vdW  Elec       q    Type
REMARK                         _______ _______ _______ _____ _____    ______ ____
ROOT
ATOM      1  N   UNL     1       1.237  -2.080  -0.020  0.00  0.00    -0.269 N 
ATOM      2  C   UNL     1       2.410  -2.734  -0.137  0.00  0.00    +0.310 C 
ATOM      3  O   UNL     1       3.454  -2.113  -0.144  0.00  0.00    -0.252 OA
ATOM      4  N   UNL     1       2.424  -4.077  -0.245  0.00  0.00    -0.239 N 
ATOM      5  C   UNL     1       3.596  -4.732  -0.362  0.00  0.00    +0.234 C 
ATOM      6  O   UNL     1       4.638  -4.113  -0.369  0.00  0.00    -0.274 OA
ATOM      7  H   UNL     1       0.298  -2.645   0.074  0.00  0.00    +0.156 HD
ATOM      8  H   UNL     1       1.478  -4.640  -0.239  0.00  0.00    +0.159 HD
ENDROOT
BRANCH   1  13
ATOM      9  C   UNL     1       1.143   3.593  -0.019  0.00  0.00    +0.044 C 
ATOM     10  C   UNL     1       1.168   2.086  -0.019  0.00  0.00    -0.050 A 
ATOM     11  C   UNL     1       2.111   1.412  -0.773  0.00  0.00    +0.005 A 
ATOM     12  C   UNL     1       2.137   0.031  -0.775  0.00  0.00    +0.023 A 
ATOM     13  C   UNL     1       1.214  -0.680  -0.020  0.00  0.00    +0.035 A 
ATOM     14  C   UNL     1       0.268  -0.001   0.736  0.00  0.00    +0.023 A 
ATOM     15  C   UNL     1       0.248   1.381   0.734  0.00  0.00    +0.005 A 
ENDBRANCH   1  13
BRANCH   5  16
ATOM     16  C   UNL     1       3.611  -6.234  -0.483  0.00  0.00    +0.137 C 
ATOM     17  C   UNL     1       3.444  -6.859   0.903  0.00  0.00    +0.029 C 
BRANCH  16  18
ATOM     18  S   UNL     1       5.187  -6.766  -1.198  0.00  0.00    -0.073 S 
BRANCH  18  19
ATOM     19  C   UNL     1       4.881  -8.493  -1.364  0.00  0.00    +0.191 A 
ATOM     20  N   UNL     1       5.827  -9.271  -1.869  0.00  0.00    -0.227 NA
ATOM     21  C   UNL     1       5.634 -10.574  -2.009  0.00  0.00    +0.044 A 
ATOM     22  C   UNL     1       4.428 -11.124  -1.621  0.00  0.00    +0.066 A 
ATOM     23  C   UNL     1       3.450 -10.280  -1.092  0.00  0.00    +0.121 A 
ATOM     24  N   UNL     1       3.713  -8.982  -0.975  0.00  0.00    -0.207 NA
ATOM     25  C   UNL     1       6.718 -11.447  -2.586  0.00  0.00    +0.066 C 
BRANCH  23  26
ATOM     26  N   UNL     1       2.225 -10.788  -0.689  0.00  0.00    -0.343 N 
ATOM     27  H   UNL     1       1.460 -10.115  -0.273  0.00  0.00    +0.144 HD
ATOM     28  H   UNL     1       2.017 -11.864  -0.786  0.00  0.00    +0.144 HD
ENDBRANCH  23  26
ENDBRANCH  18  19
ENDBRANCH  16  18
ENDBRANCH   5  16
TORSDOF 5
