REMARK  Name = ZINC40367063
REMARK  6 active torsions:
REMARK  status: ('A' for Active; 'I' for Inactive)
REMARK    1  A    between atoms: C_1  and  N_2
REMARK    2  A    between atoms: N_2  and  C_3
REMARK    3  A    between atoms: N_2  and  S_4
REMARK    4  A    between atoms: S_4  and  N_7
REMARK    5  A    between atoms: N_7  and  C_8
REMARK    6  A    between atoms: C_8  and  C_16
REMARK                            x       y       z     vdW  Elec       q    Type
REMARK                         _______ _______ _______ _____ _____    ______ ____
ROOT
ATOM      1  C   UNL     1       2.461  -1.575  -0.934  0.00  0.00    +0.127 C 
ATOM      2  C   UNL     1       2.333  -0.938   0.445  0.00  0.00    +0.039 C 
ATOM      3  C   UNL     1       3.294  -1.527   1.488  0.00  0.00    +0.003 C 
ATOM      4  C   UNL     1       4.693  -0.939   1.213  0.00  0.00    +0.000 C 
ATOM      5  C   UNL     1       5.665  -2.093   0.871  0.00  0.00    +0.000 C 
ATOM      6  C   UNL     1       4.958  -3.096  -0.056  0.00  0.00    +0.000 C 
ATOM      7  C   UNL     1       4.797  -2.514  -1.457  0.00  0.00    +0.003 C 
ATOM      8  C   UNL     1       3.833  -1.352  -1.540  0.00  0.00    +0.039 C 
ENDROOT
BRANCH   1   9
ATOM      9  N   UNL     1       1.490  -0.860  -1.812  0.00  0.00    -0.160 NA
ATOM     10  H   UNL     1       1.812  -0.281  -2.520  0.00  0.00    +0.151 HD
BRANCH   9  11
ATOM     11  S   UNL     1      -0.137  -1.055  -1.577  0.00  0.00    +0.098 S 
ATOM     12  O   UNL     1      -0.767   0.092  -2.130  0.00  0.00    -0.141 OA
ATOM     13  O   UNL     1      -0.309  -1.439  -0.220  0.00  0.00    -0.141 OA
BRANCH  11  15
ATOM     14  C   UNL     1      -0.769  -3.667  -1.883  0.00  0.00    +0.132 C 
ATOM     15  N   UNL     1      -0.614  -2.346  -2.498  0.00  0.00    -0.173 NA
ATOM     16  C   UNL     1      -0.879  -2.168  -3.927  0.00  0.00    +0.132 C 
ENDBRANCH  11  15
ENDBRANCH   9  11
ENDBRANCH   1   9
BRANCH   1  17
ATOM     17  C   UNL     1       2.041  -2.978  -0.931  0.00  0.00    +0.086 C 
ATOM     18  N   UNL     1       1.715  -4.066  -0.928  0.00  0.00    -0.195 NA
ENDBRANCH   1  17
TORSDOF 4
