REMARK  Name = ZINC13141768
REMARK  7 active torsions:
REMARK  status: ('A' for Active; 'I' for Inactive)
REMARK    1  A    between atoms: C_1  and  N_2
REMARK    2  A    between atoms: C_3  and  C_4
REMARK    3  A    between atoms: C_3  and  O_32
REMARK    4  A    between atoms: C_4  and  O_5
REMARK    5  A    between atoms: O_5  and  C_6
REMARK    6  A    between atoms: C_6  and  C_8
REMARK    7  A    between atoms: C_22  and  C_23
REMARK                            x       y       z     vdW  Elec       q    Type
REMARK                         _______ _______ _______ _____ _____    ______ ____
ROOT
ATOM      1  C   UNL     1      -0.881  -6.400   1.346  0.00  0.00    +0.073 A 
ATOM      2  C   UNL     1      -2.270  -6.837   1.488  0.00  0.00    +0.015 A 
ATOM      3  C   UNL     1      -3.066  -7.120   0.374  0.00  0.00    +0.011 A 
ATOM      4  C   UNL     1      -4.356  -7.526   0.553  0.00  0.00    +0.001 A 
ATOM      5  C   UNL     1      -4.890  -7.662   1.832  0.00  0.00    +0.002 A 
ATOM      6  C   UNL     1      -4.144  -7.394   2.938  0.00  0.00    +0.028 A 
ATOM      7  C   UNL     1      -2.808  -6.973   2.793  0.00  0.00    +0.072 A 
ATOM      8  N   UNL     1      -2.052  -6.703   3.856  0.00  0.00    -0.247 NA
ATOM      9  C   UNL     1      -0.794  -6.306   3.754  0.00  0.00    +0.072 A 
ATOM     10  C   UNL     1      -0.162  -6.150   2.508  0.00  0.00    -0.007 A 
ATOM     11  C   UNL     1       1.274  -5.720   2.393  0.00  0.00    +0.038 C 
ATOM     12  C   UNL     1       1.733  -4.981   3.648  0.00  0.00    +0.009 C 
ATOM     13  C   UNL     1       1.465  -5.858   4.878  0.00  0.00    +0.037 C 
ATOM     14  C   UNL     1      -0.037  -6.023   4.994  0.00  0.00    -0.021 C 
ATOM     15  C   UNL     1      -0.659  -5.931   6.183  0.00  0.00    +0.013 C 
ENDROOT
BRANCH  15  16
ATOM     16  C   UNL     1      -2.129  -5.874   6.242  0.00  0.00    -0.021 A 
ATOM     17  C   UNL     1      -2.836  -5.060   5.351  0.00  0.00    +0.012 A 
ATOM     18  C   UNL     1      -4.212  -5.009   5.408  0.00  0.00    +0.050 A 
ATOM     19  C   UNL     1      -4.901  -5.762   6.348  0.00  0.00    +0.166 A 
ATOM     20  C   UNL     1      -4.203  -6.576   7.241  0.00  0.00    +0.167 A 
ATOM     21  C   UNL     1      -2.824  -6.637   7.186  0.00  0.00    +0.057 A 
ATOM     22  O   UNL     1      -5.103  -7.203   8.053  0.00  0.00    -0.453 OA
ATOM     23  C   UNL     1      -6.326  -6.456   7.921  0.00  0.00    +0.466 C 
ATOM     24  O   UNL     1      -6.236  -5.882   6.604  0.00  0.00    -0.453 OA
ENDBRANCH  15  16
BRANCH   1  25
ATOM     25  C   UNL     1      -0.263  -6.237   0.013  0.00  0.00    +0.341 C 
ATOM     26  O   UNL     1       0.305  -7.174  -0.512  0.00  0.00    -0.245 OA
BRANCH  25  27
ATOM     27  O   UNL     1      -0.328  -5.049  -0.619  0.00  0.00    -0.452 OA
BRANCH  27  28
ATOM     28  C   UNL     1       0.291  -4.963  -1.904  0.00  0.00    +0.327 C 
BRANCH  28  31
ATOM     29  C   UNL     1      -0.686  -1.327  -2.300  0.00  0.00    +0.174 C 
ATOM     30  N   UNL     1      -0.517  -2.681  -1.766  0.00  0.00    -0.255 NA
ATOM     31  C   UNL     1       0.117  -3.571  -2.453  0.00  0.00    +0.221 C 
BRANCH  31  32
ATOM     32  O   UNL     1       0.624  -3.254  -3.663  0.00  0.00    -0.493 OA
ATOM     33  H   UNL     1       1.081  -3.985  -4.101  0.00  0.00    +0.294 HD
ENDBRANCH  31  32
ENDBRANCH  28  31
ENDBRANCH  27  28
ENDBRANCH  25  27
ENDBRANCH   1  25
TORSDOF 6
