REMARK  Name = ZINC54621926
REMARK  7 active torsions:
REMARK  status: ('A' for Active; 'I' for Inactive)
REMARK    1  A    between atoms: C_1  and  C_2
REMARK    2  A    between atoms: C_6  and  N_8
REMARK    3  A    between atoms: N_8  and  C_9
REMARK    4  A    between atoms: C_9  and  C_11
REMARK    5  A    between atoms: C_9  and  C_23
REMARK    6  A    between atoms: C_17  and  C_22
REMARK    7  A    between atoms: C_20  and  O_21
REMARK                            x       y       z     vdW  Elec       q    Type
REMARK                         _______ _______ _______ _____ _____    ______ ____
ROOT
ATOM      1  C   UNL     1       0.069  -4.101   2.466  0.00  0.00    +0.172 C 
ENDROOT
BRANCH   1   2
ATOM      2  C   UNL     1       0.791  -4.550   3.710  0.00  0.00    +0.024 A 
ATOM      3  C   UNL     1       0.758  -3.748   4.848  0.00  0.00    +0.010 A 
ATOM      4  C   UNL     1       1.401  -4.125   5.988  0.00  0.00    +0.010 A 
ATOM      5  C   UNL     1       2.106  -5.339   6.021  0.00  0.00    +0.004 A 
ATOM      6  C   UNL     1       2.782  -5.763   7.181  0.00  0.00    +0.012 A 
ATOM      7  C   UNL     1       3.447  -6.955   7.141  0.00  0.00    +0.023 A 
ATOM      8  C   UNL     1       3.444  -7.713   5.972  0.00  0.00    +0.039 A 
ATOM      9  N   UNL     1       2.813  -7.315   4.894  0.00  0.00    -0.248 NA
ATOM     10  C   UNL     1       2.143  -6.159   4.867  0.00  0.00    +0.113 A 
ATOM     11  C   UNL     1       1.462  -5.739   3.706  0.00  0.00    +0.148 A 
ATOM     12  C   UNL     1       4.184  -9.025   5.947  0.00  0.00    +0.065 C 
BRANCH  11  13
ATOM     13  O   UNL     1       1.478  -6.510   2.588  0.00  0.00    -0.504 OA
ATOM     14  H   UNL     1       2.213  -6.320   1.989  0.00  0.00    +0.292 HD
ENDBRANCH  11  13
ENDBRANCH   1   2
BRANCH   1  15
ATOM     15  C   UNL     1      -1.326  -4.672   2.460  0.00  0.00    +0.130 A 
ATOM     16  C   UNL     1      -1.729  -5.757   1.775  0.00  0.00    +0.047 A 
ATOM     17  C   UNL     1      -3.103  -5.933   2.058  0.00  0.00    +0.041 A 
ATOM     18  C   UNL     1      -3.458  -4.945   2.899  0.00  0.00    +0.195 A 
ATOM     19  O   UNL     1      -2.376  -4.188   3.144  0.00  0.00    -0.466 OA
ENDBRANCH   1  15
BRANCH   1  20
ATOM     20  N   UNL     1      -0.003  -2.638   2.443  0.00  0.00    -0.317 N 
ATOM     21  H   UNL     1       0.050  -2.137   3.273  0.00  0.00    +0.148 HD
BRANCH  20  27
ATOM     22  C   UNL     1      -0.417   1.535   0.135  0.00  0.00    +0.063 C 
ATOM     23  C   UNL     1      -0.349   0.030   0.096  0.00  0.00    +0.014 A 
ATOM     24  C   UNL     1      -0.430  -0.624  -1.117  0.00  0.00    +0.021 A 
ATOM     25  C   UNL     1      -0.367  -2.011  -1.147  0.00  0.00    +0.005 A 
ATOM     26  C   UNL     1      -0.223  -2.691   0.049  0.00  0.00    +0.041 A 
ATOM     27  C   UNL     1      -0.147  -1.967   1.234  0.00  0.00    +0.097 A 
ATOM     28  N   UNL     1      -0.206  -0.644   1.221  0.00  0.00    -0.347 N 
ATOM     29  H   UNL     1      -0.147  -0.159   2.059  0.00  0.00    +0.167 HD
ENDBRANCH  20  27
ENDBRANCH   1  20
TORSDOF 5
