REMARK  Name = ZINC39534209
REMARK  11 active torsions:
REMARK  status: ('A' for Active; 'I' for Inactive)
REMARK    1  A    between atoms: C_1  and  C_2
REMARK    2  A    between atoms: C_2  and  C_3
REMARK    3  A    between atoms: C_2  and  S_4
REMARK    4  A    between atoms: S_4  and  C_7
REMARK    5  A    between atoms: N_10  and  C_14
REMARK    6  A    between atoms: C_14  and  C_16
REMARK    7  A    between atoms: C_14  and  C_19
REMARK    8  A    between atoms: C_16  and  N_17
REMARK    9  A    between atoms: N_17  and  O_18
REMARK   10  A    between atoms: C_22  and  C_25
REMARK   11  A    between atoms: C_30  and  O_31
REMARK                            x       y       z     vdW  Elec       q    Type
REMARK                         _______ _______ _______ _____ _____    ______ ____
ROOT
ATOM      1  C   UNL     1       5.560  -0.014  -3.526  0.00  0.00    +0.103 C 
ENDROOT
BRANCH   1   4
ATOM      2  C   UNL     1       2.650   0.526  -1.197  0.00  0.00    +0.212 C 
ATOM      3  C   UNL     1       3.416  -0.028  -2.400  0.00  0.00    +0.127 C 
ATOM      4  N   UNL     1       4.810   0.435  -2.346  0.00  0.00    -0.290 NA
ATOM      5  C   UNL     1       5.462  -0.010  -1.106  0.00  0.00    +0.100 C 
ATOM      6  C   UNL     1       4.696   0.544   0.097  0.00  0.00    +0.098 C 
ATOM      7  N   UNL     1       3.302   0.081   0.043  0.00  0.00    -0.293 NA
ATOM      8  H   UNL     1       2.786   0.390   0.854  0.00  0.00    +0.124 HD
BRANCH   2   9
ATOM      9  S   UNL     1       0.942  -0.083  -1.234  0.00  0.00    -0.012 S 
ATOM     10  O   UNL     1       0.963  -1.493  -1.057  0.00  0.00    -0.173 OA
ATOM     11  O   UNL     1       0.296   0.459  -2.378  0.00  0.00    -0.173 OA
BRANCH   9  13
ATOM     12  C   UNL     1       0.301   2.194   0.139  0.00  0.00    +0.031 C 
ATOM     13  C   UNL     1       0.215   0.670   0.247  0.00  0.00    +0.126 C 
ATOM     14  C   UNL     1      -1.252   0.250   0.366  0.00  0.00    +0.031 C 
ENDBRANCH   9  13
ENDBRANCH   2   9
ENDBRANCH   1   4
BRANCH   1  15
ATOM     15  C   UNL     1       6.958   0.546  -3.475  0.00  0.00    -0.029 A 
ATOM     16  C   UNL     1       7.166   1.842  -3.040  0.00  0.00    +0.006 A 
ATOM     17  C   UNL     1       8.445   2.360  -2.991  0.00  0.00    +0.009 A 
ATOM     18  C   UNL     1       9.527   1.574  -3.382  0.00  0.00    -0.014 A 
ATOM     19  C   UNL     1       9.312   0.268  -3.819  0.00  0.00    +0.009 A 
ATOM     20  C   UNL     1       8.030  -0.241  -3.859  0.00  0.00    +0.006 A 
BRANCH  18  21
ATOM     21  C   UNL     1      10.903   2.125  -3.333  0.00  0.00    +0.024 A 
ATOM     22  C   UNL     1      11.182   3.364  -3.905  0.00  0.00    +0.012 A 
ATOM     23  C   UNL     1      12.464   3.873  -3.857  0.00  0.00    +0.001 A 
ATOM     24  C   UNL     1      13.475   3.156  -3.241  0.00  0.00    +0.004 A 
ATOM     25  C   UNL     1      13.210   1.925  -2.671  0.00  0.00    +0.046 A 
ATOM     26  C   UNL     1      11.926   1.406  -2.707  0.00  0.00    +0.125 A 
BRANCH  26  27
ATOM     27  O   UNL     1      11.663   0.199  -2.141  0.00  0.00    -0.506 OA
ATOM     28  H   UNL     1      11.774  -0.550  -2.743  0.00  0.00    +0.292 HD
ENDBRANCH  26  27
ENDBRANCH  18  21
ENDBRANCH   1  15
BRANCH   1  29
ATOM     29  C   UNL     1       4.860   0.479  -4.794  0.00  0.00    +0.134 C 
BRANCH  29  30
ATOM     30  N   UNL     1       5.569  -0.030  -5.975  0.00  0.00    -0.202 NA
ATOM     31  H   UNL     1       5.561  -1.039  -5.995  0.00  0.00    +0.154 HD
BRANCH  30  32
ATOM     32  O   UNL     1       5.004   0.523  -7.205  0.00  0.00    -0.315 OA
ATOM     33  H   UNL     1       5.441   0.216  -8.012  0.00  0.00    +0.236 HD
ENDBRANCH  30  32
ENDBRANCH  29  30
ENDBRANCH   1  29
TORSDOF 9
