REMARK  Name = ZINC67420625
REMARK  13 active torsions:
REMARK  status: ('A' for Active; 'I' for Inactive)
REMARK    1  A    between atoms: C_1  and  C_2
REMARK    2  A    between atoms: C_2  and  N_3
REMARK    3  A    between atoms: N_3  and  C_4
REMARK    4  A    between atoms: N_3  and  C_23
REMARK    5  A    between atoms: C_4  and  C_5
REMARK    6  A    between atoms: C_5  and  N_6
REMARK    7  A    between atoms: N_9  and  C_10
REMARK    8  A    between atoms: C_10  and  C_11
REMARK    9  A    between atoms: C_11  and  C_12
REMARK   10  A    between atoms: N_14  and  C_15
REMARK   11  A    between atoms: C_18  and  C_22
REMARK   12  A    between atoms: C_23  and  C_24
REMARK   13  A    between atoms: C_23  and  C_25
REMARK                            x       y       z     vdW  Elec       q    Type
REMARK                         _______ _______ _______ _____ _____    ______ ____
ROOT
ATOM      1  N   UNL     1       3.449   1.734  -0.457  0.00  0.00    -0.301 N 
ATOM      2  C   UNL     1       3.748   3.032  -0.250  0.00  0.00    +0.300 C 
ATOM      3  O   UNL     1       2.868   3.871  -0.280  0.00  0.00    -0.253 OA
ATOM      4  N   UNL     1       5.022   3.400  -0.011  0.00  0.00    -0.299 N 
ATOM      5  H   UNL     1       4.151   1.065  -0.433  0.00  0.00    +0.150 HD
ATOM      6  H   UNL     1       5.724   2.731   0.013  0.00  0.00    +0.150 HD
ENDROOT
BRANCH   1   7
ATOM      7  C   UNL     1       2.064   1.334  -0.717  0.00  0.00    +0.087 C 
BRANCH   7   8
ATOM      8  C   UNL     1       2.000  -0.182  -0.915  0.00  0.00    -0.059 C 
BRANCH   8   9
ATOM      9  N   UNL     1       0.600  -0.597  -1.071  0.00  0.00    +0.382 N 
ATOM     10  H   UNL     1       0.551  -1.603  -1.128  0.00  0.00    -0.081 HD
BRANCH   9  11
ATOM     11  C   UNL     1      -0.180  -0.133   0.084  0.00  0.00    -0.075 C 
ATOM     12  C   UNL     1      -1.639  -0.565  -0.079  0.00  0.00    -0.014 C 
ATOM     13  C   UNL     1       0.393  -0.743   1.364  0.00  0.00    -0.014 C 
ENDBRANCH   9  11
BRANCH   9  15
ATOM     14  C   UNL     1       0.794  -0.575  -3.513  0.00  0.00    -0.017 C 
ATOM     15  C   UNL     1       0.050  -0.010  -2.301  0.00  0.00    -0.082 C 
ENDBRANCH   9  15
ENDBRANCH   8   9
ENDBRANCH   7   8
ENDBRANCH   1   7
BRANCH   4  16
ATOM     16  C   UNL     1       5.347   4.811   0.214  0.00  0.00    +0.115 C 
BRANCH  16  17
ATOM     17  C   UNL     1       6.850   4.955   0.461  0.00  0.00    +0.115 C 
BRANCH  17  18
ATOM     18  C   UNL     1       7.184   6.407   0.692  0.00  0.00    +0.219 C 
ATOM     19  O   UNL     1       6.306   7.243   0.662  0.00  0.00    -0.275 OA
ATOM     20  N   UNL     1       8.458   6.775   0.931  0.00  0.00    -0.284 N 
ATOM     21  H   UNL     1       9.170   6.117   0.886  0.00  0.00    +0.155 HD
BRANCH  20  22
ATOM     22  C   UNL     1       8.755   8.107   1.245  0.00  0.00    +0.052 A 
ATOM     23  C   UNL     1       7.847   8.870   1.968  0.00  0.00    +0.025 A 
ATOM     24  C   UNL     1       8.143  10.183   2.277  0.00  0.00    +0.005 A 
ATOM     25  C   UNL     1       9.341  10.739   1.867  0.00  0.00    -0.049 A 
ATOM     26  C   UNL     1      10.247   9.983   1.146  0.00  0.00    +0.025 A 
ATOM     27  C   UNL     1       9.960   8.666   0.839  0.00  0.00    +0.062 A 
ATOM     28 CL   UNL     1      11.101   7.715  -0.059  0.00  0.00    -0.082 Cl
ATOM     29  C   UNL     1       9.659  12.173   2.204  0.00  0.00    +0.044 C 
ENDBRANCH  20  22
ENDBRANCH  17  18
ENDBRANCH  16  17
ENDBRANCH   4  16
TORSDOF 9
