REMARK  Name = ZINC05054820
REMARK  4 active torsions:
REMARK  status: ('A' for Active; 'I' for Inactive)
REMARK    1  A    between atoms: C_1  and  C_2
REMARK    2  A    between atoms: C_2  and  C_3
REMARK    3  A    between atoms: C_6  and  C_9
REMARK    4  A    between atoms: N_10  and  N_11
REMARK                            x       y       z     vdW  Elec       q    Type
REMARK                         _______ _______ _______ _____ _____    ______ ____
ROOT
ATOM      1  N   UNL     1      -4.767   0.257  -2.285  0.00  0.00    -0.220 N 
ATOM      2  C   UNL     1      -5.191   0.429  -0.980  0.00  0.00    +0.150 A 
ATOM      3  C   UNL     1      -4.440   1.183  -0.033  0.00  0.00    +0.052 A 
ATOM      4  C   UNL     1      -3.175   1.863  -0.256  0.00  0.00    -0.025 A 
ATOM      5  C   UNL     1      -2.645   2.521   0.800  0.00  0.00    -0.004 A 
ATOM      6  S   UNL     1      -3.793   2.271   2.131  0.00  0.00    -0.073 S 
ATOM      7  C   UNL     1      -4.980   1.287   1.275  0.00  0.00    +0.114 A 
ATOM      8  N   UNL     1      -6.117   0.727   1.635  0.00  0.00    -0.228 NA
ATOM      9  C   UNL     1      -6.767   0.038   0.704  0.00  0.00    +0.224 A 
ATOM     10  N   UNL     1      -6.328  -0.101  -0.530  0.00  0.00    -0.219 NA
ATOM     11  C   UNL     1      -1.359   3.295   0.839  0.00  0.00    +0.043 C 
ATOM     12  C   UNL     1      -0.538   2.927  -0.405  0.00  0.00    +0.005 C 
ATOM     13  C   UNL     1      -1.447   3.000  -1.635  0.00  0.00    +0.005 C 
ATOM     14  C   UNL     1      -2.457   1.853  -1.603  0.00  0.00    +0.037 C 
ATOM     15  H   UNL     1      -3.845   0.442  -2.524  0.00  0.00    +0.176 HD
ENDROOT
BRANCH   1  17
ATOM     16  C   UNL     1      -5.270  -0.345  -4.488  0.00  0.00    +0.138 C 
ATOM     17  N   UNL     1      -5.669  -0.184  -3.263  0.00  0.00    -0.189 NA
BRANCH  16  21
ATOM     18  C   UNL     1      -8.001  -1.681  -7.449  0.00  0.00    -0.048 A 
ATOM     19  C   UNL     1      -6.687  -1.418  -7.793  0.00  0.00    +0.004 A 
ATOM     20  C   UNL     1      -5.794  -0.984  -6.836  0.00  0.00    +0.010 A 
ATOM     21  C   UNL     1      -6.219  -0.809  -5.517  0.00  0.00    -0.005 A 
ATOM     22  C   UNL     1      -7.546  -1.082  -5.176  0.00  0.00    +0.010 A 
ATOM     23  C   UNL     1      -8.430  -1.510  -6.145  0.00  0.00    +0.004 A 
BRANCH  18  25
ATOM     24  C   UNL     1      -8.949  -3.684  -8.563  0.00  0.00    +0.009 C 
ATOM     25  C   UNL     1      -8.971  -2.155  -8.501  0.00  0.00    +0.032 C 
ENDBRANCH  18  25
ENDBRANCH  16  21
ENDBRANCH   1  17
TORSDOF 3
