REMARK  Name = ZINC36142267
REMARK  8 active torsions:
REMARK  status: ('A' for Active; 'I' for Inactive)
REMARK    1  A    between atoms: C_1  and  C_2
REMARK    2  A    between atoms: C_2  and  C_3
REMARK    3  A    between atoms: C_3  and  O_4
REMARK    4  A    between atoms: O_4  and  C_5
REMARK    5  A    between atoms: C_11  and  C_17
REMARK    6  A    between atoms: C_11  and  N_20
REMARK    7  A    between atoms: C_13  and  C_15
REMARK    8  A    between atoms: C_13  and  C_16
REMARK                            x       y       z     vdW  Elec       q    Type
REMARK                         _______ _______ _______ _____ _____    ______ ____
ROOT
ATOM      1  C   UNL     1       2.133  -1.922  -3.184  0.00  0.00    +0.121 A 
ATOM      2  C   UNL     1       2.736  -1.505  -4.362  0.00  0.00    +0.049 A 
ATOM      3  C   UNL     1       3.146  -2.438  -5.292  0.00  0.00    +0.049 A 
ATOM      4  C   UNL     1       2.958  -3.796  -5.054  0.00  0.00    +0.124 A 
ATOM      5  C   UNL     1       2.359  -4.211  -3.878  0.00  0.00    -0.003 A 
ATOM      6  C   UNL     1       1.951  -3.274  -2.943  0.00  0.00    +0.052 A 
ATOM      7  C   UNL     1       2.147  -5.673  -3.578  0.00  0.00    +0.066 C 
ATOM      8  C   UNL     1       2.255  -6.486  -4.870  0.00  0.00    +0.050 C 
ATOM      9  C   UNL     1       3.525  -6.048  -5.611  0.00  0.00    +0.105 C 
ATOM     10  O   UNL     1       3.370  -4.682  -5.999  0.00  0.00    -0.486 OA
ATOM     11  C   UNL     1       3.723  -6.918  -6.854  0.00  0.00    +0.055 C 
ATOM     12  C   UNL     1       4.735  -6.187  -4.686  0.00  0.00    +0.055 C 
ENDROOT
BRANCH   7  13
ATOM     13  N   UNL     1       0.815  -5.864  -2.990  0.00  0.00    +0.392 N 
ATOM     14  H   UNL     1       0.112  -5.549  -3.642  0.00  0.00    -0.088 HD
ATOM     15  H   UNL     1       0.672  -6.842  -2.789  0.00  0.00    -0.088 HD
ATOM     16  H   UNL     1       0.744  -5.331  -2.136  0.00  0.00    -0.088 HD
ENDBRANCH   7  13
BRANCH   7  17
ATOM     17  C   UNL     1       3.196  -6.142  -2.602  0.00  0.00    +0.349 C 
ATOM     18  O   UNL     1       4.010  -5.351  -2.155  0.00  0.00    -0.248 OA
ATOM     19  O   UNL     1       3.231  -7.311  -2.259  0.00  0.00    -0.248 OA
ENDBRANCH   7  17
BRANCH   1  20
ATOM     20  O   UNL     1       1.726  -1.005  -2.266  0.00  0.00    -0.492 OA
BRANCH  20  21
ATOM     21  C   UNL     1       1.946   0.371  -2.581  0.00  0.00    +0.229 C 
BRANCH  21  23
ATOM     22  C   UNL     1       1.663   2.719  -1.776  0.00  0.00    +0.007 C 
ATOM     23  C   UNL     1       1.427   1.245  -1.438  0.00  0.00    +0.038 C 
ENDBRANCH  21  23
ENDBRANCH  20  21
ENDBRANCH   1  20
TORSDOF 5
