REMARK  Name = ZINC01459516
REMARK  10 active torsions:
REMARK  status: ('A' for Active; 'I' for Inactive)
REMARK    1  A    between atoms: C_1  and  C_2
REMARK    2  A    between atoms: C_3  and  C_27
REMARK    3  A    between atoms: C_4  and  C_16
REMARK    4  A    between atoms: C_10  and  C_14
REMARK    5  A    between atoms: C_10  and  C_15
REMARK    6  A    between atoms: C_18  and  O_25
REMARK    7  A    between atoms: C_19  and  O_24
REMARK    8  A    between atoms: C_20  and  O_22
REMARK    9  A    between atoms: O_22  and  C_23
REMARK   10  A    between atoms: O_25  and  C_26
REMARK                            x       y       z     vdW  Elec       q    Type
REMARK                         _______ _______ _______ _____ _____    ______ ____
ROOT
ATOM      1  C   UNL     1      -0.067   1.439  -0.476  0.00  0.00    +0.061 C 
ATOM      2  C   UNL     1      -0.009  -0.046  -0.231  0.00  0.00    +0.014 C 
ATOM      3  C   UNL     1      -1.126  -0.710   0.108  0.00  0.00    +0.043 C 
ATOM      4  C   UNL     1      -1.109  -2.191   0.352  0.00  0.00    +0.090 C 
ATOM      5  C   UNL     1       0.296  -2.683   0.590  0.00  0.00    +0.024 C 
ATOM      6  C   UNL     1       1.359  -1.936   0.227  0.00  0.00    +0.016 C 
ATOM      7  N   UNL     1       1.179  -0.711  -0.360  0.00  0.00    -0.321 N 
ATOM      8  C   UNL     1       2.768  -2.431   0.445  0.00  0.00    +0.058 C 
ATOM      9  C   UNL     1       2.811  -3.326   1.686  0.00  0.00    -0.023 C 
ATOM     10  C   UNL     1       1.837  -4.490   1.480  0.00  0.00    +0.086 C 
ATOM     11  C   UNL     1       0.465  -3.938   1.202  0.00  0.00    +0.162 C 
ATOM     12  O   UNL     1      -0.514  -4.588   1.510  0.00  0.00    -0.292 OA
ATOM     13  C   UNL     1       2.394  -2.518   2.917  0.00  0.00    +0.011 C 
ATOM     14  C   UNL     1       4.228  -3.870   1.879  0.00  0.00    +0.011 C 
ATOM     15  H   UNL     1       1.901  -0.309  -0.868  0.00  0.00    +0.152 HD
ENDROOT
BRANCH   3  16
ATOM     16  C   UNL     1      -2.345   0.001   0.237  0.00  0.00    +0.245 C 
ATOM     17  O   UNL     1      -3.149   0.003  -0.676  0.00  0.00    -0.270 OA
ATOM     18  N   UNL     1      -2.614   0.677   1.373  0.00  0.00    -0.298 N 
ATOM     19  C   UNL     1      -1.704   0.597   2.524  0.00  0.00    +0.108 C 
ATOM     20  C   UNL     1      -1.319   2.018   2.947  0.00  0.00    +0.019 C 
ATOM     21  C   UNL     1      -2.590   2.832   3.204  0.00  0.00    +0.003 C 
ATOM     22  C   UNL     1      -3.412   2.917   1.917  0.00  0.00    +0.019 C 
ATOM     23  C   UNL     1      -3.818   1.511   1.480  0.00  0.00    +0.108 C 
ENDBRANCH   3  16
BRANCH   4  24
ATOM     24  C   UNL     1      -1.683  -2.896  -0.850  0.00  0.00    -0.028 A 
ATOM     25  C   UNL     1      -1.025  -2.836  -2.064  0.00  0.00    +0.054 A 
ATOM     26  C   UNL     1      -1.549  -3.484  -3.172  0.00  0.00    +0.165 A 
ATOM     27  C   UNL     1      -2.738  -4.195  -3.061  0.00  0.00    +0.201 A 
ATOM     28  C   UNL     1      -3.397  -4.253  -1.839  0.00  0.00    +0.165 A 
ATOM     29  C   UNL     1      -2.863  -3.607  -0.734  0.00  0.00    +0.054 A 
BRANCH  28  30
ATOM     30  O   UNL     1      -4.560  -4.948  -1.724  0.00  0.00    -0.491 OA
ATOM     31  C   UNL     1      -5.182  -4.965  -0.438  0.00  0.00    +0.277 C 
ENDBRANCH  28  30
BRANCH  27  32
ATOM     32  O   UNL     1      -3.256  -4.831  -4.146  0.00  0.00    -0.501 OA
ATOM     33  H   UNL     1      -2.951  -5.743  -4.250  0.00  0.00    +0.292 HD
ENDBRANCH  27  32
BRANCH  26  34
ATOM     34  O   UNL     1      -0.901  -3.423  -4.366  0.00  0.00    -0.491 OA
ATOM     35  C   UNL     1       0.315  -2.674  -4.407  0.00  0.00    +0.277 C 
ENDBRANCH  26  34
ENDBRANCH   4  24
TORSDOF 5
