REMARK  Name = ZINC19296052
REMARK  12 active torsions:
REMARK  status: ('A' for Active; 'I' for Inactive)
REMARK    1  A    between atoms: C_1  and  C_2
REMARK    2  A    between atoms: C_2  and  C_3
REMARK    3  A    between atoms: C_3  and  C_5
REMARK    4  A    between atoms: C_3  and  C_6
REMARK    5  A    between atoms: C_9  and  C_12
REMARK    6  A    between atoms: C_12  and  C_14
REMARK    7  A    between atoms: C_12  and  N_17
REMARK    8  A    between atoms: C_14  and  C_15
REMARK    9  A    between atoms: C_14  and  C_16
REMARK   10  A    between atoms: C_18  and  C_20
REMARK   11  A    between atoms: C_20  and  N_21
REMARK   12  A    between atoms: C_29  and  C_31
REMARK                            x       y       z     vdW  Elec       q    Type
REMARK                         _______ _______ _______ _____ _____    ______ ____
ROOT
ATOM      1  N   UNL     1      -3.409   0.315   6.847  0.00  0.00    -0.307 N 
ATOM      2  C   UNL     1      -2.969   0.347   5.573  0.00  0.00    +0.231 C 
ATOM      3  O   UNL     1      -1.778   0.378   5.343  0.00  0.00    -0.274 OA
ATOM      4  H   UNL     1      -4.488   0.287   7.055  0.00  0.00    +0.149 HD
ENDROOT
BRANCH   1   5
ATOM      5  C   UNL     1      -2.449   0.319   7.953  0.00  0.00    +0.106 C 
BRANCH   5   9
ATOM      6  C   UNL     1      -4.232  -1.483  11.392  0.00  0.00    -0.045 A 
ATOM      7  C   UNL     1      -2.909  -1.740  11.084  0.00  0.00    +0.004 A 
ATOM      8  C   UNL     1      -2.332  -1.157   9.972  0.00  0.00    +0.006 A 
ATOM      9  C   UNL     1      -3.078  -0.317   9.166  0.00  0.00    -0.027 A 
ATOM     10  C   UNL     1      -4.399  -0.055   9.476  0.00  0.00    +0.006 A 
ATOM     11  C   UNL     1      -4.978  -0.642  10.586  0.00  0.00    +0.004 A 
BRANCH   6  12
ATOM     12  C   UNL     1      -4.861  -2.118  12.605  0.00  0.00    +0.016 C 
ATOM     13  C   UNL     1      -5.346  -1.024  13.559  0.00  0.00    +0.012 C 
BRANCH  12  15
ATOM     14  C   UNL     1      -6.610  -3.722  13.386  0.00  0.00    +0.004 C 
ATOM     15  C   UNL     1      -6.049  -2.979  12.172  0.00  0.00    +0.004 C 
ENDBRANCH  12  15
ENDBRANCH   6  12
ENDBRANCH   5   9
BRANCH   5  16
ATOM     16  C   UNL     1      -2.053   1.760   8.280  0.00  0.00    +0.008 C 
ATOM     17  C   UNL     1      -1.050   1.764   9.436  0.00  0.00    +0.009 C 
ATOM     18  C   UNL     1      -1.414   2.405   7.049  0.00  0.00    +0.009 C 
ENDBRANCH   5  16
ENDBRANCH   1   5
BRANCH   2  19
ATOM     19  C   UNL     1      -3.956   0.343   4.435  0.00  0.00    +0.213 C 
BRANCH  19  20
ATOM     20  N   UNL     1      -3.233   0.381   3.161  0.00  0.00    -0.215 N 
ATOM     21  C   UNL     1      -2.885   1.517   2.521  0.00  0.00    +0.247 C 
ATOM     22  O   UNL     1      -3.102   2.655   2.875  0.00  0.00    -0.273 OA
ATOM     23  C   UNL     1      -2.167   1.069   1.268  0.00  0.00    +0.115 C 
ATOM     24  C   UNL     1      -2.911   1.550   0.027  0.00  0.00    +0.035 C 
ATOM     25  C   UNL     1      -2.186   1.056  -1.227  0.00  0.00    +0.003 C 
ATOM     26  C   UNL     1      -0.753   1.593  -1.231  0.00  0.00    +0.000 C 
ATOM     27  C   UNL     1      -0.013   1.086   0.008  0.00  0.00    +0.006 C 
ATOM     28  C   UNL     1      -0.730   1.580   1.267  0.00  0.00    +0.018 C 
ATOM     29  C   UNL     1      -0.002   1.056   2.507  0.00  0.00    +0.010 C 
ATOM     30  N   UNL     1      -2.191  -0.397   1.347  0.00  0.00    -0.285 N 
ATOM     31  C   UNL     1      -2.836  -0.706   2.489  0.00  0.00    +0.310 C 
ATOM     32  O   UNL     1      -3.035  -1.844   2.866  0.00  0.00    -0.252 OA
ATOM     33  H   UNL     1      -1.730  -0.998   0.550  0.00  0.00    +0.151 HD
ENDBRANCH  19  20
ENDBRANCH   2  19
TORSDOF 7
