REMARK  Name = ZINC13628952
REMARK  8 active torsions:
REMARK  status: ('A' for Active; 'I' for Inactive)
REMARK    1  A    between atoms: C_1  and  O_2
REMARK    2  A    between atoms: O_2  and  C_3
REMARK    3  A    between atoms: C_6  and  C_9
REMARK    4  A    between atoms: C_9  and  C_11
REMARK    5  A    between atoms: C_9  and  C_28
REMARK    6  A    between atoms: C_11  and  N_12
REMARK    7  A    between atoms: C_13  and  C_15
REMARK    8  A    between atoms: N_17  and  C_18
REMARK                            x       y       z     vdW  Elec       q    Type
REMARK                         _______ _______ _______ _____ _____    ______ ____
ROOT
ATOM      1  C   UNL     1      -2.919  -0.435   0.027  0.00  0.00    +0.068 C 
ENDROOT
BRANCH   1   2
ATOM      2  C   UNL     1      -1.416  -0.474  -0.085  0.00  0.00    -0.013 A 
ATOM      3  C   UNL     1      -0.653  -1.571  -0.204  0.00  0.00    +0.088 A 
ATOM      4  N   UNL     1       0.666  -1.216  -0.280  0.00  0.00    -0.360 N 
ATOM      5  H   UNL     1       1.407  -1.837  -0.370  0.00  0.00    +0.165 HD
ATOM      6  C   UNL     1       0.787   0.154  -0.209  0.00  0.00    +0.047 A 
ATOM      7  C   UNL     1      -0.512   0.679  -0.084  0.00  0.00    +0.003 A 
ATOM      8  C   UNL     1      -0.700   2.059   0.010  0.00  0.00    +0.010 A 
ATOM      9  C   UNL     1       0.381   2.894  -0.020  0.00  0.00    +0.001 A 
ATOM     10  C   UNL     1       1.665   2.381  -0.144  0.00  0.00    +0.002 A 
ATOM     11  C   UNL     1       1.873   1.022  -0.238  0.00  0.00    +0.026 A 
ENDBRANCH   1   2
BRANCH   1  15
ATOM     12  C   UNL     1      -4.653  -2.206  -3.454  0.00  0.00    +0.120 A 
ATOM     13  C   UNL     1      -4.931  -0.885  -3.135  0.00  0.00    +0.046 A 
ATOM     14  C   UNL     1      -4.369  -0.315  -2.009  0.00  0.00    +0.008 A 
ATOM     15  C   UNL     1      -3.530  -1.060  -1.200  0.00  0.00    -0.038 A 
ATOM     16  C   UNL     1      -3.248  -2.375  -1.519  0.00  0.00    +0.008 A 
ATOM     17  C   UNL     1      -3.812  -2.952  -2.640  0.00  0.00    +0.046 A 
BRANCH  12  19
ATOM     18  C   UNL     1      -4.874  -4.134  -4.827  0.00  0.00    +0.277 C 
ATOM     19  O   UNL     1      -5.204  -2.769  -4.561  0.00  0.00    -0.495 OA
ENDBRANCH  12  19
ENDBRANCH   1  15
BRANCH   1  20
ATOM     20  C   UNL     1      -3.358  -1.214   1.269  0.00  0.00    +0.117 C 
BRANCH  20  21
ATOM     21  N   UNL     1      -2.862  -0.538   2.470  0.00  0.00    -0.307 N 
ATOM     22  C   UNL     1      -3.128  -1.048   3.689  0.00  0.00    +0.299 C 
ATOM     23  O   UNL     1      -3.780  -2.067   3.791  0.00  0.00    -0.265 OA
ATOM     24  H   UNL     1      -2.341   0.277   2.388  0.00  0.00    +0.149 HD
BRANCH  22  25
ATOM     25  C   UNL     1      -2.623  -0.359   4.913  0.00  0.00    +0.303 C 
ATOM     26  O   UNL     1      -1.971   0.660   4.811  0.00  0.00    -0.265 OA
ATOM     27  N   UNL     1      -2.889  -0.869   6.132  0.00  0.00    -0.278 N 
ATOM     28  H   UNL     1      -3.473  -1.639   6.219  0.00  0.00    +0.155 HD
BRANCH  27  29
ATOM     29  C   UNL     1      -2.325  -0.287   7.273  0.00  0.00    +0.034 A 
ATOM     30  C   UNL     1      -1.050   0.276   7.207  0.00  0.00    +0.025 A 
ATOM     31  C   UNL     1      -0.483   0.857   8.318  0.00  0.00    +0.028 A 
ATOM     32  C   UNL     1      -1.177   0.876   9.525  0.00  0.00    +0.047 A 
ATOM     33  C   UNL     1      -2.460   0.304   9.596  0.00  0.00    +0.001 A 
ATOM     34  C   UNL     1      -3.030  -0.278   8.462  0.00  0.00    +0.033 A 
ATOM     35  C   UNL     1      -2.908   0.486  10.979  0.00  0.00    +0.027 A 
ATOM     36  C   UNL     1      -1.923   1.124  11.631  0.00  0.00    +0.083 A 
ATOM     37  N   UNL     1      -0.880   1.366  10.779  0.00  0.00    -0.361 N 
ATOM     38  H   UNL     1      -0.055   1.815  11.021  0.00  0.00    +0.165 HD
ENDBRANCH  27  29
ENDBRANCH  22  25
ENDBRANCH  20  21
ENDBRANCH   1  20
TORSDOF 7
