REMARK  Name = ZINC39955083
REMARK  3 active torsions:
REMARK  status: ('A' for Active; 'I' for Inactive)
REMARK    1  A    between atoms: C_1  and  O_2
REMARK    2  A    between atoms: O_2  and  C_3
REMARK    3  A    between atoms: C_8  and  C_9
REMARK                            x       y       z     vdW  Elec       q    Type
REMARK                         _______ _______ _______ _____ _____    ______ ____
ROOT
ATOM      1  C   UNL     1       0.018  -2.829  -0.013  0.00  0.00    +0.047 C 
ATOM      2  C   UNL     1      -0.004  -3.798  -1.197  0.00  0.00    +0.105 C 
ATOM      3  C   UNL     1       1.147  -4.757  -1.081  0.00  0.00    +0.215 C 
ATOM      4  O   UNL     1       1.515  -5.341  -2.078  0.00  0.00    -0.276 OA
ATOM      5  N   UNL     1       1.782  -4.996   0.066  0.00  0.00    -0.294 N 
ATOM      6  C   UNL     1       1.471  -4.358   1.337  0.00  0.00    +0.190 C 
ATOM      7  C   UNL     1       0.135  -3.626   1.284  0.00  0.00    +0.129 C 
ATOM      8  C   UNL     1      -1.024  -4.563   1.434  0.00  0.00    +0.257 C 
ATOM      9  O   UNL     1      -2.172  -4.278   0.790  0.00  0.00    -0.270 OA
ATOM     10  N   UNL     1      -0.968  -5.644   2.160  0.00  0.00    -0.177 NA
ATOM     11  C   UNL     1       0.211  -5.975   2.758  0.00  0.00    +0.236 A 
ATOM     12  N   UNL     1       1.400  -5.378   2.388  0.00  0.00    -0.288 N 
ATOM     13  C   UNL     1       2.382  -5.915   3.164  0.00  0.00    +0.072 A 
ATOM     14  C   UNL     1       3.752  -5.690   3.249  0.00  0.00    +0.028 A 
ATOM     15  C   UNL     1       4.459  -6.438   4.176  0.00  0.00    +0.002 A 
ATOM     16  C   UNL     1       3.843  -7.374   4.988  0.00  0.00    +0.002 A 
ATOM     17  C   UNL     1       2.483  -7.619   4.924  0.00  0.00    +0.030 A 
ATOM     18  C   UNL     1       1.746  -6.874   3.995  0.00  0.00    +0.091 A 
ATOM     19  N   UNL     1       0.438  -6.863   3.694  0.00  0.00    -0.210 NA
ATOM     20  H   UNL     1       2.505  -5.643   0.053  0.00  0.00    +0.151 HD
ENDROOT
BRANCH   1  26
ATOM     21  C   UNL     1      -1.303  -0.814   0.680  0.00  0.00    +0.124 A 
ATOM     22  C   UNL     1      -2.476  -0.072   0.689  0.00  0.00    +0.046 A 
ATOM     23  C   UNL     1      -3.594  -0.542   0.028  0.00  0.00    +0.004 A 
ATOM     24  C   UNL     1      -3.545  -1.751  -0.642  0.00  0.00    +0.001 A 
ATOM     25  C   UNL     1      -2.378  -2.492  -0.652  0.00  0.00    +0.007 A 
ATOM     26  C   UNL     1      -1.255  -2.023   0.003  0.00  0.00    -0.001 A 
BRANCH  21  28
ATOM     27  C   UNL     1      -0.324   0.900   2.006  0.00  0.00    +0.277 C 
ATOM     28  O   UNL     1      -0.202  -0.353   1.330  0.00  0.00    -0.495 OA
ENDBRANCH  21  28
ENDBRANCH   1  26
TORSDOF 2
