REMARK  Name = ZINC19819792
REMARK  7 active torsions:
REMARK  status: ('A' for Active; 'I' for Inactive)
REMARK    1  A    between atoms: C_1  and  C_2
REMARK    2  A    between atoms: C_3  and  C_26
REMARK    3  A    between atoms: C_8  and  N_10
REMARK    4  A    between atoms: C_16  and  C_19
REMARK    5  A    between atoms: C_19  and  C_20
REMARK    6  A    between atoms: C_26  and  C_27
REMARK    7  A    between atoms: C_27  and  O_28
REMARK                            x       y       z     vdW  Elec       q    Type
REMARK                         _______ _______ _______ _____ _____    ______ ____
ROOT
ATOM      1  N   UNL     1       3.455  -0.554   0.082  0.00  0.00    -0.183 NA
ATOM      2  C   UNL     1       3.521  -1.875   0.075  0.00  0.00    +0.183 C 
ATOM      3  N   UNL     1       2.374  -2.615   0.095  0.00  0.00    -0.331 N 
ATOM      4  N   UNL     1       4.735  -2.498   0.047  0.00  0.00    -0.303 N 
ATOM      5  C   UNL     1       4.827  -3.963   0.124  0.00  0.00    +0.108 C 
ATOM      6  C   UNL     1       5.656  -4.467  -1.061  0.00  0.00    +0.023 C 
ATOM      7  C   UNL     1       7.009  -3.752  -1.073  0.00  0.00    -0.004 C 
ATOM      8  C   UNL     1       6.792  -2.247  -1.242  0.00  0.00    +0.023 C 
ATOM      9  C   UNL     1       5.975  -1.718  -0.065  0.00  0.00    +0.108 C 
ATOM     10  H   UNL     1       1.611  -2.342  -0.438  0.00  0.00    +0.145 HD
ATOM     11  H   UNL     1       2.322  -3.415   0.642  0.00  0.00    +0.145 HD
ENDROOT
BRANCH   1  19
ATOM     12  C   UNL     1      -1.202  -0.947   0.973  0.00  0.00    +0.066 C 
ATOM     13  C   UNL     1       0.004  -0.095   0.673  0.00  0.00    +0.050 A 
ATOM     14  C   UNL     1      -0.128   1.261   0.572  0.00  0.00    +0.040 A 
ATOM     15  C   UNL     1       1.008   2.039   0.292  0.00  0.00    +0.256 A 
ATOM     16  O   UNL     1       0.922   3.252   0.196  0.00  0.00    -0.267 OA
ATOM     17  N   UNL     1       2.197   1.419   0.131  0.00  0.00    -0.291 N 
ATOM     18  H   UNL     1       2.994   1.937  -0.063  0.00  0.00    +0.172 HD
ATOM     19  C   UNL     1       2.272   0.058   0.243  0.00  0.00    +0.234 A 
ATOM     20  N   UNL     1       1.194  -0.664   0.513  0.00  0.00    -0.217 NA
BRANCH  14  21
ATOM     21  C   UNL     1      -1.474   1.913   0.759  0.00  0.00    +0.070 C 
BRANCH  21  22
ATOM     22  C   UNL     1      -1.619   2.377   2.210  0.00  0.00    +0.160 C 
BRANCH  22  23
ATOM     23  O   UNL     1      -2.895   2.995   2.386  0.00  0.00    -0.395 OA
ATOM     24  H   UNL     1      -3.057   3.314   3.285  0.00  0.00    +0.209 HD
ENDBRANCH  22  23
ENDBRANCH  21  22
ENDBRANCH  14  21
ENDBRANCH   1  19
BRANCH   7  25
ATOM     25  C   UNL     1       7.854  -4.279  -2.236  0.00  0.00    +0.038 C 
BRANCH  25  26
ATOM     26  C   UNL     1       9.229  -3.666  -2.175  0.00  0.00    -0.047 A 
ATOM     27  C   UNL     1       9.484  -2.474  -2.826  0.00  0.00    +0.003 A 
ATOM     28  C   UNL     1      10.746  -1.912  -2.771  0.00  0.00    +0.000 A 
ATOM     29  C   UNL     1      11.752  -2.542  -2.064  0.00  0.00    +0.000 A 
ATOM     30  C   UNL     1      11.498  -3.734  -1.412  0.00  0.00    +0.000 A 
ATOM     31  C   UNL     1      10.235  -4.294  -1.464  0.00  0.00    +0.003 A 
ENDBRANCH  25  26
ENDBRANCH   7  25
TORSDOF 6
