REMARK  Name = ZINC60385196
REMARK  11 active torsions:
REMARK  status: ('A' for Active; 'I' for Inactive)
REMARK    1  A    between atoms: C_1  and  C_2
REMARK    2  A    between atoms: C_2  and  C_4
REMARK    3  A    between atoms: C_2  and  O_10
REMARK    4  A    between atoms: O_10  and  C_11
REMARK    5  A    between atoms: C_11  and  C_13
REMARK    6  A    between atoms: C_13  and  C_15
REMARK    7  A    between atoms: C_13  and  N_19
REMARK    8  A    between atoms: C_15  and  C_16
REMARK    9  A    between atoms: C_16  and  S_17
REMARK   10  A    between atoms: S_17  and  C_18
REMARK   11  A    between atoms: C_20  and  C_22
REMARK                            x       y       z     vdW  Elec       q    Type
REMARK                         _______ _______ _______ _____ _____    ______ ____
ROOT
ATOM      1  C   UNL     1       2.814  -1.159   2.225  0.00  0.00    +0.183 C 
ENDROOT
BRANCH   1   2
ATOM      2  N   UNL     1       4.224  -1.277   1.847  0.00  0.00    -0.298 N 
ATOM      3  C   UNL     1       5.183  -1.206   2.792  0.00  0.00    +0.246 C 
ATOM      4  O   UNL     1       4.877  -1.044   3.958  0.00  0.00    -0.270 OA
ATOM      5  H   UNL     1       4.468  -1.405   0.917  0.00  0.00    +0.150 HD
BRANCH   3   6
ATOM      6  C   UNL     1       6.605  -1.324   2.412  0.00  0.00    +0.055 A 
ATOM      7  C   UNL     1       6.960  -1.504   1.073  0.00  0.00    +0.016 A 
ATOM      8  C   UNL     1       8.289  -1.613   0.724  0.00  0.00    +0.021 A 
ATOM      9  C   UNL     1       9.273  -1.546   1.698  0.00  0.00    +0.042 A 
ATOM     10  C   UNL     1       8.929  -1.369   3.027  0.00  0.00    +0.040 A 
ATOM     11  C   UNL     1       7.601  -1.251   3.389  0.00  0.00    +0.054 A 
ATOM     12 CL   UNL     1       7.171  -1.020   5.055  0.00  0.00    -0.083 Cl
ATOM     13 CL   UNL     1      10.944  -1.686   1.249  0.00  0.00    -0.083 Cl
ENDBRANCH   3   6
ENDBRANCH   1   2
BRANCH   1  14
ATOM     14  C   UNL     1       2.018  -0.662   1.046  0.00  0.00    +0.328 C 
ATOM     15  O   UNL     1       2.572  -0.429  -0.002  0.00  0.00    -0.249 OA
BRANCH  14  16
ATOM     16  O   UNL     1       0.693  -0.477   1.160  0.00  0.00    -0.451 OA
BRANCH  16  18
ATOM     17  C   UNL     1      -0.019   1.526   0.010  0.00  0.00    +0.062 C 
ATOM     18  C   UNL     1       0.002  -0.004   0.002  0.00  0.00    +0.259 C 
BRANCH  18  19
ATOM     19  C   UNL     1      -1.412  -0.526   0.013  0.00  0.00    +0.261 C 
ATOM     20  O   UNL     1      -1.818  -1.157   0.965  0.00  0.00    -0.271 OA
ATOM     21  N   UNL     1      -2.225  -0.290  -1.036  0.00  0.00    -0.237 N 
ATOM     22  C   UNL     1      -3.489  -0.757  -1.027  0.00  0.00    +0.303 C 
ATOM     23  O   UNL     1      -3.896  -1.390  -0.072  0.00  0.00    -0.253 OA
ATOM     24  N   UNL     1      -4.302  -0.522  -2.075  0.00  0.00    -0.313 N 
ATOM     25  H   UNL     1      -1.900   0.215  -1.798  0.00  0.00    +0.159 HD
ATOM     26  H   UNL     1      -3.977  -0.017  -2.837  0.00  0.00    +0.146 HD
ATOM     27  H   UNL     1      -5.212  -0.858  -2.069  0.00  0.00    +0.146 HD
ENDBRANCH  18  19
ENDBRANCH  16  18
ENDBRANCH  14  16
ENDBRANCH   1  14
BRANCH   1  28
ATOM     28  C   UNL     1       2.285  -2.529   2.655  0.00  0.00    +0.044 C 
BRANCH  28  29
ATOM     29  C   UNL     1       3.009  -2.978   3.927  0.00  0.00    +0.071 C 
BRANCH  29  30
ATOM     30  S   UNL     1       2.382  -4.602   4.437  0.00  0.00    -0.164 S 
ATOM     31  C   UNL     1       3.328  -4.986   5.937  0.00  0.00    +0.084 C 
ENDBRANCH  29  30
ENDBRANCH  28  29
ENDBRANCH   1  28
TORSDOF 9
