REMARK  Name = ZINC05027489
REMARK  6 active torsions:
REMARK  status: ('A' for Active; 'I' for Inactive)
REMARK    1  A    between atoms: C_1  and  C_2
REMARK    2  A    between atoms: C_2  and  C_3
REMARK    3  A    between atoms: C_3  and  N_4
REMARK    4  A    between atoms: C_5  and  C_7
REMARK    5  A    between atoms: C_11  and  N_12
REMARK    6  A    between atoms: C_13  and  C_15
REMARK                            x       y       z     vdW  Elec       q    Type
REMARK                         _______ _______ _______ _____ _____    ______ ____
ROOT
ATOM      1  C   UNL     1       2.477   1.182  -0.010  0.00  0.00    +0.069 A 
ATOM      2  C   UNL     1       3.562   2.148  -0.021  0.00  0.00    -0.023 A 
ATOM      3  C   UNL     1       3.179   3.443  -0.009  0.00  0.00    -0.004 A 
ATOM      4  S   UNL     1       1.409   3.392   0.007  0.00  0.00    -0.077 S 
ATOM      5  C   UNL     1       1.179   1.675  -0.000  0.00  0.00    +0.085 A 
ATOM      6  C   UNL     1       4.068   4.648  -0.011  0.00  0.00    +0.043 C 
ATOM      7  C   UNL     1       5.492   4.199   0.350  0.00  0.00    +0.005 C 
ATOM      8  C   UNL     1       5.853   2.976  -0.497  0.00  0.00    +0.005 C 
ATOM      9  C   UNL     1       5.037   1.766  -0.039  0.00  0.00    +0.037 C 
ENDROOT
BRANCH   1  11
ATOM     10  N   UNL     1       2.872  -0.924   1.153  0.00  0.00    -0.311 N 
ATOM     11  C   UNL     1       2.742  -0.260  -0.013  0.00  0.00    +0.247 C 
ATOM     12  O   UNL     1       2.846  -0.858  -1.068  0.00  0.00    -0.270 OA
ATOM     13  H   UNL     1       2.789  -0.448   1.994  0.00  0.00    +0.149 HD
BRANCH  10  14
ATOM     14  C   UNL     1       3.137  -2.365   1.150  0.00  0.00    +0.104 C 
BRANCH  14  16
ATOM     15  C   UNL     1       3.516  -4.372   2.589  0.00  0.00    +0.005 C 
ATOM     16  C   UNL     1       3.239  -2.867   2.592  0.00  0.00    +0.015 C 
ENDBRANCH  14  16
ENDBRANCH  10  14
ENDBRANCH   1  11
BRANCH   5  17
ATOM     17  N   UNL     1      -0.011   0.966   0.007  0.00  0.00    -0.275 N 
ATOM     18  C   UNL     1      -1.187   1.624   0.017  0.00  0.00    +0.255 C 
ATOM     19  O   UNL     1      -1.204   2.841   0.023  0.00  0.00    -0.269 OA
ATOM     20  H   UNL     1       0.002  -0.004   0.002  0.00  0.00    +0.156 HD
BRANCH  18  21
ATOM     21  C   UNL     1      -2.446   0.874   0.018  0.00  0.00    +0.074 A 
ATOM     22  C   UNL     1      -3.748   1.351   0.027  0.00  0.00    +0.021 A 
ATOM     23  C   UNL     1      -4.755   0.419   0.026  0.00  0.00    +0.008 A 
ATOM     24  C   UNL     1      -4.437  -0.902   0.017  0.00  0.00    +0.046 A 
ATOM     25  S   UNL     1      -2.704  -0.891   0.002  0.00  0.00    -0.092 S 
ENDBRANCH  18  21
ENDBRANCH   5  17
TORSDOF 5
