REMARK  Name = ZINC06949276
REMARK  5 active torsions:
REMARK  status: ('A' for Active; 'I' for Inactive)
REMARK    1  A    between atoms: C_1  and  C_2
REMARK    2  A    between atoms: N_4  and  N_5
REMARK    3  A    between atoms: N_13  and  C_16
REMARK    4  A    between atoms: C_16  and  C_17
REMARK    5  A    between atoms: C_20  and  N_23
REMARK                            x       y       z     vdW  Elec       q    Type
REMARK                         _______ _______ _______ _____ _____    ______ ____
ROOT
ATOM      1  N   UNL     1       0.019  -2.072  -1.177  0.00  0.00    -0.175 NA
ATOM      2  C   UNL     1       0.017  -2.722  -2.315  0.00  0.00    +0.153 C 
ATOM      3  C   UNL     1       0.029  -4.189  -2.517  0.00  0.00    +0.028 A 
ATOM      4  C   UNL     1       0.045  -5.271  -1.643  0.00  0.00    +0.012 A 
ATOM      5  C   UNL     1       0.053  -6.557  -2.145  0.00  0.00    +0.001 A 
ATOM      6  C   UNL     1       0.046  -6.768  -3.513  0.00  0.00    +0.002 A 
ATOM      7  C   UNL     1       0.030  -5.701  -4.389  0.00  0.00    +0.024 A 
ATOM      8  C   UNL     1       0.021  -4.398  -3.902  0.00  0.00    +0.046 A 
ATOM      9  N   UNL     1       0.006  -3.169  -4.553  0.00  0.00    -0.261 N 
ATOM     10  C   UNL     1      -0.004  -2.150  -3.677  0.00  0.00    +0.272 C 
ATOM     11  O   UNL     1      -0.023  -0.966  -3.956  0.00  0.00    -0.268 OA
ENDROOT
BRANCH   1  15
ATOM     12  C   UNL     1      -0.018   1.503   0.010  0.00  0.00    +0.111 C 
ATOM     13  C   UNL     1       0.002  -0.004   0.002  0.00  0.00    +0.229 C 
ATOM     14  O   UNL     1       0.020  -0.616   1.049  0.00  0.00    -0.274 OA
ATOM     15  N   UNL     1       0.000  -0.672  -1.169  0.00  0.00    -0.207 N 
ATOM     16  H   UNL     1      -0.015  -0.182  -2.006  0.00  0.00    +0.177 HD
ENDBRANCH   1  15
BRANCH   9  17
ATOM     17  C   UNL     1      -0.006  -3.006  -6.008  0.00  0.00    +0.149 C 
BRANCH  17  18
ATOM     18  C   UNL     1      -1.431  -2.963  -6.498  0.00  0.00    -0.030 A 
ATOM     19  C   UNL     1      -2.076  -4.134  -6.850  0.00  0.00    +0.007 A 
ATOM     20  C   UNL     1      -3.383  -4.095  -7.299  0.00  0.00    +0.033 A 
ATOM     21  C   UNL     1      -4.044  -2.885  -7.395  0.00  0.00    +0.126 A 
ATOM     22  C   UNL     1      -3.399  -1.714  -7.042  0.00  0.00    +0.033 A 
ATOM     23  C   UNL     1      -2.094  -1.754  -6.589  0.00  0.00    +0.007 A 
BRANCH  21  24
ATOM     24  N   UNL     1      -5.443  -2.843  -7.877  0.00  0.00    +0.056 N 
ATOM     25  O   UNL     1      -6.007  -3.867  -8.186  0.00  0.00    -0.126 OA
ATOM     26  O   UNL     1      -6.022  -1.785  -7.961  0.00  0.00    -0.126 OA
ENDBRANCH  21  24
ENDBRANCH  17  18
ENDBRANCH   9  17
TORSDOF 4
