REMARK  Name = ZINC12532367
REMARK  8 active torsions:
REMARK  status: ('A' for Active; 'I' for Inactive)
REMARK    1  A    between atoms: C_7  and  N_17
REMARK    2  A    between atoms: C_9  and  C_11
REMARK    3  A    between atoms: N_17  and  C_18
REMARK    4  A    between atoms: C_18  and  C_19
REMARK    5  A    between atoms: C_19  and  C_20
REMARK    6  A    between atoms: C_20  and  C_21
REMARK    7  A    between atoms: C_22  and  C_28
REMARK    8  A    between atoms: C_23  and  N_27
REMARK                            x       y       z     vdW  Elec       q    Type
REMARK                         _______ _______ _______ _____ _____    ______ ____
ROOT
ATOM      1  C   UNL     1       1.945  -0.251   5.948  0.00  0.00    +0.001 A 
ATOM      2  C   UNL     1       1.434   0.102   7.194  0.00  0.00    +0.002 A 
ATOM      3  C   UNL     1       0.313   0.871   7.301  0.00  0.00    +0.028 A 
ATOM      4  C   UNL     1      -0.335   1.315   6.139  0.00  0.00    +0.077 A 
ATOM      5  C   UNL     1       0.188   0.954   4.872  0.00  0.00    +0.040 A 
ATOM      6  C   UNL     1       1.339   0.164   4.798  0.00  0.00    +0.013 A 
ATOM      7  C   UNL     1      -0.484   1.414   3.712  0.00  0.00    +0.130 A 
ATOM      8  N   UNL     1      -1.565   2.163   3.868  0.00  0.00    -0.212 NA
ATOM      9  C   UNL     1      -2.025   2.474   5.077  0.00  0.00    +0.164 A 
ATOM     10  N   UNL     1      -1.439   2.073   6.190  0.00  0.00    -0.227 NA
ENDROOT
BRANCH   9  11
ATOM     11  C   UNL     1      -3.244   3.312   5.180  0.00  0.00    +0.037 A 
ATOM     12  C   UNL     1      -3.763   3.663   6.430  0.00  0.00    +0.014 A 
ATOM     13  C   UNL     1      -4.899   4.452   6.472  0.00  0.00    +0.020 A 
ATOM     14  C   UNL     1      -5.487   4.855   5.287  0.00  0.00    +0.111 A 
ATOM     15  N   UNL     1      -4.978   4.503   4.121  0.00  0.00    -0.263 NA
ATOM     16  C   UNL     1      -3.896   3.758   4.032  0.00  0.00    +0.122 A 
ENDBRANCH   9  11
BRANCH   7  17
ATOM     17  N   UNL     1      -0.020   1.094   2.454  0.00  0.00    -0.328 N 
ATOM     18  H   UNL     1       0.775   0.547   2.354  0.00  0.00    +0.147 HD
BRANCH  17  19
ATOM     19  C   UNL     1      -0.729   1.579   1.267  0.00  0.00    +0.103 C 
BRANCH  19  20
ATOM     20  C   UNL     1      -0.013   1.086   0.008  0.00  0.00    +0.025 C 
BRANCH  20  21
ATOM     21  C   UNL     1      -0.753   1.593  -1.232  0.00  0.00    +0.060 C 
BRANCH  21  22
ATOM     22  C   UNL     1      -0.047   1.107  -2.471  0.00  0.00    +0.082 A 
ATOM     23  C   UNL     1      -0.308  -0.105  -3.152  0.00  0.00    +0.113 A 
ATOM     24  C   UNL     1       0.563  -0.158  -4.237  0.00  0.00    +0.129 A 
ATOM     25  N   UNL     1       1.307   0.968  -4.204  0.00  0.00    -0.263 N 
ATOM     26  H   UNL     1       2.025   1.213  -4.856  0.00  0.00    +0.190 HD
ATOM     27  N   UNL     1       0.904   1.733  -3.104  0.00  0.00    -0.176 NA
BRANCH  24  28
ATOM     28  N   UNL     1       0.651  -1.172  -5.171  0.00  0.00    -0.342 N 
ATOM     29  H   UNL     1       0.067  -1.944  -5.105  0.00  0.00    +0.144 HD
ATOM     30  H   UNL     1       1.296  -1.112  -5.894  0.00  0.00    +0.144 HD
ENDBRANCH  24  28
BRANCH  23  31
ATOM     31  C   UNL     1      -1.283  -1.091  -2.795  0.00  0.00    +0.104 C 
ATOM     32  N   UNL     1      -2.057  -1.873  -2.511  0.00  0.00    -0.191 NA
ENDBRANCH  23  31
ENDBRANCH  21  22
ENDBRANCH  20  21
ENDBRANCH  19  20
ENDBRANCH  17  19
ENDBRANCH   7  17
TORSDOF 8
