REMARK  Name = ZINC20586213
REMARK  2 active torsions:
REMARK  status: ('A' for Active; 'I' for Inactive)
REMARK    1  A    between atoms: C_1  and  C_2
REMARK    2  A    between atoms: C_5  and  N_9
REMARK                            x       y       z     vdW  Elec       q    Type
REMARK                         _______ _______ _______ _____ _____    ______ ____
ROOT
ATOM      1  N   UNL     1       3.586   2.127  -0.021  0.00  0.00    -0.280 N 
ATOM      2  C   UNL     1       4.284   2.549  -1.142  0.00  0.00    +0.075 A 
ATOM      3  C   UNL     1       4.073   2.431  -2.507  0.00  0.00    +0.028 A 
ATOM      4  C   UNL     1       4.981   2.976  -3.392  0.00  0.00    +0.002 A 
ATOM      5  C   UNL     1       6.105   3.641  -2.925  0.00  0.00    +0.002 A 
ATOM      6  C   UNL     1       6.327   3.774  -1.573  0.00  0.00    +0.030 A 
ATOM      7  C   UNL     1       5.419   3.224  -0.663  0.00  0.00    +0.091 A 
ATOM      8  N   UNL     1       5.370   3.178   0.694  0.00  0.00    -0.214 NA
ATOM      9  C   UNL     1       4.295   2.535   1.075  0.00  0.00    +0.199 A 
ATOM     10  N   UNL     1       3.931   2.304   2.385  0.00  0.00    -0.329 N 
ATOM     11  H   UNL     1       4.566   2.671   3.205  0.00  0.00    +0.145 HD
ATOM     12  H   UNL     1       3.007   1.752   2.610  0.00  0.00    +0.145 HD
ENDROOT
BRANCH   1  17
ATOM     13  C   UNL     1      -1.294  -0.774   0.010  0.00  0.00    +0.044 C 
ATOM     14  C   UNL     1       0.002  -0.004   0.002  0.00  0.00    -0.049 A 
ATOM     15  C   UNL     1      -0.017   1.379   0.010  0.00  0.00    +0.005 A 
ATOM     16  C   UNL     1       1.169   2.087   0.002  0.00  0.00    +0.027 A 
ATOM     17  C   UNL     1       2.381   1.410  -0.013  0.00  0.00    +0.064 A 
ATOM     18  C   UNL     1       2.397   0.021  -0.021  0.00  0.00    +0.042 A 
ATOM     19  C   UNL     1       1.207  -0.682  -0.014  0.00  0.00    +0.020 A 
ATOM     20 BR   UNL     1       4.045  -0.906  -0.042  0.00  0.00    -0.048 Br
ENDBRANCH   1  17
TORSDOF 1
