REMARK  Name = ZINC67028921
REMARK  6 active torsions:
REMARK  status: ('A' for Active; 'I' for Inactive)
REMARK    1  A    between atoms: C_1  and  C_2
REMARK    2  A    between atoms: C_3  and  C_22
REMARK    3  A    between atoms: C_4  and  C_10
REMARK    4  A    between atoms: C_13  and  C_15
REMARK    5  A    between atoms: N_24  and  C_25
REMARK    6  A    between atoms: N_24  and  C_26
REMARK                            x       y       z     vdW  Elec       q    Type
REMARK                         _______ _______ _______ _____ _____    ______ ____
ROOT
ATOM      1  C   UNL     1       0.744   1.373  -0.112  0.00  0.00    +0.061 C 
ATOM      2  C   UNL     1       0.425  -0.100  -0.123  0.00  0.00    +0.017 C 
ATOM      3  C   UNL     1      -0.864  -0.500  -0.138  0.00  0.00    +0.057 C 
ATOM      4  C   UNL     1      -1.140  -1.990  -0.148  0.00  0.00    +0.158 C 
ATOM      5  N   UNL     1       0.029  -2.885  -0.141  0.00  0.00    -0.314 N 
ATOM      6  C   UNL     1       1.259  -2.334  -0.126  0.00  0.00    +0.135 C 
ATOM      7  S   UNL     1       2.628  -3.362  -0.118  0.00  0.00    -0.019 S 
ATOM      8  N   UNL     1       1.445  -1.008  -0.123  0.00  0.00    -0.300 N 
ATOM      9  H   UNL     1      -0.083  -3.849  -0.147  0.00  0.00    +0.149 HD
ATOM     10  H   UNL     1       2.356  -0.673  -0.116  0.00  0.00    +0.154 HD
ENDROOT
BRANCH   4  11
ATOM     11  C   UNL     1      -1.956  -2.303  -1.376  0.00  0.00    +0.074 A 
ATOM     12  C   UNL     1      -1.486  -3.182  -2.300  0.00  0.00    +0.072 A 
ATOM     13  S   UNL     1      -2.824  -3.160  -3.487  0.00  0.00    -0.075 S 
ATOM     14  C   UNL     1      -3.860  -1.985  -2.625  0.00  0.00    +0.109 A 
ATOM     15  N   UNL     1      -3.124  -1.731  -1.552  0.00  0.00    -0.242 NA
BRANCH  14  16
ATOM     16  C   UNL     1      -5.184  -1.446  -3.004  0.00  0.00    +0.007 A 
ATOM     17  C   UNL     1      -5.800  -0.479  -2.208  0.00  0.00    +0.013 A 
ATOM     18  C   UNL     1      -7.035   0.020  -2.566  0.00  0.00    +0.039 A 
ATOM     19  C   UNL     1      -7.664  -0.437  -3.714  0.00  0.00    +0.123 A 
ATOM     20  C   UNL     1      -7.056  -1.397  -4.507  0.00  0.00    +0.039 A 
ATOM     21  C   UNL     1      -5.819  -1.898  -4.162  0.00  0.00    +0.013 A 
ATOM     22  F   UNL     1      -8.874   0.054  -4.059  0.00  0.00    -0.205 F 
ENDBRANCH  14  16
ENDBRANCH   4  11
BRANCH   3  23
ATOM     23  C   UNL     1      -1.923   0.441  -0.143  0.00  0.00    +0.246 C 
ATOM     24  O   UNL     1      -2.513   0.699   0.890  0.00  0.00    -0.270 OA
ATOM     25  N   UNL     1      -2.277   1.050  -1.292  0.00  0.00    -0.304 N 
ATOM     26  C   UNL     1      -3.447   1.931  -1.323  0.00  0.00    +0.132 C 
ATOM     27  C   UNL     1      -1.491   0.832  -2.509  0.00  0.00    +0.132 C 
ENDBRANCH   3  23
TORSDOF 3
