REMARK  Name = ZINC12976806
REMARK  13 active torsions:
REMARK  status: ('A' for Active; 'I' for Inactive)
REMARK    1  A    between atoms: C_1  and  C_2
REMARK    2  A    between atoms: C_2  and  C_3
REMARK    3  A    between atoms: C_3  and  C_4
REMARK    4  A    between atoms: C_4  and  N_5
REMARK    5  A    between atoms: C_6  and  N_36
REMARK    6  A    between atoms: C_7  and  N_14
REMARK    7  A    between atoms: N_14  and  C_15
REMARK    8  A    between atoms: C_15  and  C_16
REMARK    9  A    between atoms: C_16  and  C_17
REMARK   10  A    between atoms: C_17  and  C_18
REMARK   11  A    between atoms: C_17  and  C_19
REMARK   12  A    between atoms: C_20  and  C_22
REMARK   13  A    between atoms: C_23  and  C_35
REMARK                            x       y       z     vdW  Elec       q    Type
REMARK                         _______ _______ _______ _____ _____    ______ ____
ROOT
ATOM      1  N   UNL     1       4.988  -3.390   3.363  0.00  0.00    -0.260 N 
ATOM      2  C   UNL     1       5.410  -3.057   2.127  0.00  0.00    +0.258 C 
ATOM      3  O   UNL     1       4.604  -2.730   1.276  0.00  0.00    -0.269 OA
ENDROOT
BRANCH   2   4
ATOM      4  C   UNL     1       6.841  -3.090   1.807  0.00  0.00    +0.080 A 
ATOM      5  C   UNL     1       7.469  -2.668   0.672  0.00  0.00    -0.017 A 
ATOM      6  C   UNL     1       8.857  -2.787   0.561  0.00  0.00    +0.076 A 
ATOM      7  C   UNL     1       9.517  -3.355   1.674  0.00  0.00    +0.116 A 
ATOM      8  S   UNL     1       8.193  -3.685   2.809  0.00  0.00    -0.064 S 
ATOM      9  N   UNL     1      10.831  -3.521   1.691  0.00  0.00    -0.226 NA
ATOM     10  C   UNL     1      11.594  -3.174   0.683  0.00  0.00    +0.114 A 
ATOM     11  N   UNL     1      11.075  -2.620  -0.442  0.00  0.00    -0.296 N 
ATOM     12  C   UNL     1       9.743  -2.403  -0.558  0.00  0.00    +0.263 A 
ATOM     13  O   UNL     1       9.284  -1.901  -1.568  0.00  0.00    -0.267 OA
ATOM     14  C   UNL     1      12.138  -2.331  -1.421  0.00  0.00    +0.127 C 
ATOM     15  C   UNL     1      13.457  -2.353  -0.622  0.00  0.00    +0.029 C 
ATOM     16  C   UNL     1      13.101  -3.295   0.549  0.00  0.00    +0.076 C 
ATOM     17  C   UNL     1       6.668  -2.076  -0.459  0.00  0.00    +0.046 C 
ENDBRANCH   2   4
BRANCH   1  20
ATOM     18  N   UNL     1       1.851  -2.308   4.939  0.00  0.00    -0.280 N 
ATOM     19  C   UNL     1       3.192  -2.383   4.640  0.00  0.00    +0.127 A 
ATOM     20  C   UNL     1       3.620  -3.289   3.692  0.00  0.00    +0.140 A 
ATOM     21  C   UNL     1       2.669  -4.112   3.059  0.00  0.00    +0.277 A 
ATOM     22  O   UNL     1       3.021  -4.922   2.218  0.00  0.00    -0.266 OA
ATOM     23  N   UNL     1       1.368  -3.998   3.389  0.00  0.00    -0.273 N 
ATOM     24  H   UNL     1       0.711  -4.564   2.954  0.00  0.00    +0.173 HD
ATOM     25  C   UNL     1       0.969  -3.112   4.319  0.00  0.00    +0.331 A 
ATOM     26  O   UNL     1      -0.211  -3.034   4.601  0.00  0.00    -0.246 OA
BRANCH  19  27
ATOM     27  N   UNL     1       4.093  -1.564   5.277  0.00  0.00    -0.343 N 
ATOM     28  H   UNL     1       3.779  -0.880   5.889  0.00  0.00    +0.144 HD
ATOM     29  H   UNL     1       5.044  -1.670   5.114  0.00  0.00    +0.144 HD
ENDBRANCH  19  27
BRANCH  18  30
ATOM     30  C   UNL     1       1.382  -1.350   5.944  0.00  0.00    +0.128 C 
BRANCH  30  31
ATOM     31  C   UNL     1       1.399  -2.009   7.324  0.00  0.00    +0.021 C 
BRANCH  31  33
ATOM     32  C   UNL     1       0.926  -1.668   9.754  0.00  0.00    +0.004 C 
ATOM     33  C   UNL     1       0.909  -1.009   8.373  0.00  0.00    -0.002 C 
ENDBRANCH  31  33
ENDBRANCH  30  31
ENDBRANCH  18  30
ENDBRANCH   1  20
BRANCH   1  34
ATOM     34  C   UNL     1       5.950  -3.857   4.364  0.00  0.00    +0.114 C 
BRANCH  34  35
ATOM     35  C   UNL     1       6.211  -5.351   4.164  0.00  0.00    +0.022 C 
BRANCH  35  36
ATOM     36  C   UNL     1       7.216  -5.838   5.210  0.00  0.00    -0.016 C 
ATOM     37  C   UNL     1       6.598  -5.719   6.604  0.00  0.00    +0.007 C 
ATOM     38  C   UNL     1       7.572  -7.300   4.933  0.00  0.00    +0.007 C 
ENDBRANCH  35  36
ENDBRANCH  34  35
ENDBRANCH   1  34
TORSDOF 9
