REMARK  Name = ZINC33007100
REMARK  6 active torsions:
REMARK  status: ('A' for Active; 'I' for Inactive)
REMARK    1  A    between atoms: C_3  and  N_22
REMARK    2  A    between atoms: C_4  and  C_19
REMARK    3  A    between atoms: C_6  and  N_7
REMARK    4  A    between atoms: N_10  and  C_13
REMARK    5  A    between atoms: N_22  and  S_23
REMARK    6  A    between atoms: S_23  and  C_26
REMARK                            x       y       z     vdW  Elec       q    Type
REMARK                         _______ _______ _______ _____ _____    ______ ____
ROOT
ATOM      1  C   UNL     1       1.250   0.761   2.284  0.00  0.00    +0.025 A 
ATOM      2  C   UNL     1       1.754   0.069   3.366  0.00  0.00    +0.027 A 
ATOM      3  C   UNL     1       1.257   0.309   4.641  0.00  0.00    +0.062 A 
ATOM      4  C   UNL     1       0.245   1.263   4.826  0.00  0.00    +0.087 A 
ATOM      5  C   UNL     1      -0.255   1.964   3.725  0.00  0.00    +0.040 A 
ATOM      6  C   UNL     1       0.250   1.712   2.462  0.00  0.00    +0.030 A 
ENDROOT
BRANCH   6   7
ATOM      7  N   UNL     1      -0.250   2.413   1.358  0.00  0.00    -0.333 N 
ATOM      8  C   UNL     1       0.421   1.994   0.119  0.00  0.00    +0.086 C 
ATOM      9  C   UNL     1      -0.207   2.724  -1.071  0.00  0.00    -0.059 C 
ATOM     10  N   UNL     1      -0.083   4.175  -0.873  0.00  0.00    +0.384 N 
ATOM     11  C   UNL     1      -0.755   4.594   0.365  0.00  0.00    -0.059 C 
ATOM     12  C   UNL     1      -0.128   3.864   1.555  0.00  0.00    +0.086 C 
ATOM     13  H   UNL     1       0.986   4.415  -0.777  0.00  0.00    -0.081 HD
BRANCH  10  14
ATOM     14  C   UNL     1      -0.608   4.910  -2.032  0.00  0.00    -0.068 C 
ATOM     15  C   UNL     1       0.257   4.612  -3.259  0.00  0.00    -0.015 C 
ATOM     16  C   UNL     1      -0.290   5.378  -4.465  0.00  0.00    -0.002 C 
ATOM     17  C   UNL     1      -0.260   6.880  -4.172  0.00  0.00    -0.000 C 
ATOM     18  C   UNL     1      -1.124   7.177  -2.945  0.00  0.00    -0.002 C 
ATOM     19  C   UNL     1      -0.578   6.412  -1.739  0.00  0.00    -0.015 C 
ENDBRANCH  10  14
ENDBRANCH   6   7
BRANCH   4  20
ATOM     20  C   UNL     1      -0.288   1.525   6.174  0.00  0.00    +0.388 C 
ATOM     21  O   UNL     1       0.149   0.914   7.130  0.00  0.00    -0.241 OA
ATOM     22  O   UNL     1      -1.260   2.442   6.349  0.00  0.00    -0.241 OA
ENDBRANCH   4  20
BRANCH   3  23
ATOM     23  N   UNL     1       1.763  -0.393   5.730  0.00  0.00    -0.215 N 
ATOM     24  H   UNL     1       1.095  -0.684   6.554  0.00  0.00    +0.174 HD
BRANCH  23  25
ATOM     25  S   UNL     1       3.369  -0.792   5.785  0.00  0.00    +0.074 S 
ATOM     26  O   UNL     1       4.090   0.371   5.404  0.00  0.00    -0.150 OA
ATOM     27  O   UNL     1       3.582  -1.447   7.028  0.00  0.00    -0.150 OA
BRANCH  25  28
ATOM     28  C   UNL     1       3.651  -1.994   4.528  0.00  0.00    +0.127 A 
ATOM     29  C   UNL     1       4.495  -1.705   3.472  0.00  0.00    +0.033 A 
ATOM     30  C   UNL     1       4.718  -2.647   2.486  0.00  0.00    +0.040 A 
ATOM     31  C   UNL     1       4.095  -3.882   2.555  0.00  0.00    +0.125 A 
ATOM     32  C   UNL     1       3.249  -4.172   3.612  0.00  0.00    +0.060 A 
ATOM     33  C   UNL     1       3.031  -3.229   4.601  0.00  0.00    +0.070 A 
ATOM     34 CL   UNL     1       1.977  -3.594   5.931  0.00  0.00    -0.081 Cl
ATOM     35  F   UNL     1       4.312  -4.803   1.591  0.00  0.00    -0.205 F 
ENDBRANCH  25  28
ENDBRANCH  23  25
ENDBRANCH   3  23
TORSDOF 6
