REMARK  Name = ZINC60375997
REMARK  6 active torsions:
REMARK  status: ('A' for Active; 'I' for Inactive)
REMARK    1  A    between atoms: C_1  and  C_2
REMARK    2  A    between atoms: C_2  and  C_18
REMARK    3  A    between atoms: N_5  and  C_9
REMARK    4  A    between atoms: C_9  and  C_10
REMARK    5  A    between atoms: C_11  and  C_12
REMARK    6  A    between atoms: C_22  and  C_24
REMARK                            x       y       z     vdW  Elec       q    Type
REMARK                         _______ _______ _______ _____ _____    ______ ____
ROOT
ATOM      1  C   UNL     1      -0.019   1.526   0.010  0.00  0.00    +0.047 C 
ATOM      2  C   UNL     1       0.002  -0.004   0.002  0.00  0.00    +0.135 C 
ATOM      3  C   UNL     1       0.815  -0.520  -1.169  0.00  0.00    +0.251 C 
ATOM      4  O   UNL     1       0.595  -0.342  -2.348  0.00  0.00    -0.272 OA
ATOM      5  N   UNL     1       1.833  -1.217  -0.627  0.00  0.00    -0.220 N 
ATOM      6  C   UNL     1       1.777  -1.214   0.710  0.00  0.00    +0.310 C 
ATOM      7  O   UNL     1       2.586  -1.776   1.421  0.00  0.00    -0.252 OA
ATOM      8  N   UNL     1       0.724  -0.519   1.178  0.00  0.00    -0.281 N 
ATOM      9  H   UNL     1       0.487  -0.383   2.109  0.00  0.00    +0.152 HD
ENDROOT
BRANCH   2  10
ATOM     10  C   UNL     1      -1.401  -0.551  -0.040  0.00  0.00    -0.015 A 
ATOM     11  C   UNL     1      -2.004  -0.814  -1.258  0.00  0.00    +0.006 A 
ATOM     12  C   UNL     1      -3.292  -1.317  -1.305  0.00  0.00    +0.001 A 
ATOM     13  C   UNL     1      -3.984  -1.560  -0.137  0.00  0.00    +0.013 A 
ATOM     14  C   UNL     1      -3.382  -1.297   1.095  0.00  0.00    +0.037 A 
ATOM     15  C   UNL     1      -2.080  -0.795   1.136  0.00  0.00    +0.019 A 
BRANCH  14  16
ATOM     16  C   UNL     1      -4.119  -1.554   2.351  0.00  0.00    +0.242 C 
ATOM     17  O   UNL     1      -3.592  -1.324   3.422  0.00  0.00    -0.270 OA
ATOM     18  N   UNL     1      -5.374  -2.044   2.308  0.00  0.00    -0.325 N 
ATOM     19  H   UNL     1      -5.794  -2.227   1.453  0.00  0.00    +0.145 HD
ATOM     20  H   UNL     1      -5.857  -2.212   3.132  0.00  0.00    +0.145 HD
ENDBRANCH  14  16
ENDBRANCH   2  10
BRANCH   5  21
ATOM     21  C   UNL     1       2.871  -1.896  -1.406  0.00  0.00    +0.145 C 
BRANCH  21  22
ATOM     22  C   UNL     1       4.020  -0.950  -1.644  0.00  0.00    -0.007 C 
ATOM     23  C   UNL     1       5.249  -1.296  -1.286  0.00  0.00    +0.005 C 
BRANCH  23  24
ATOM     24  C   UNL     1       6.375  -0.368  -1.520  0.00  0.00    -0.025 A 
ATOM     25  C   UNL     1       6.148   0.875  -2.110  0.00  0.00    +0.008 A 
ATOM     26  C   UNL     1       7.204   1.737  -2.325  0.00  0.00    +0.001 A 
ATOM     27  C   UNL     1       8.486   1.371  -1.957  0.00  0.00    +0.000 A 
ATOM     28  C   UNL     1       8.718   0.139  -1.371  0.00  0.00    +0.001 A 
ATOM     29  C   UNL     1       7.670  -0.729  -1.145  0.00  0.00    +0.008 A 
ENDBRANCH  23  24
ENDBRANCH  21  22
ENDBRANCH   5  21
TORSDOF 5
