REMARK  Name = ZINC46379017
REMARK  7 active torsions:
REMARK  status: ('A' for Active; 'I' for Inactive)
REMARK    1  A    between atoms: C_1  and  C_2
REMARK    2  A    between atoms: N_7  and  C_9
REMARK    3  A    between atoms: C_9  and  C_10
REMARK    4  A    between atoms: C_10  and  N_11
REMARK    5  A    between atoms: N_14  and  C_15
REMARK    6  A    between atoms: C_15  and  C_16
REMARK    7  A    between atoms: N_20  and  C_22
REMARK                            x       y       z     vdW  Elec       q    Type
REMARK                         _______ _______ _______ _____ _____    ______ ____
ROOT
ATOM      1  N   UNL     1       1.963  -4.471   3.744  0.00  0.00    -0.301 N 
ATOM      2  C   UNL     1       2.002  -5.792   4.009  0.00  0.00    +0.300 C 
ATOM      3  O   UNL     1       1.503  -6.583   3.233  0.00  0.00    -0.253 OA
ATOM      4  N   UNL     1       2.594  -6.236   5.136  0.00  0.00    -0.299 N 
ATOM      5  H   UNL     1       2.361  -3.840   4.364  0.00  0.00    +0.150 HD
ATOM      6  H   UNL     1       2.992  -5.605   5.756  0.00  0.00    +0.150 HD
ENDROOT
BRANCH   1   7
ATOM      7  C   UNL     1       1.320  -3.989   2.519  0.00  0.00    +0.087 C 
BRANCH   7   8
ATOM      8  C   UNL     1       1.413  -2.463   2.461  0.00  0.00    -0.060 C 
BRANCH   8  14
ATOM      9  C   UNL     1      -0.019   1.526   0.010  0.00  0.00    +0.005 C 
ATOM     10  C   UNL     1       0.002  -0.004   0.002  0.00  0.00    -0.031 C 
ATOM     11  C   UNL     1       0.721  -0.499  -1.257  0.00  0.00    -0.001 C 
ATOM     12  C   UNL     1       0.805  -2.027  -1.217  0.00  0.00    -0.018 C 
ATOM     13  C   UNL     1       1.518  -2.460   0.066  0.00  0.00    -0.079 C 
ATOM     14  N   UNL     1       0.768  -1.979   1.233  0.00  0.00    +0.381 N 
ATOM     15  C   UNL     1       0.744  -0.512   1.240  0.00  0.00    -0.076 C 
ATOM     16  H   UNL     1      -0.177  -2.330   1.192  0.00  0.00    -0.082 HD
ENDBRANCH   8  14
ENDBRANCH   7   8
ENDBRANCH   1   7
BRANCH   4  17
ATOM     17  C   UNL     1       2.636  -7.671   5.425  0.00  0.00    +0.110 C 
BRANCH  17  18
ATOM     18  C   UNL     1       3.358  -7.904   6.753  0.00  0.00    +0.025 C 
ATOM     19  C   UNL     1       4.872  -7.588   6.626  0.00  0.00    +0.025 C 
ATOM     20  C   UNL     1       5.504  -8.476   7.718  0.00  0.00    +0.105 C 
ATOM     21  N   UNL     1       4.556  -9.566   7.997  0.00  0.00    -0.330 N 
ATOM     22  C   UNL     1       3.383  -9.409   7.116  0.00  0.00    +0.110 C 
BRANCH  21  23
ATOM     23  C   UNL     1       4.736 -10.581   8.939  0.00  0.00    +0.030 A 
ATOM     24  C   UNL     1       3.764 -11.559   9.103  0.00  0.00    +0.023 A 
ATOM     25  C   UNL     1       3.946 -12.562  10.035  0.00  0.00    +0.002 A 
ATOM     26  C   UNL     1       5.094 -12.592  10.806  0.00  0.00    +0.000 A 
ATOM     27  C   UNL     1       6.064 -11.619  10.645  0.00  0.00    +0.002 A 
ATOM     28  C   UNL     1       5.891 -10.617   9.710  0.00  0.00    +0.023 A 
ENDBRANCH  21  23
ENDBRANCH  17  18
ENDBRANCH   4  17
TORSDOF 6
