REMARK  Name = ZINC48646016
REMARK  7 active torsions:
REMARK  status: ('A' for Active; 'I' for Inactive)
REMARK    1  A    between atoms: C_1  and  C_2
REMARK    2  A    between atoms: C_2  and  C_3
REMARK    3  A    between atoms: N_15  and  C_16
REMARK    4  A    between atoms: C_16  and  C_17
REMARK    5  A    between atoms: C_17  and  O_19
REMARK    6  A    between atoms: O_19  and  C_20
REMARK    7  A    between atoms: C_20  and  C_21
REMARK                            x       y       z     vdW  Elec       q    Type
REMARK                         _______ _______ _______ _____ _____    ______ ____
ROOT
ATOM      1  C   UNL     1       0.720  -0.501  -1.260  0.00  0.00    +0.108 C 
ATOM      2  C   UNL     1       0.656  -2.026  -1.331  0.00  0.00    -0.017 A 
ATOM      3  C   UNL     1      -0.504  -2.728  -1.652  0.00  0.00    +0.013 A 
ATOM      4  C   UNL     1      -0.488  -4.080  -1.691  0.00  0.00    +0.046 A 
ATOM      5  S   UNL     1       1.209  -4.440  -1.266  0.00  0.00    -0.101 S 
ATOM      6  C   UNL     1       1.767  -2.768  -1.073  0.00  0.00    -0.004 A 
ATOM      7  C   UNL     1       3.134  -2.281  -0.715  0.00  0.00    +0.062 C 
ATOM      8  C   UNL     1       3.034  -0.811  -0.278  0.00  0.00    +0.115 C 
ATOM      9  N   UNL     1       2.135  -0.112  -1.209  0.00  0.00    -0.278 N 
ATOM     10  C   UNL     1       2.603   0.871  -2.004  0.00  0.00    +0.303 C 
ATOM     11  O   UNL     1       3.753   1.248  -1.892  0.00  0.00    -0.253 OA
ATOM     12  N   UNL     1       1.795   1.435  -2.924  0.00  0.00    -0.289 N 
ATOM     13  H   UNL     1       0.858   1.187  -2.964  0.00  0.00    +0.151 HD
ENDROOT
BRANCH   1  15
ATOM     14  C   UNL     1      -0.022   1.520   0.007  0.00  0.00    +0.006 C 
ATOM     15  C   UNL     1       0.001  -0.010  -0.002  0.00  0.00    +0.024 C 
ENDBRANCH   1  15
BRANCH  12  16
ATOM     16  C   UNL     1       2.332   2.424  -3.863  0.00  0.00    +0.226 C 
BRANCH  16  17
ATOM     17  C   UNL     1       1.233   2.896  -4.778  0.00  0.00    +0.324 C 
ATOM     18  O   UNL     1       0.115   2.453  -4.659  0.00  0.00    -0.249 OA
BRANCH  17  19
ATOM     19  O   UNL     1       1.495   3.809  -5.726  0.00  0.00    -0.464 OA
BRANCH  19  20
ATOM     20  C   UNL     1       0.405   4.212  -6.559  0.00  0.00    +0.229 C 
ATOM     21  C   UNL     1       0.893   5.250  -7.572  0.00  0.00    +0.048 C 
ENDBRANCH  19  20
ENDBRANCH  17  19
ENDBRANCH  16  17
ENDBRANCH  12  16
TORSDOF 5
