REMARK  Name = ZINC21136929
REMARK  8 active torsions:
REMARK  status: ('A' for Active; 'I' for Inactive)
REMARK    1  A    between atoms: C_5  and  C_7
REMARK    2  A    between atoms: C_7  and  C_9
REMARK    3  A    between atoms: C_7  and  N_25
REMARK    4  A    between atoms: C_9  and  C_10
REMARK    5  A    between atoms: C_10  and  O_12
REMARK    6  A    between atoms: O_12  and  C_13
REMARK    7  A    between atoms: C_13  and  C_14
REMARK    8  A    between atoms: N_16  and  C_17
REMARK                            x       y       z     vdW  Elec       q    Type
REMARK                         _______ _______ _______ _____ _____    ______ ____
ROOT
ATOM      1  C   UNL     1       2.663   4.284   1.581  0.00  0.00    +0.147 C 
ENDROOT
BRANCH   1   2
ATOM      2  C   UNL     1       3.857   5.186   1.757  0.00  0.00    +0.310 C 
ATOM      3  O   UNL     1       4.517   5.508   0.798  0.00  0.00    -0.251 OA
BRANCH   2   4
ATOM      4  O   UNL     1       4.188   5.631   2.980  0.00  0.00    -0.455 OA
BRANCH   4   5
ATOM      5  C   UNL     1       5.351   6.496   3.074  0.00  0.00    +0.328 C 
BRANCH   5   6
ATOM      6  C   UNL     1       5.566   6.892   4.512  0.00  0.00    +0.255 C 
ATOM      7  O   UNL     1       4.814   6.486   5.372  0.00  0.00    -0.272 OA
ATOM      8  N   UNL     1       6.594   7.698   4.842  0.00  0.00    -0.281 N 
ATOM      9  H   UNL     1       7.321   8.005   4.075  0.00  0.00    +0.155 HD
BRANCH   8  10
ATOM     10  C   UNL     1       6.739   8.145   6.161  0.00  0.00    +0.053 A 
ATOM     11  C   UNL     1       6.365   7.325   7.218  0.00  0.00    +0.044 A 
ATOM     12  C   UNL     1       6.513   7.767   8.519  0.00  0.00    +0.043 A 
ATOM     13  C   UNL     1       7.024   9.030   8.769  0.00  0.00    +0.021 A 
ATOM     14  C   UNL     1       7.391   9.850   7.718  0.00  0.00    +0.023 A 
ATOM     15  C   UNL     1       7.250   9.412   6.415  0.00  0.00    +0.062 A 
ATOM     16 CL   UNL     1       7.713  10.442   5.097  0.00  0.00    -0.082 Cl
ATOM     17 CL   UNL     1       6.053   6.741   9.841  0.00  0.00    -0.083 Cl
ENDBRANCH   8  10
ENDBRANCH   5   6
ENDBRANCH   4   5
ENDBRANCH   2   4
ENDBRANCH   1   2
BRANCH   1  18
ATOM     18  C   UNL     1       2.508   3.925   0.102  0.00  0.00    +0.117 C 
BRANCH  18  23
ATOM     19  C   UNL     1      -0.563   1.852   0.824  0.00  0.00    +0.000 A 
ATOM     20  C   UNL     1      -1.068   1.653  -0.448  0.00  0.00    +0.001 A 
ATOM     21  C   UNL     1      -0.421   2.197  -1.541  0.00  0.00    +0.020 A 
ATOM     22  C   UNL     1       0.738   2.932  -1.364  0.00  0.00    +0.046 A 
ATOM     23  C   UNL     1       1.246   3.126  -0.092  0.00  0.00    -0.008 A 
ATOM     24  C   UNL     1       0.595   2.586   1.002  0.00  0.00    +0.007 A 
ATOM     25 CL   UNL     1       1.555   3.610  -2.738  0.00  0.00    -0.083 Cl
ENDBRANCH  18  23
BRANCH  18  26
ATOM     26  N   UNL     1       3.661   3.131  -0.331  0.00  0.00    -0.292 N 
ATOM     27  C   UNL     1       3.893   1.924   0.223  0.00  0.00    +0.298 C 
ATOM     28  O   UNL     1       3.098   1.455   1.014  0.00  0.00    -0.253 OA
ATOM     29  N   UNL     1       5.007   1.238  -0.101  0.00  0.00    -0.313 N 
ATOM     30  H   UNL     1       4.336   3.519  -1.107  0.00  0.00    +0.151 HD
ATOM     31  H   UNL     1       5.197   0.253   0.350  0.00  0.00    +0.146 HD
ATOM     32  H   UNL     1       5.726   1.662  -0.817  0.00  0.00    +0.146 HD
ENDBRANCH  18  26
ENDBRANCH   1  18
TORSDOF 8
