REMARK  Name = ZINC67392646
REMARK  10 active torsions:
REMARK  status: ('A' for Active; 'I' for Inactive)
REMARK    1  A    between atoms: C_1  and  C_2
REMARK    2  A    between atoms: C_2  and  C_3
REMARK    3  A    between atoms: C_3  and  C_4
REMARK    4  A    between atoms: C_10  and  C_12
REMARK    5  A    between atoms: N_14  and  C_15
REMARK    6  A    between atoms: C_15  and  C_16
REMARK    7  A    between atoms: C_16  and  C_17
REMARK    8  A    between atoms: C_16  and  C_18
REMARK    9  A    between atoms: C_16  and  N_19
REMARK   10  A    between atoms: C_23  and  C_26
REMARK                            x       y       z     vdW  Elec       q    Type
REMARK                         _______ _______ _______ _____ _____    ______ ____
ROOT
ATOM      1  C   UNL     1      -2.807 -10.627  -1.714  0.00  0.00    +0.299 C 
ATOM      2  O   UNL     1      -2.054  -9.780  -2.147  0.00  0.00    -0.265 OA
ATOM      3  N   UNL     1      -2.537 -11.231  -0.539  0.00  0.00    -0.309 N 
ATOM      4  H   UNL     1      -3.139 -11.909  -0.193  0.00  0.00    +0.149 HD
ENDROOT
BRANCH   1  11
ATOM      5  C   UNL     1      -7.516 -11.159  -5.987  0.00  0.00    +0.104 A 
ATOM      6  N   UNL     1      -7.369 -11.822  -4.856  0.00  0.00    -0.145 NA
ATOM      7  N   UNL     1      -6.388 -11.629  -4.087  0.00  0.00    -0.126 NA
ATOM      8  C   UNL     1      -5.442 -10.744  -4.369  0.00  0.00    +0.188 A 
ATOM      9  S   UNL     1      -6.051 -10.131  -5.937  0.00  0.00    -0.035 S 
ATOM     10  N   UNL     1      -4.303 -10.397  -3.655  0.00  0.00    -0.255 N 
ATOM     11  C   UNL     1      -4.033 -11.001  -2.481  0.00  0.00    +0.305 C 
ATOM     12  O   UNL     1      -4.785 -11.848  -2.047  0.00  0.00    -0.265 OA
ATOM     13  H   UNL     1      -3.701  -9.720  -4.002  0.00  0.00    +0.157 HD
BRANCH   5  14
ATOM     14  C   UNL     1      -8.603 -11.246  -7.027  0.00  0.00    +0.064 C 
BRANCH  14  16
ATOM     15  C   UNL     1     -10.818 -10.339  -7.744  0.00  0.00    +0.004 C 
ATOM     16  C   UNL     1      -9.714 -10.250  -6.688  0.00  0.00    +0.003 C 
ENDBRANCH  14  16
ENDBRANCH   5  14
ENDBRANCH   1  11
BRANCH   3  17
ATOM     17  C   UNL     1      -1.335 -10.865   0.213  0.00  0.00    +0.092 C 
BRANCH  17  18
ATOM     18  C   UNL     1      -1.333 -11.595   1.558  0.00  0.00    -0.055 C 
ATOM     19  C   UNL     1      -1.208 -13.101   1.320  0.00  0.00    -0.008 C 
ATOM     20  C   UNL     1      -0.150 -11.112   2.399  0.00  0.00    -0.008 C 
BRANCH  18  21
ATOM     21  N   UNL     1      -2.587 -11.315   2.270  0.00  0.00    +0.384 N 
ATOM     22  C   UNL     1      -2.727  -9.866   2.459  0.00  0.00    -0.078 C 
ATOM     23  C   UNL     1      -4.069  -9.562   3.128  0.00  0.00    -0.018 C 
ATOM     24  C   UNL     1      -4.126 -10.264   4.487  0.00  0.00    -0.001 C 
ATOM     25  C   UNL     1      -3.905 -11.766   4.285  0.00  0.00    -0.031 C 
ATOM     26  C   UNL     1      -2.569 -11.988   3.574  0.00  0.00    -0.075 C 
ATOM     27  C   UNL     1      -3.883 -12.467   5.645  0.00  0.00    +0.005 C 
ATOM     28  H   UNL     1      -3.365 -11.657   1.726  0.00  0.00    -0.081 HD
ENDBRANCH  18  21
ENDBRANCH  17  18
ENDBRANCH   3  17
TORSDOF 6
