REMARK  Name = ZINC34703472
REMARK  9 active torsions:
REMARK  status: ('A' for Active; 'I' for Inactive)
REMARK    1  A    between atoms: C_1  and  C_2
REMARK    2  A    between atoms: C_2  and  O_4
REMARK    3  A    between atoms: O_4  and  C_5
REMARK    4  A    between atoms: C_9  and  C_35
REMARK    5  A    between atoms: C_14  and  C_34
REMARK    6  A    between atoms: C_15  and  C_28
REMARK    7  A    between atoms: C_19  and  O_27
REMARK    8  A    between atoms: C_24  and  O_26
REMARK    9  A    between atoms: C_35  and  O_36
REMARK                            x       y       z     vdW  Elec       q    Type
REMARK                         _______ _______ _______ _____ _____    ______ ____
ROOT
ATOM      1  C   UNL     1      -0.216  -2.501  -0.812  0.00  0.00    +0.179 C 
ATOM      2  C   UNL     1       1.259  -2.887  -0.752  0.00  0.00    +0.045 C 
ATOM      3  C   UNL     1       1.428  -4.402  -0.812  0.00  0.00    +0.016 C 
ATOM      4  C   UNL     1       0.797  -4.966  -2.097  0.00  0.00    +0.026 C 
ATOM      5  C   UNL     1       0.935  -6.481  -2.088  0.00  0.00    +0.006 C 
ATOM      6  C   UNL     1       2.384  -6.938  -2.052  0.00  0.00    +0.005 C 
ATOM      7  C   UNL     1       2.990  -7.120  -3.431  0.00  0.00    +0.010 C 
ATOM      8  C   UNL     1       2.187  -8.078  -4.301  0.00  0.00    +0.004 C 
ATOM      9  C   UNL     1       2.662  -7.909  -5.768  0.00  0.00    +0.027 C 
ATOM     10  C   UNL     1       1.931  -6.638  -6.247  0.00  0.00    +0.011 C 
ATOM     11  C   UNL     1       0.574  -6.648  -5.509  0.00  0.00    +0.036 C 
ATOM     12  C   UNL     1       0.708  -7.669  -4.376  0.00  0.00    +0.075 C 
ATOM     13  C   UNL     1       0.097  -7.245  -3.071  0.00  0.00    +0.025 C 
ATOM     14  C   UNL     1      -1.316  -6.707  -3.259  0.00  0.00    +0.009 C 
ATOM     15  C   UNL     1      -1.373  -5.187  -3.319  0.00  0.00    +0.036 C 
ATOM     16  C   UNL     1      -0.688  -4.593  -2.092  0.00  0.00    +0.077 C 
ATOM     17  C   UNL     1      -0.865  -3.078  -2.071  0.00  0.00    +0.080 C 
ATOM     18  C   UNL     1       2.345  -9.534  -3.838  0.00  0.00    +0.014 C 
ENDROOT
BRANCH   9  19
ATOM     19  C   UNL     1       4.155  -7.739  -5.872  0.00  0.00    -0.022 C 
ATOM     20  C   UNL     1       4.811  -6.605  -6.109  0.00  0.00    +0.094 C 
ATOM     21  C   UNL     1       6.251  -6.880  -6.128  0.00  0.00    +0.332 C 
ATOM     22  O   UNL     1       7.118  -6.051  -6.320  0.00  0.00    -0.246 OA
ATOM     23  O   UNL     1       6.468  -8.188  -5.902  0.00  0.00    -0.457 OA
ATOM     24  C   UNL     1       5.197  -8.822  -5.720  0.00  0.00    +0.264 C 
ENDBRANCH   9  19
BRANCH  16  25
ATOM     25  O   UNL     1      -1.299  -5.140  -0.914  0.00  0.00    -0.388 OA
ATOM     26  H   UNL     1      -2.244  -4.948  -0.835  0.00  0.00    +0.210 HD
ENDBRANCH  16  25
BRANCH  12  27
ATOM     27  O   UNL     1      -0.015  -8.853  -4.798  0.00  0.00    -0.388 OA
ATOM     28  H   UNL     1      -0.970  -8.722  -4.884  0.00  0.00    +0.210 HD
ENDBRANCH  12  27
BRANCH   1  29
ATOM     29  O   UNL     1      -0.328  -1.075  -0.837  0.00  0.00    -0.461 OA
BRANCH  29  31
ATOM     30  C   UNL     1      -0.536   1.052   0.400  0.00  0.00    +0.136 C 
ATOM     31  C   UNL     1      -0.415  -0.450   0.348  0.00  0.00    +0.304 C 
ATOM     32  O   UNL     1      -0.396  -1.090   1.372  0.00  0.00    -0.251 OA
ENDBRANCH  29  31
ENDBRANCH   1  29
BRANCH   4  33
ATOM     33  C   UNL     1       1.502  -4.339  -3.294  0.00  0.00    +0.165 C 
BRANCH  33  34
ATOM     34  O   UNL     1       1.344  -2.919  -3.250  0.00  0.00    -0.394 OA
ATOM     35  H   UNL     1       1.768  -2.453  -3.983  0.00  0.00    +0.209 HD
ENDBRANCH  33  34
ENDBRANCH   4  33
TORSDOF 7
