REMARK  Name = ZINC63843566
REMARK  5 active torsions:
REMARK  status: ('A' for Active; 'I' for Inactive)
REMARK    1  A    between atoms: C_1  and  C_2
REMARK    2  A    between atoms: C_5  and  C_24
REMARK    3  A    between atoms: C_8  and  C_10
REMARK    4  A    between atoms: C_14  and  C_16
REMARK    5  A    between atoms: C_16  and  N_17
REMARK                            x       y       z     vdW  Elec       q    Type
REMARK                         _______ _______ _______ _____ _____    ______ ____
ROOT
ATOM      1  C   UNL     1       2.409  -0.144   2.950  0.00  0.00    +0.037 A 
ATOM      2  C   UNL     1       2.622  -1.517   3.083  0.00  0.00    +0.013 A 
ATOM      3  C   UNL     1       3.462  -1.989   4.071  0.00  0.00    +0.001 A 
ATOM      4  C   UNL     1       4.092  -1.105   4.928  0.00  0.00    +0.005 A 
ATOM      5  C   UNL     1       3.885   0.257   4.802  0.00  0.00    -0.029 A 
ATOM      6  C   UNL     1       3.052   0.743   3.814  0.00  0.00    +0.018 A 
ENDROOT
BRANCH   1  14
ATOM      7  C   UNL     1       0.074   1.465  -0.096  0.00  0.00    +0.028 C 
ATOM      8  C   UNL     1      -0.331   0.047   0.313  0.00  0.00    +0.073 C 
ATOM      9  C   UNL     1      -1.805   0.034   0.730  0.00  0.00    +0.023 C 
ATOM     10  C   UNL     1      -2.167  -1.352   1.269  0.00  0.00    +0.016 C 
ATOM     11  C   UNL     1      -1.313  -1.660   2.502  0.00  0.00    +0.092 C 
ATOM     12  C   UNL     1       0.166  -1.666   2.105  0.00  0.00    +0.121 C 
ATOM     13  N   UNL     1       0.486  -0.389   1.454  0.00  0.00    -0.294 N 
ATOM     14  C   UNL     1       1.511   0.369   1.893  0.00  0.00    +0.247 C 
ATOM     15  O   UNL     1       1.696   1.473   1.421  0.00  0.00    -0.270 OA
BRANCH  11  16
ATOM     16  C   UNL     1      -1.693  -3.011   3.051  0.00  0.00    +0.215 C 
ATOM     17  O   UNL     1      -2.560  -3.664   2.510  0.00  0.00    -0.276 OA
ATOM     18  N   UNL     1      -1.068  -3.494   4.143  0.00  0.00    -0.329 N 
ATOM     19  H   UNL     1      -0.374  -2.972   4.576  0.00  0.00    +0.145 HD
ATOM     20  H   UNL     1      -1.312  -4.363   4.497  0.00  0.00    +0.145 HD
ENDBRANCH  11  16
ENDBRANCH   1  14
BRANCH   5  21
ATOM     21  C   UNL     1       4.575   1.213   5.740  0.00  0.00    +0.153 C 
BRANCH  21  22
ATOM     22  N   UNL     1       5.869   1.604   5.175  0.00  0.00    -0.220 N 
ATOM     23  C   UNL     1       7.022   0.944   5.396  0.00  0.00    +0.240 C 
ATOM     24  O   UNL     1       7.180  -0.049   6.075  0.00  0.00    -0.273 OA
ATOM     25  C   UNL     1       8.082   1.699   4.620  0.00  0.00    +0.202 C 
ATOM     26  N   UNL     1       7.333   2.801   3.992  0.00  0.00    -0.290 N 
ATOM     27  C   UNL     1       6.050   2.658   4.371  0.00  0.00    +0.309 C 
ATOM     28  O   UNL     1       5.156   3.404   4.024  0.00  0.00    -0.252 OA
ATOM     29  H   UNL     1       7.693   3.492   3.415  0.00  0.00    +0.151 HD
ENDBRANCH  21  22
ENDBRANCH   5  21
TORSDOF 4
