REMARK  Name = ZINC66343136
REMARK  6 active torsions:
REMARK  status: ('A' for Active; 'I' for Inactive)
REMARK    1  A    between atoms: C_1  and  C_2
REMARK    2  A    between atoms: C_7  and  C_8
REMARK    3  A    between atoms: C_8  and  N_9
REMARK    4  A    between atoms: N_12  and  C_13
REMARK    5  A    between atoms: C_13  and  C_14
REMARK    6  A    between atoms: N_18  and  C_20
REMARK                            x       y       z     vdW  Elec       q    Type
REMARK                         _______ _______ _______ _____ _____    ______ ____
ROOT
ATOM      1  N   UNL     1      -1.338   0.477   2.823  0.00  0.00    -0.295 N 
ATOM      2  C   UNL     1      -1.579   1.167   3.955  0.00  0.00    +0.300 C 
ATOM      3  O   UNL     1      -0.665   1.431   4.712  0.00  0.00    -0.253 OA
ATOM      4  N   UNL     1      -2.833   1.564   4.248  0.00  0.00    -0.299 N 
ATOM      5  H   UNL     1      -2.067   0.266   2.219  0.00  0.00    +0.151 HD
ATOM      6  H   UNL     1      -3.562   1.353   3.644  0.00  0.00    +0.150 HD
ENDROOT
BRANCH   1   7
ATOM      7  C   UNL     1       0.025   0.045   2.504  0.00  0.00    +0.141 C 
BRANCH   7  14
ATOM      8  C   UNL     1      -0.018   1.503   0.010  0.00  0.00    +0.044 C 
ATOM      9  C   UNL     1       0.002  -0.004   0.002  0.00  0.00    -0.046 A 
ATOM     10  C   UNL     1       0.006  -0.689  -1.199  0.00  0.00    +0.003 A 
ATOM     11  C   UNL     1       0.025  -2.071  -1.207  0.00  0.00    +0.000 A 
ATOM     12  C   UNL     1       0.040  -2.768  -0.013  0.00  0.00    +0.000 A 
ATOM     13  C   UNL     1       0.037  -2.084   1.188  0.00  0.00    +0.005 A 
ATOM     14  C   UNL     1       0.023  -0.702   1.195  0.00  0.00    -0.027 A 
ENDBRANCH   7  14
ENDBRANCH   1   7
BRANCH   4  15
ATOM     15  C   UNL     1      -3.095   2.314   5.479  0.00  0.00    +0.110 C 
BRANCH  15  16
ATOM     16  C   UNL     1      -4.588   2.640   5.569  0.00  0.00    +0.025 C 
ATOM     17  C   UNL     1      -4.995   3.686   4.498  0.00  0.00    +0.025 C 
ATOM     18  C   UNL     1      -6.223   4.371   5.134  0.00  0.00    +0.105 C 
ATOM     19  N   UNL     1      -6.140   4.156   6.586  0.00  0.00    -0.330 N 
ATOM     20  C   UNL     1      -4.912   3.395   6.882  0.00  0.00    +0.110 C 
BRANCH  19  21
ATOM     21  C   UNL     1      -7.071   4.600   7.530  0.00  0.00    +0.030 A 
ATOM     22  C   UNL     1      -6.874   4.335   8.879  0.00  0.00    +0.026 A 
ATOM     23  C   UNL     1      -7.795   4.775   9.810  0.00  0.00    +0.040 A 
ATOM     24  C   UNL     1      -8.914   5.479   9.399  0.00  0.00    +0.124 A 
ATOM     25  C   UNL     1      -9.113   5.743   8.054  0.00  0.00    +0.040 A 
ATOM     26  C   UNL     1      -8.192   5.310   7.120  0.00  0.00    +0.026 A 
ATOM     27  F   UNL     1      -9.814   5.908  10.311  0.00  0.00    -0.205 F 
ENDBRANCH  19  21
ENDBRANCH  15  16
ENDBRANCH   4  15
TORSDOF 5
