REMARK  Name = ZINC67159222
REMARK  9 active torsions:
REMARK  status: ('A' for Active; 'I' for Inactive)
REMARK    1  A    between atoms: C_1  and  C_2
REMARK    2  A    between atoms: C_2  and  C_3
REMARK    3  A    between atoms: C_2  and  C_4
REMARK    4  A    between atoms: C_4  and  C_5
REMARK    5  A    between atoms: C_5  and  C_6
REMARK    6  A    between atoms: N_8  and  C_9
REMARK    7  A    between atoms: C_9  and  C_10
REMARK    8  A    between atoms: N_12  and  C_13
REMARK    9  A    between atoms: N_17  and  C_19
REMARK                            x       y       z     vdW  Elec       q    Type
REMARK                         _______ _______ _______ _____ _____    ______ ____
ROOT
ATOM      1  C   UNL     1       0.116  -0.500   7.370  0.00  0.00    +0.230 C 
ATOM      2  O   UNL     1      -0.923   0.117   7.269  0.00  0.00    -0.274 OA
ATOM      3  N   UNL     1       0.581  -0.844   8.587  0.00  0.00    -0.313 N 
ATOM      4  H   UNL     1       1.413  -1.337   8.667  0.00  0.00    +0.149 HD
ENDROOT
BRANCH   3   5
ATOM      5  C   UNL     1      -0.169  -0.473   9.789  0.00  0.00    +0.055 C 
ATOM      6  C   UNL     1      -1.216  -1.560  10.125  0.00  0.00    +0.002 C 
ATOM      7  C   UNL     1      -0.494  -2.417  11.195  0.00  0.00    -0.077 C 
ATOM      8  N   UNL     1       0.255  -1.409  11.989  0.00  0.00    +0.383 N 
ATOM      9  C   UNL     1       0.768  -0.423  11.010  0.00  0.00    -0.056 C 
ATOM     10  H   UNL     1      -0.361  -0.957  12.647  0.00  0.00    -0.081 HD
BRANCH   8  11
ATOM     11  C   UNL     1       1.372  -2.050  12.696  0.00  0.00    -0.069 C 
ATOM     12  C   UNL     1       0.814  -3.157  13.613  0.00  0.00    -0.015 C 
ATOM     13  C   UNL     1       1.925  -4.122  13.928  0.00  0.00    -0.002 C 
ATOM     14  C   UNL     1       2.641  -3.785  15.250  0.00  0.00    -0.000 C 
ATOM     15  C   UNL     1       2.885  -2.275  15.429  0.00  0.00    -0.000 C 
ATOM     16  C   UNL     1       3.341  -1.610  14.158  0.00  0.00    -0.002 C 
ATOM     17  C   UNL     1       2.106  -1.034  13.436  0.00  0.00    -0.015 C 
ENDBRANCH   8  11
ENDBRANCH   3   5
BRANCH   1  18
ATOM     18  C   UNL     1       0.888  -0.881   6.133  0.00  0.00    +0.200 C 
BRANCH  18  21
ATOM     19  C   UNL     1       0.687  -0.623   3.718  0.00  0.00    +0.213 C 
ATOM     20  O   UNL     1       1.731  -1.229   3.596  0.00  0.00    -0.276 OA
ATOM     21  N   UNL     1       0.179  -0.396   4.946  0.00  0.00    -0.307 N 
ATOM     22  H   UNL     1      -0.655   0.089   5.044  0.00  0.00    +0.149 HD
BRANCH  19  23
ATOM     23  C   UNL     1      -0.042  -0.124   2.497  0.00  0.00    +0.096 C 
BRANCH  23  24
ATOM     24  C   UNL     1       0.742  -0.511   1.242  0.00  0.00    +0.012 C 
BRANCH  24  26
ATOM     25  C   UNL     1      -0.019   1.526   0.010  0.00  0.00    +0.007 C 
ATOM     26  C   UNL     1       0.002  -0.004   0.002  0.00  0.00    -0.017 C 
ATOM     27  C   UNL     1       0.718  -0.497  -1.257  0.00  0.00    +0.007 C 
ENDBRANCH  24  26
ENDBRANCH  23  24
ENDBRANCH  19  23
ENDBRANCH  18  21
ENDBRANCH   1  18
TORSDOF 7
