REMARK  Name = ZINC16951757
REMARK  11 active torsions:
REMARK  status: ('A' for Active; 'I' for Inactive)
REMARK    1  A    between atoms: C_1  and  O_2
REMARK    2  A    between atoms: O_2  and  C_3
REMARK    3  A    between atoms: C_7  and  O_9
REMARK    4  A    between atoms: O_9  and  C_10
REMARK    5  A    between atoms: C_12  and  O_25
REMARK    6  A    between atoms: C_14  and  O_24
REMARK    7  A    between atoms: C_16  and  O_23
REMARK    8  A    between atoms: C_18  and  C_21
REMARK    9  A    between atoms: C_21  and  O_22
REMARK   10  A    between atoms: C_29  and  C_32
REMARK   11  A    between atoms: C_35  and  O_38
REMARK                            x       y       z     vdW  Elec       q    Type
REMARK                         _______ _______ _______ _____ _____    ______ ____
ROOT
ATOM      1  C   UNL     1       3.208   7.438  -1.425  0.00  0.00    +0.127 A 
ATOM      2  C   UNL     1       4.395   8.160  -1.414  0.00  0.00    +0.092 A 
ATOM      3  C   UNL     1       5.609   7.501  -1.340  0.00  0.00    +0.139 A 
ATOM      4  C   UNL     1       5.626   6.095  -1.264  0.00  0.00    +0.101 A 
ATOM      5  C   UNL     1       4.424   5.371  -1.286  0.00  0.00    +0.141 A 
ATOM      6  C   UNL     1       3.221   6.050  -1.363  0.00  0.00    +0.092 A 
ATOM      7  C   UNL     1       6.916   5.402  -1.172  0.00  0.00    +0.174 C 
ATOM      8  O   UNL     1       6.987   4.224  -0.890  0.00  0.00    -0.292 OA
ATOM      9  C   UNL     1       8.156   6.234  -1.443  0.00  0.00    +0.129 C 
ATOM     10  C   UNL     1       7.935   7.606  -0.789  0.00  0.00    +0.211 C 
ATOM     11  O   UNL     1       6.763   8.208  -1.338  0.00  0.00    -0.483 OA
ENDROOT
BRANCH  10  12
ATOM     12  C   UNL     1       9.127   8.489  -1.056  0.00  0.00    -0.007 A 
ATOM     13  C   UNL     1       9.205   9.204  -2.236  0.00  0.00    +0.011 A 
ATOM     14  C   UNL     1      10.294  10.018  -2.481  0.00  0.00    +0.046 A 
ATOM     15  C   UNL     1      11.314  10.110  -1.546  0.00  0.00    +0.117 A 
ATOM     16  C   UNL     1      11.236   9.387  -0.364  0.00  0.00    +0.046 A 
ATOM     17  C   UNL     1      10.142   8.578  -0.122  0.00  0.00    +0.011 A 
BRANCH  15  18
ATOM     18  O   UNL     1      12.389  10.906  -1.786  0.00  0.00    -0.507 OA
ATOM     19  H   UNL     1      13.115  10.460  -2.243  0.00  0.00    +0.292 HD
ENDBRANCH  15  18
ENDBRANCH  10  12
BRANCH   1  21
ATOM     20  C   UNL     1       0.838   7.298  -1.503  0.00  0.00    +0.277 C 
ATOM     21  O   UNL     1       2.023   8.096  -1.497  0.00  0.00    -0.495 OA
ENDBRANCH   1  21
BRANCH   5  22
ATOM     22  O   UNL     1       4.441   4.017  -1.226  0.00  0.00    -0.460 OA
BRANCH  22  23
ATOM     23  C   UNL     1       3.177   3.350  -1.248  0.00  0.00    +0.339 C 
ATOM     24  C   UNL     1       3.399   1.836  -1.300  0.00  0.00    +0.214 C 
ATOM     25  C   UNL     1       2.042   1.128  -1.262  0.00  0.00    +0.180 C 
ATOM     26  C   UNL     1       1.286   1.562  -0.002  0.00  0.00    +0.177 C 
ATOM     27  C   UNL     1       1.146   3.086  -0.000  0.00  0.00    +0.179 C 
ATOM     28  O   UNL     1       2.443   3.683  -0.068  0.00  0.00    -0.331 OA
BRANCH  26  29
ATOM     29  O   UNL     1      -0.011   0.963   0.007  0.00  0.00    -0.386 OA
ATOM     30  H   UNL     1       0.002  -0.004   0.002  0.00  0.00    +0.210 HD
ENDBRANCH  26  29
BRANCH  25  31
ATOM     31  O   UNL     1       2.242  -0.287  -1.236  0.00  0.00    -0.386 OA
ATOM     32  H   UNL     1       2.715  -0.632  -2.005  0.00  0.00    +0.210 HD
ENDBRANCH  25  31
BRANCH  24  33
ATOM     33  O   UNL     1       4.083   1.494  -2.506  0.00  0.00    -0.383 OA
ATOM     34  H   UNL     1       4.952   1.908  -2.597  0.00  0.00    +0.210 HD
ENDBRANCH  24  33
BRANCH  27  35
ATOM     35  C   UNL     1       0.446   3.533   1.284  0.00  0.00    +0.190 C 
BRANCH  35  36
ATOM     36  O   UNL     1       0.210   4.941   1.234  0.00  0.00    -0.392 OA
ATOM     37  H   UNL     1      -0.232   5.295   2.018  0.00  0.00    +0.210 HD
ENDBRANCH  35  36
ENDBRANCH  27  35
ENDBRANCH  22  23
ENDBRANCH   5  22
TORSDOF 10
