REMARK  Name = ZINC56017475
REMARK  5 active torsions:
REMARK  status: ('A' for Active; 'I' for Inactive)
REMARK    1  A    between atoms: C_1  and  C_2
REMARK    2  A    between atoms: C_6  and  C_25
REMARK    3  A    between atoms: C_10  and  C_12
REMARK    4  A    between atoms: C_12  and  O_13
REMARK    5  A    between atoms: O_13  and  C_14
REMARK                            x       y       z     vdW  Elec       q    Type
REMARK                         _______ _______ _______ _____ _____    ______ ____
ROOT
ATOM      1  C   UNL     1       0.008   1.528  -0.006  0.00  0.00    +0.028 C 
ATOM      2  C   UNL     1       0.016  -0.002  -0.007  0.00  0.00    +0.073 C 
ATOM      3  C   UNL     1       0.633  -0.512  -1.313  0.00  0.00    +0.023 C 
ATOM      4  C   UNL     1       0.765  -2.035  -1.250  0.00  0.00    +0.016 C 
ATOM      5  C   UNL     1       1.692  -2.421  -0.095  0.00  0.00    +0.092 C 
ATOM      6  C   UNL     1       1.087  -1.933   1.225  0.00  0.00    +0.121 C 
ATOM      7  N   UNL     1       0.819  -0.492   1.122  0.00  0.00    -0.295 N 
ATOM      8  C   UNL     1       1.304   0.365   2.042  0.00  0.00    +0.253 C 
ATOM      9  O   UNL     1       0.994   1.537   2.003  0.00  0.00    -0.272 OA
ENDROOT
BRANCH   5  10
ATOM     10  C   UNL     1       1.847  -3.920  -0.054  0.00  0.00    +0.215 C 
ATOM     11  O   UNL     1       1.274  -4.611  -0.869  0.00  0.00    -0.276 OA
ATOM     12  N   UNL     1       2.624  -4.491   0.887  0.00  0.00    -0.329 N 
ATOM     13  H   UNL     1       3.083  -3.938   1.539  0.00  0.00    +0.145 HD
ATOM     14  H   UNL     1       2.725  -5.455   0.914  0.00  0.00    +0.145 HD
ENDBRANCH   5  10
BRANCH   8  15
ATOM     15  C   UNL     1       2.232  -0.133   3.120  0.00  0.00    +0.324 C 
BRANCH  15  16
ATOM     16  O   UNL     1       2.606   0.956   3.967  0.00  0.00    -0.483 OA
BRANCH  16  17
ATOM     17  C   UNL     1       3.447   0.675   4.997  0.00  0.00    +0.122 A 
ATOM     18  C   UNL     1       3.906  -0.621   5.185  0.00  0.00    +0.047 A 
ATOM     19  C   UNL     1       4.760  -0.907   6.232  0.00  0.00    +0.027 A 
ATOM     20  C   UNL     1       5.160   0.103   7.097  0.00  0.00    +0.037 A 
ATOM     21  C   UNL     1       4.700   1.399   6.908  0.00  0.00    -0.022 A 
ATOM     22  C   UNL     1       3.851   1.685   5.858  0.00  0.00    +0.051 A 
ATOM     23  C   UNL     1       5.136   2.493   7.848  0.00  0.00    +0.046 C 
ATOM     24  C   UNL     1       5.306   1.921   9.255  0.00  0.00    +0.101 C 
ATOM     25  C   UNL     1       6.130   0.662   9.201  0.00  0.00    +0.218 C 
ATOM     26  O   UNL     1       6.895   0.407  10.106  0.00  0.00    -0.275 OA
ATOM     27  N   UNL     1       6.026  -0.183   8.159  0.00  0.00    -0.285 N 
ATOM     28  H   UNL     1       6.554  -0.997   8.144  0.00  0.00    +0.155 HD
ENDBRANCH  16  17
ENDBRANCH  15  16
ENDBRANCH   8  15
TORSDOF 4
