REMARK  Name = ZINC13130648
REMARK  6 active torsions:
REMARK  status: ('A' for Active; 'I' for Inactive)
REMARK    1  A    between atoms: C_1  and  O_2
REMARK    2  A    between atoms: O_2  and  C_3
REMARK    3  A    between atoms: C_8  and  O_9
REMARK    4  A    between atoms: O_9  and  C_10
REMARK    5  A    between atoms: C_24  and  C_33
REMARK    6  A    between atoms: N_26  and  C_27
REMARK                            x       y       z     vdW  Elec       q    Type
REMARK                         _______ _______ _______ _____ _____    ______ ____
ROOT
ATOM      1  C   UNL     1       1.399  -0.397   0.607  0.00  0.00    +0.162 A 
ATOM      2  C   UNL     1       1.740   0.295   1.758  0.00  0.00    +0.058 A 
ATOM      3  C   UNL     1       2.278  -0.389   2.837  0.00  0.00    -0.003 A 
ATOM      4  C   UNL     1       2.453  -1.778   2.788  0.00  0.00    +0.001 A 
ATOM      5  C   UNL     1       2.127  -2.456   1.629  0.00  0.00    +0.056 A 
ATOM      6  C   UNL     1       1.597  -1.774   0.546  0.00  0.00    +0.162 A 
ATOM      7  C   UNL     1       2.945  -2.536   3.990  0.00  0.00    +0.164 C 
ATOM      8  C   UNL     1       1.795  -3.112   4.758  0.00  0.00    +0.010 A 
ATOM      9  C   UNL     1       0.741  -2.510   5.410  0.00  0.00    +0.008 A 
ATOM     10  C   UNL     1      -0.174  -3.348   6.038  0.00  0.00    +0.000 A 
ATOM     11  C   UNL     1      -0.031  -4.720   6.007  0.00  0.00    +0.002 A 
ATOM     12  C   UNL     1       1.027  -5.333   5.353  0.00  0.00    +0.023 A 
ATOM     13  C   UNL     1       1.952  -4.503   4.719  0.00  0.00    +0.040 A 
ATOM     14  N   UNL     1       3.088  -4.838   4.004  0.00  0.00    -0.283 N 
ATOM     15  C   UNL     1       3.734  -3.749   3.539  0.00  0.00    +0.250 C 
ATOM     16  O   UNL     1       4.754  -3.742   2.884  0.00  0.00    -0.272 OA
ATOM     17  N   UNL     1       3.782  -1.709   4.866  0.00  0.00    -0.308 N 
ATOM     18  C   UNL     1       3.420  -0.380   5.055  0.00  0.00    +0.132 A 
ATOM     19  C   UNL     1       2.692   0.300   4.078  0.00  0.00    +0.050 A 
ATOM     20  C   UNL     1       2.494   1.610   4.536  0.00  0.00    +0.103 A 
ATOM     21  N   UNL     1       3.059   1.714   5.725  0.00  0.00    -0.164 NA
ATOM     22  N   UNL     1       3.637   0.480   6.066  0.00  0.00    -0.218 N 
ATOM     23  H   UNL     1       3.385  -5.749   3.855  0.00  0.00    +0.155 HD
ATOM     24  H   UNL     1       4.567  -2.078   5.301  0.00  0.00    +0.149 HD
ENDROOT
BRANCH  22  25
ATOM     25  C   UNL     1       4.322   0.195   7.254  0.00  0.00    +0.067 A 
ATOM     26  C   UNL     1       4.226  -1.067   7.826  0.00  0.00    +0.028 A 
ATOM     27  C   UNL     1       4.902  -1.345   8.998  0.00  0.00    +0.002 A 
ATOM     28  C   UNL     1       5.674  -0.368   9.601  0.00  0.00    +0.000 A 
ATOM     29  C   UNL     1       5.771   0.889   9.034  0.00  0.00    +0.002 A 
ATOM     30  C   UNL     1       5.102   1.172   7.859  0.00  0.00    +0.028 A 
ENDBRANCH  22  25
BRANCH  20  31
ATOM     31  C   UNL     1       1.778   2.688   3.812  0.00  0.00    +0.003 A 
ATOM     32  C   UNL     1       0.537   2.435   3.229  0.00  0.00    +0.010 A 
ATOM     33  C   UNL     1      -0.125   3.442   2.557  0.00  0.00    +0.001 A 
ATOM     34  C   UNL     1       0.440   4.701   2.461  0.00  0.00    +0.000 A 
ATOM     35  C   UNL     1       1.671   4.958   3.037  0.00  0.00    +0.001 A 
ATOM     36  C   UNL     1       2.340   3.960   3.717  0.00  0.00    +0.010 A 
ENDBRANCH  20  31
BRANCH   1  38
ATOM     37  C   UNL     1       0.695   1.676  -0.321  0.00  0.00    +0.277 C 
ATOM     38  O   UNL     1       0.869   0.265  -0.456  0.00  0.00    -0.491 OA
ENDBRANCH   1  38
BRANCH   6  39
ATOM     39  O   UNL     1       1.272  -2.453  -0.587  0.00  0.00    -0.491 OA
ATOM     40  C   UNL     1       1.500  -3.864  -0.585  0.00  0.00    +0.277 C 
ENDBRANCH   6  39
TORSDOF 4
