REMARK  Name = ZINC48750244
REMARK  7 active torsions:
REMARK  status: ('A' for Active; 'I' for Inactive)
REMARK    1  A    between atoms: C_1  and  C_2
REMARK    2  A    between atoms: C_2  and  C_3
REMARK    3  A    between atoms: C_2  and  C_4
REMARK    4  A    between atoms: C_4  and  C_5
REMARK    5  A    between atoms: C_5  and  C_7
REMARK    6  A    between atoms: C_5  and  N_12
REMARK    7  A    between atoms: C_13  and  C_15
REMARK                            x       y       z     vdW  Elec       q    Type
REMARK                         _______ _______ _______ _____ _____    ______ ____
ROOT
ATOM      1  N   UNL     1      -0.933  -2.547   1.293  0.00  0.00    -0.301 N 
ATOM      2  C   UNL     1      -0.364  -3.766   1.377  0.00  0.00    +0.282 C 
ATOM      3  O   UNL     1      -0.256  -4.456   0.382  0.00  0.00    -0.267 OA
ATOM      4  H   UNL     1      -1.019  -1.996   2.087  0.00  0.00    +0.150 HD
ENDROOT
BRANCH   2   5
ATOM      5  C   UNL     1       0.127  -4.262   2.675  0.00  0.00    +0.217 A 
ATOM      6  N   UNL     1       0.064  -3.622   3.811  0.00  0.00    -0.147 NA
ATOM      7  N   UNL     1       0.636  -4.434   4.799  0.00  0.00    -0.226 N 
ATOM      8  C   UNL     1       1.039  -5.576   4.206  0.00  0.00    +0.342 A 
ATOM      9  O   UNL     1       1.581  -6.518   4.755  0.00  0.00    -0.245 OA
ATOM     10  N   UNL     1       0.728  -5.490   2.898  0.00  0.00    -0.286 N 
ATOM     11  H   UNL     1       0.898  -6.170   2.227  0.00  0.00    +0.172 HD
ATOM     12  H   UNL     1       0.726  -4.214   5.740  0.00  0.00    +0.194 HD
ENDBRANCH   2   5
BRANCH   1  13
ATOM     13  C   UNL     1      -1.421  -2.053   0.003  0.00  0.00    +0.110 C 
BRANCH  13  14
ATOM     14  C   UNL     1      -2.819  -2.563  -0.233  0.00  0.00    +0.010 A 
ATOM     15  C   UNL     1      -3.378  -3.021  -1.380  0.00  0.00    +0.013 A 
ATOM     16  C   UNL     1      -4.694  -3.443  -1.362  0.00  0.00    +0.008 A 
ATOM     17  C   UNL     1      -5.387  -3.386  -0.199  0.00  0.00    +0.045 A 
ATOM     18  S   UNL     1      -4.167  -2.727   0.926  0.00  0.00    -0.100 S 
ENDBRANCH  13  14
BRANCH  13  19
ATOM     19  C   UNL     1      -1.430  -0.523   0.013  0.00  0.00    +0.030 C 
BRANCH  19  21
ATOM     20  C   UNL     1       0.799  -0.379  -1.106  0.00  0.00    +0.007 C 
ATOM     21  C   UNL     1       0.003  -0.005   0.146  0.00  0.00    -0.015 C 
ATOM     22  C   UNL     1      -0.017   1.517   0.301  0.00  0.00    +0.007 C 
ENDBRANCH  19  21
ENDBRANCH  13  19
ENDBRANCH   1  13
TORSDOF 5
