REMARK  Name = ZINC51714742
REMARK  11 active torsions:
REMARK  status: ('A' for Active; 'I' for Inactive)
REMARK    1  A    between atoms: C_1  and  C_2
REMARK    2  A    between atoms: C_2  and  S_3
REMARK    3  A    between atoms: S_3  and  N_6
REMARK    4  A    between atoms: N_6  and  C_7
REMARK    5  A    between atoms: C_7  and  C_8
REMARK    6  A    between atoms: C_8  and  C_9
REMARK    7  A    between atoms: C_9  and  N_10
REMARK    8  A    between atoms: N_13  and  C_14
REMARK    9  A    between atoms: C_14  and  C_16
REMARK   10  A    between atoms: C_14  and  C_17
REMARK   11  A    between atoms: C_19  and  C_22
REMARK                            x       y       z     vdW  Elec       q    Type
REMARK                         _______ _______ _______ _____ _____    ______ ____
ROOT
ATOM      1  N   UNL     1      -1.335  -6.594  -1.997  0.00  0.00    -0.299 N 
ATOM      2  C   UNL     1      -2.377  -7.444  -2.086  0.00  0.00    +0.300 C 
ATOM      3  O   UNL     1      -3.513  -7.027  -1.961  0.00  0.00    -0.253 OA
ATOM      4  N   UNL     1      -2.161  -8.755  -2.313  0.00  0.00    -0.288 N 
ATOM      5  H   UNL     1      -0.429  -6.926  -2.097  0.00  0.00    +0.150 HD
ATOM      6  H   UNL     1      -1.256  -9.087  -2.413  0.00  0.00    +0.151 HD
ENDROOT
BRANCH   4   7
ATOM      7  C   UNL     1      -3.295  -9.678  -2.409  0.00  0.00    +0.160 C 
ATOM      8  C   UNL     1      -3.839  -9.670  -3.839  0.00  0.00    +0.038 C 
BRANCH   7   9
ATOM      9  C   UNL     1      -2.841 -11.070  -2.052  0.00  0.00    +0.248 A 
ATOM     10  N   UNL     1      -3.473 -11.900  -1.274  0.00  0.00    -0.190 NA
ATOM     11  C   UNL     1      -2.786 -13.052  -1.173  0.00  0.00    +0.202 A 
ATOM     12  N   UNL     1      -1.698 -12.955  -1.898  0.00  0.00    -0.056 NA
ATOM     13  O   UNL     1      -1.721 -11.663  -2.486  0.00  0.00    -0.336 OA
BRANCH  11  14
ATOM     14  C   UNL     1      -3.191 -14.235  -0.375  0.00  0.00    +0.023 A 
ATOM     15  C   UNL     1      -4.380 -14.214   0.352  0.00  0.00    +0.014 A 
ATOM     16  C   UNL     1      -4.753 -15.317   1.092  0.00  0.00    +0.039 A 
ATOM     17  C   UNL     1      -3.947 -16.444   1.115  0.00  0.00    +0.123 A 
ATOM     18  C   UNL     1      -2.764 -16.469   0.394  0.00  0.00    +0.039 A 
ATOM     19  C   UNL     1      -2.386 -15.373  -0.354  0.00  0.00    +0.014 A 
ATOM     20  F   UNL     1      -4.317 -17.521   1.841  0.00  0.00    -0.205 F 
ENDBRANCH  11  14
ENDBRANCH   7   9
ENDBRANCH   4   7
BRANCH   1  21
ATOM     21  C   UNL     1      -1.570  -5.170  -1.750  0.00  0.00    +0.107 C 
BRANCH  21  22
ATOM     22  C   UNL     1      -0.230  -4.434  -1.695  0.00  0.00    +0.035 C 
BRANCH  22  23
ATOM     23  C   UNL     1      -0.475  -2.946  -1.437  0.00  0.00    +0.107 C 
BRANCH  23  24
ATOM     24  N   UNL     1       0.808  -2.241  -1.384  0.00  0.00    -0.194 NA
ATOM     25  H   UNL     1       1.633  -2.742  -1.287  0.00  0.00    +0.148 HD
BRANCH  24  26
ATOM     26  S   UNL     1       0.851  -0.589  -1.490  0.00  0.00    +0.029 S 
ATOM     27  O   UNL     1       0.082  -0.280  -2.644  0.00  0.00    -0.158 OA
ATOM     28  O   UNL     1       2.232  -0.257  -1.430  0.00  0.00    -0.158 OA
BRANCH  26  30
ATOM     29  C   UNL     1      -0.019   1.526   0.010  0.00  0.00    +0.029 C 
ATOM     30  C   UNL     1       0.002  -0.004   0.002  0.00  0.00    +0.181 C 
ENDBRANCH  26  30
ENDBRANCH  24  26
ENDBRANCH  23  24
ENDBRANCH  22  23
ENDBRANCH  21  22
ENDBRANCH   1  21
TORSDOF 9
