REMARK  Name = ZINC40824449
REMARK  7 active torsions:
REMARK  status: ('A' for Active; 'I' for Inactive)
REMARK    1  A    between atoms: C_1  and  C_2
REMARK    2  A    between atoms: C_6  and  C_7
REMARK    3  A    between atoms: N_9  and  C_10
REMARK    4  A    between atoms: C_10  and  C_11
REMARK    5  A    between atoms: N_21  and  N_22
REMARK    6  A    between atoms: N_22  and  C_23
REMARK    7  A    between atoms: C_23  and  N_25
REMARK                            x       y       z     vdW  Elec       q    Type
REMARK                         _______ _______ _______ _____ _____    ______ ____
ROOT
ATOM      1  C   UNL     1      -0.018   1.503   0.010  0.00  0.00    +0.048 C 
ATOM      2  C   UNL     1       0.002  -0.004   0.002  0.00  0.00    +0.009 A 
ATOM      3  C   UNL     1       0.009  -0.838  -1.123  0.00  0.00    +0.042 A 
ATOM      4  C   UNL     1       0.027  -2.137  -0.673  0.00  0.00    +0.115 A 
ATOM      5  O   UNL     1       0.035  -2.112   0.658  0.00  0.00    -0.454 OA
ATOM      6  C   UNL     1       0.024  -0.830   1.091  0.00  0.00    +0.193 A 
ATOM      7  C   UNL     1       0.034  -3.326  -1.600  0.00  0.00    +0.075 C 
ATOM      8  C   UNL     1      -0.491  -2.903  -2.974  0.00  0.00    +0.014 C 
ATOM      9  C   UNL     1       0.279  -1.685  -3.495  0.00  0.00    +0.058 C 
ATOM     10  C   UNL     1       0.000  -0.512  -2.566  0.00  0.00    +0.070 C 
ATOM     11  N   UNL     1      -0.229   0.686  -3.008  0.00  0.00    -0.185 NA
ENDROOT
BRANCH   6  12
ATOM     12  C   UNL     1       0.031  -0.400   2.494  0.00  0.00    +0.280 C 
ATOM     13  O   UNL     1       0.016   0.786   2.766  0.00  0.00    -0.267 OA
ATOM     14  N   UNL     1       0.053  -1.317   3.480  0.00  0.00    -0.303 N 
ATOM     15  H   UNL     1       0.065  -2.263   3.263  0.00  0.00    +0.149 HD
BRANCH  14  16
ATOM     16  C   UNL     1       0.060  -0.887   4.881  0.00  0.00    +0.160 C 
BRANCH  16  17
ATOM     17  C   UNL     1       0.086  -2.098   5.778  0.00  0.00    +0.058 A 
ATOM     18  C   UNL     1       1.294  -2.563   6.262  0.00  0.00    +0.025 A 
ATOM     19  C   UNL     1       1.307  -3.678   7.087  0.00  0.00    +0.003 A 
ATOM     20  C   UNL     1       0.098  -4.285   7.395  0.00  0.00    +0.020 A 
ATOM     21  C   UNL     1      -1.070  -3.763   6.873  0.00  0.00    +0.111 A 
ATOM     22  N   UNL     1      -1.045  -2.697   6.096  0.00  0.00    -0.258 NA
ENDBRANCH  16  17
ENDBRANCH  14  16
ENDBRANCH   6  12
BRANCH  11  23
ATOM     23  N   UNL     1      -0.224   0.938  -4.386  0.00  0.00    -0.218 N 
ATOM     24  H   UNL     1      -0.050   0.216  -5.010  0.00  0.00    +0.176 HD
BRANCH  23  25
ATOM     25  C   UNL     1      -0.462   2.183  -4.844  0.00  0.00    +0.147 C 
ATOM     26  S   UNL     1      -0.456   2.490  -6.529  0.00  0.00    -0.017 S 
BRANCH  25  27
ATOM     27  N   UNL     1      -0.704   3.186  -3.977  0.00  0.00    -0.339 N 
ATOM     28  H   UNL     1      -0.707   3.011  -3.023  0.00  0.00    +0.144 HD
ATOM     29  H   UNL     1      -0.875   4.082  -4.307  0.00  0.00    +0.144 HD
ENDBRANCH  25  27
ENDBRANCH  23  25
ENDBRANCH  11  23
TORSDOF 6
