REMARK  Name = ZINC04477159
REMARK  9 active torsions:
REMARK  status: ('A' for Active; 'I' for Inactive)
REMARK    1  A    between atoms: C_1  and  C_2
REMARK    2  A    between atoms: C_2  and  C_3
REMARK    3  A    between atoms: C_3  and  C_21
REMARK    4  A    between atoms: N_6  and  C_10
REMARK    5  A    between atoms: C_10  and  C_11
REMARK    6  A    between atoms: N_16  and  C_17
REMARK    7  A    between atoms: C_17  and  C_18
REMARK    8  A    between atoms: C_17  and  C_19
REMARK    9  A    between atoms: C_17  and  C_20
REMARK                            x       y       z     vdW  Elec       q    Type
REMARK                         _______ _______ _______ _____ _____    ______ ____
ROOT
ATOM      1  C   UNL     1      -1.332   2.114   0.020  0.00  0.00    +0.138 C 
ATOM      2  C   UNL     1      -1.812   2.367  -1.395  0.00  0.00    +0.251 C 
ATOM      3  O   UNL     1      -1.255   3.018  -2.253  0.00  0.00    -0.272 OA
ATOM      4  N   UNL     1      -2.988   1.717  -1.502  0.00  0.00    -0.215 N 
ATOM      5  C   UNL     1      -3.314   1.095  -0.363  0.00  0.00    +0.310 C 
ATOM      6  O   UNL     1      -4.329   0.444  -0.216  0.00  0.00    -0.252 OA
ATOM      7  N   UNL     1      -2.392   1.272   0.600  0.00  0.00    -0.281 N 
ATOM      8  H   UNL     1      -2.420   0.914   1.502  0.00  0.00    +0.152 HD
ENDROOT
BRANCH   1   9
ATOM      9  C   UNL     1      -0.017   1.378   0.010  0.00  0.00    -0.015 A 
ATOM     10  C   UNL     1       1.171   2.086   0.002  0.00  0.00    +0.006 A 
ATOM     11  C   UNL     1       2.377   1.411  -0.015  0.00  0.00    +0.000 A 
ATOM     12  C   UNL     1       2.396   0.029  -0.022  0.00  0.00    +0.000 A 
ATOM     13  C   UNL     1       1.208  -0.679  -0.013  0.00  0.00    +0.000 A 
ATOM     14  C   UNL     1       0.002  -0.004   0.002  0.00  0.00    +0.006 A 
ENDBRANCH   1   9
BRANCH   1  16
ATOM     15  C   UNL     1      -2.578   4.096   0.891  0.00  0.00    +0.007 C 
ATOM     16  C   UNL     1      -1.204   3.431   0.788  0.00  0.00    +0.037 C 
ENDBRANCH   1  16
BRANCH   4  17
ATOM     17  C   UNL     1      -3.809   1.695  -2.716  0.00  0.00    +0.214 C 
BRANCH  17  18
ATOM     18  C   UNL     1      -3.406   0.523  -3.573  0.00  0.00    +0.238 C 
ATOM     19  O   UNL     1      -2.522  -0.221  -3.207  0.00  0.00    -0.274 OA
ATOM     20  N   UNL     1      -4.030   0.301  -4.747  0.00  0.00    -0.239 N 
ATOM     21  C   UNL     1      -3.670  -0.748  -5.514  0.00  0.00    +0.306 C 
ATOM     22  O   UNL     1      -2.783  -1.493  -5.147  0.00  0.00    -0.252 OA
ATOM     23  N   UNL     1      -4.294  -0.969  -6.688  0.00  0.00    -0.294 N 
ATOM     24  H   UNL     1      -4.738   0.896  -5.040  0.00  0.00    +0.159 HD
ATOM     25  H   UNL     1      -5.002  -0.374  -6.981  0.00  0.00    +0.151 HD
BRANCH  23  26
ATOM     26  C   UNL     1      -3.903  -2.109  -7.521  0.00  0.00    +0.028 C 
ATOM     27  C   UNL     1      -4.112  -3.408  -6.740  0.00  0.00    +0.031 C 
ATOM     28  C   UNL     1      -4.760  -2.132  -8.789  0.00  0.00    +0.031 C 
ATOM     29  C   UNL     1      -2.428  -1.977  -7.906  0.00  0.00    +0.031 C 
ENDBRANCH  23  26
ENDBRANCH  17  18
ENDBRANCH   4  17
TORSDOF 5
