REMARK  Name = ZINC02659892
REMARK  5 active torsions:
REMARK  status: ('A' for Active; 'I' for Inactive)
REMARK    1  A    between atoms: C_1  and  O_2
REMARK    2  A    between atoms: O_2  and  C_3
REMARK    3  A    between atoms: C_5  and  O_18
REMARK    4  A    between atoms: C_8  and  N_9
REMARK    5  A    between atoms: O_18  and  C_19
REMARK                            x       y       z     vdW  Elec       q    Type
REMARK                         _______ _______ _______ _____ _____    ______ ____
ROOT
ATOM      1  C   UNL     1      -0.172   3.996  -0.570  0.00  0.00    +0.149 A 
ATOM      2  C   UNL     1       1.011   3.318  -0.334  0.00  0.00    +0.095 A 
ATOM      3  C   UNL     1       1.110   2.446   0.741  0.00  0.00    +0.142 A 
ATOM      4  C   UNL     1       0.023   2.250   1.584  0.00  0.00    +0.085 A 
ATOM      5  C   UNL     1      -1.163   2.918   1.353  0.00  0.00    +0.055 A 
ATOM      6  C   UNL     1      -1.268   3.800   0.278  0.00  0.00    +0.109 A 
ATOM      7 CL   UNL     1       0.155   1.158   2.927  0.00  0.00    -0.080 Cl
ENDROOT
BRANCH   6   8
ATOM      8  N   UNL     1      -2.445   4.470   0.049  0.00  0.00    -0.234 NA
ATOM      9  C   UNL     1      -3.562   3.810  -0.042  0.00  0.00    +0.096 C 
ATOM     10  C   UNL     1      -3.578   2.362  -0.052  0.00  0.00    +0.071 C 
ATOM     11  C   UNL     1      -4.339   1.786  -1.255  0.00  0.00    +0.007 C 
ATOM     12  C   UNL     1      -5.802   1.902  -0.930  0.00  0.00    +0.002 C 
ATOM     13  C   UNL     1      -6.453   3.180  -1.517  0.00  0.00    +0.019 C 
ATOM     14  C   UNL     1      -5.500   4.380  -1.378  0.00  0.00    +0.102 C 
ATOM     15  N   UNL     1      -4.795   4.476  -0.128  0.00  0.00    -0.332 N 
ATOM     16  H   UNL     1      -5.152   4.978   0.622  0.00  0.00    +0.147 HD
ENDBRANCH   6   8
BRANCH   1  18
ATOM     17  C   UNL     1       0.888   5.000  -2.446  0.00  0.00    +0.277 C 
ATOM     18  O   UNL     1      -0.270   4.850  -1.623  0.00  0.00    -0.493 OA
ENDBRANCH   1  18
BRANCH   3  19
ATOM     19  O   UNL     1       2.273   1.781   0.970  0.00  0.00    -0.494 OA
ATOM     20  C   UNL     1       3.351   2.029   0.064  0.00  0.00    +0.277 C 
ENDBRANCH   3  19
TORSDOF 3
