REMARK  Name = ZINC65001229
REMARK  8 active torsions:
REMARK  status: ('A' for Active; 'I' for Inactive)
REMARK    1  A    between atoms: C_1  and  C_2
REMARK    2  A    between atoms: C_5  and  C_11
REMARK    3  A    between atoms: C_7  and  N_8
REMARK    4  A    between atoms: N_13  and  C_14
REMARK    5  A    between atoms: C_17  and  C_21
REMARK    6  A    between atoms: C_21  and  C_22
REMARK    7  A    between atoms: C_21  and  C_23
REMARK    8  A    between atoms: C_21  and  C_24
REMARK                            x       y       z     vdW  Elec       q    Type
REMARK                         _______ _______ _______ _____ _____    ______ ____
ROOT
ATOM      1  C   UNL     1       0.677  -4.543  -0.107  0.00  0.00    +0.248 C 
ATOM      2  O   UNL     1       1.291  -5.180   0.727  0.00  0.00    -0.270 OA
ATOM      3  N   UNL     1       0.013  -5.184  -1.089  0.00  0.00    -0.281 N 
ATOM      4  H   UNL     1      -0.407  -4.676  -1.801  0.00  0.00    +0.155 HD
ENDROOT
BRANCH   1   9
ATOM      5  C   UNL     1       0.610   1.205   0.140  0.00  0.00    +0.046 C 
ATOM      6  C   UNL     1       0.628  -0.300   0.075  0.00  0.00    -0.020 A 
ATOM      7  C   UNL     1      -0.055  -0.954  -0.935  0.00  0.00    +0.006 A 
ATOM      8  C   UNL     1      -0.043  -2.332  -1.000  0.00  0.00    +0.013 A 
ATOM      9  C   UNL     1       0.661  -3.067  -0.044  0.00  0.00    +0.039 A 
ATOM     10  C   UNL     1       1.347  -2.401   0.972  0.00  0.00    +0.046 A 
ATOM     11  C   UNL     1       1.331  -1.022   1.023  0.00  0.00    +0.130 A 
BRANCH  11  12
ATOM     12  N   UNL     1       2.064  -0.314   2.096  0.00  0.00    +0.057 N 
ATOM     13  O   UNL     1       2.449   0.819   1.920  0.00  0.00    -0.126 OA
ATOM     14  O   UNL     1       2.277  -0.867   3.150  0.00  0.00    -0.126 OA
ENDBRANCH  11  12
ENDBRANCH   1   9
BRANCH   3  15
ATOM     15  C   UNL     1      -0.071  -6.580  -1.082  0.00  0.00    +0.048 A 
ATOM     16  C   UNL     1       0.045  -7.278   0.113  0.00  0.00    +0.025 A 
ATOM     17  C   UNL     1      -0.039  -8.656   0.117  0.00  0.00    +0.006 A 
ATOM     18  C   UNL     1      -0.239  -9.342  -1.067  0.00  0.00    -0.041 A 
ATOM     19  C   UNL     1      -0.355  -8.651  -2.259  0.00  0.00    +0.021 A 
ATOM     20  C   UNL     1      -0.278  -7.271  -2.269  0.00  0.00    +0.039 A 
ATOM     21 BR   UNL     1      -0.445  -6.326  -3.899  0.00  0.00    -0.048 Br
BRANCH  18  22
ATOM     22  C   UNL     1      -0.330 -10.847  -1.058  0.00  0.00    -0.013 C 
ATOM     23  C   UNL     1      -1.501 -11.282  -0.175  0.00  0.00    +0.015 C 
ATOM     24  C   UNL     1      -0.551 -11.352  -2.485  0.00  0.00    +0.015 C 
ATOM     25  C   UNL     1       0.971 -11.433  -0.505  0.00  0.00    +0.015 C 
ENDBRANCH  18  22
ENDBRANCH   3  15
TORSDOF 4
