REMARK  Name = ZINC50430137
REMARK  5 active torsions:
REMARK  status: ('A' for Active; 'I' for Inactive)
REMARK    1  A    between atoms: C_1  and  C_2
REMARK    2  A    between atoms: C_5  and  C_17
REMARK    3  A    between atoms: C_7  and  N_8
REMARK    4  A    between atoms: N_8  and  C_9
REMARK    5  A    between atoms: C_14  and  O_16
REMARK                            x       y       z     vdW  Elec       q    Type
REMARK                         _______ _______ _______ _____ _____    ______ ____
ROOT
ATOM      1  C   UNL     1      -0.018   1.503   0.010  0.00  0.00    +0.045 C 
ATOM      2  C   UNL     1       0.002  -0.004   0.002  0.00  0.00    -0.030 A 
ATOM      3  C   UNL     1       0.006  -0.686  -1.200  0.00  0.00    +0.006 A 
ATOM      4  C   UNL     1       0.024  -2.066  -1.216  0.00  0.00    +0.019 A 
ATOM      5  C   UNL     1       0.040  -2.778  -0.015  0.00  0.00    +0.054 A 
ATOM      6  C   UNL     1       0.037  -2.090   1.198  0.00  0.00    +0.042 A 
ATOM      7  C   UNL     1       0.023  -0.703   1.203  0.00  0.00    +0.032 A 
ENDROOT
BRANCH   7   8
ATOM      8  N   UNL     1       0.025  -0.009   2.416  0.00  0.00    -0.336 N 
ATOM      9  H   UNL     1       0.011   0.961   2.419  0.00  0.00    +0.147 HD
BRANCH   8  10
ATOM     10  C   UNL     1       0.046  -0.745   3.682  0.00  0.00    +0.127 C 
ATOM     11  C   UNL     1      -1.391  -1.075   4.141  0.00  0.00    +0.184 C 
ATOM     12  O   UNL     1      -1.362  -0.929   5.578  0.00  0.00    -0.375 OA
ATOM     13  C   UNL     1      -0.555   0.244   5.825  0.00  0.00    +0.193 C 
ATOM     14  C   UNL     1       0.612   0.141   4.814  0.00  0.00    +0.162 C 
BRANCH  14  15
ATOM     15  O   UNL     1       0.958   1.434   4.313  0.00  0.00    -0.388 OA
ATOM     16  H   UNL     1       1.318   2.032   4.982  0.00  0.00    +0.210 HD
ENDBRANCH  14  15
ENDBRANCH   8  10
ENDBRANCH   7   8
BRANCH   5  17
ATOM     17  C   UNL     1       0.059  -4.210  -0.029  0.00  0.00    +0.099 C 
ATOM     18  N   UNL     1       0.074  -5.346  -0.040  0.00  0.00    -0.191 NA
ENDBRANCH   5  17
TORSDOF 4
