REMARK  Name = ZINC38669414
REMARK  9 active torsions:
REMARK  status: ('A' for Active; 'I' for Inactive)
REMARK    1  A    between atoms: C_1  and  C_2
REMARK    2  A    between atoms: C_2  and  C_3
REMARK    3  A    between atoms: C_2  and  C_4
REMARK    4  A    between atoms: C_7  and  N_10
REMARK    5  A    between atoms: C_14  and  C_15
REMARK    6  A    between atoms: C_17  and  C_25
REMARK    7  A    between atoms: C_25  and  C_26
REMARK    8  A    between atoms: C_26  and  N_27
REMARK    9  A    between atoms: C_28  and  C_30
REMARK                            x       y       z     vdW  Elec       q    Type
REMARK                         _______ _______ _______ _____ _____    ______ ____
ROOT
ATOM      1  N   UNL     1       2.881  -1.509  -4.676  0.00  0.00    -0.188 N 
ATOM      2  C   UNL     1       3.993  -2.267  -4.559  0.00  0.00    +0.263 C 
ATOM      3  O   UNL     1       4.534  -2.429  -3.482  0.00  0.00    -0.269 OA
ATOM      4  C   UNL     1       4.530  -2.896  -5.790  0.00  0.00    +0.100 C 
ATOM      5  C   UNL     1       5.638  -3.671  -5.764  0.00  0.00    +0.020 C 
ATOM      6  C   UNL     1       3.797  -2.636  -7.048  0.00  0.00    +0.276 C 
ATOM      7  O   UNL     1       4.215  -3.168  -8.214  0.00  0.00    -0.268 OA
ATOM      8  N   UNL     1       2.723  -1.871  -7.001  0.00  0.00    -0.123 NA
ATOM      9  C   UNL     1       2.283  -1.336  -5.863  0.00  0.00    +0.340 C 
ATOM     10  O   UNL     1       1.280  -0.645  -5.904  0.00  0.00    -0.250 OA
ENDROOT
BRANCH   5  11
ATOM     11  C   UNL     1       6.235  -4.088  -4.445  0.00  0.00    +0.130 C 
ATOM     12  C   UNL     1       7.594  -3.452  -4.262  0.00  0.00    -0.033 C 
ATOM     13  C   UNL     1       8.475  -4.473  -4.158  0.00  0.00    -0.000 A 
ATOM     14  C   UNL     1       9.931  -4.515  -3.970  0.00  0.00    +0.010 A 
ATOM     15  C   UNL     1      10.548  -5.716  -3.902  0.00  0.00    +0.001 A 
ATOM     16  C   UNL     1       9.836  -6.919  -4.007  0.00  0.00    +0.002 A 
ATOM     17  C   UNL     1       8.498  -6.961  -4.180  0.00  0.00    +0.026 A 
ATOM     18  C   UNL     1       7.746  -5.756  -4.265  0.00  0.00    +0.043 A 
ATOM     19  N   UNL     1       6.462  -5.538  -4.429  0.00  0.00    -0.374 N 
ATOM     20  H   UNL     1       5.778  -6.219  -4.524  0.00  0.00    +0.161 HD
BRANCH  12  21
ATOM     21  C   UNL     1       7.905  -1.978  -4.207  0.00  0.00    +0.052 C 
BRANCH  21  22
ATOM     22  C   UNL     1       9.409  -1.781  -4.010  0.00  0.00    +0.108 C 
BRANCH  22  23
ATOM     23  N   UNL     1       9.711  -0.348  -3.957  0.00  0.00    -0.315 N 
ATOM     24  C   UNL     1      10.982   0.067  -3.788  0.00  0.00    +0.210 C 
ATOM     25  O   UNL     1      11.876  -0.745  -3.680  0.00  0.00    -0.276 OA
ATOM     26  C   UNL     1      11.292   1.541  -3.733  0.00  0.00    +0.109 C 
ATOM     27  H   UNL     1       8.996   0.302  -4.043  0.00  0.00    +0.149 HD
ENDBRANCH  22  23
ENDBRANCH  21  22
ENDBRANCH  12  21
ENDBRANCH   5  11
BRANCH   1  31
ATOM     28  C   UNL     1       1.276   0.308  -1.286  0.00  0.00    -0.045 A 
ATOM     29  C   UNL     1       0.834  -0.943  -1.673  0.00  0.00    +0.006 A 
ATOM     30  C   UNL     1       1.363  -1.548  -2.796  0.00  0.00    +0.024 A 
ATOM     31  C   UNL     1       2.341  -0.898  -3.537  0.00  0.00    +0.046 A 
ATOM     32  C   UNL     1       2.784   0.359  -3.146  0.00  0.00    +0.024 A 
ATOM     33  C   UNL     1       2.247   0.960  -2.025  0.00  0.00    +0.006 A 
BRANCH  28  35
ATOM     34  C   UNL     1      -0.813   1.140  -0.241  0.00  0.00    +0.012 C 
ATOM     35  C   UNL     1       0.696   0.965  -0.060  0.00  0.00    +0.013 C 
ATOM     36  C   UNL     1       0.965   0.088   1.164  0.00  0.00    +0.012 C 
ENDBRANCH  28  35
ENDBRANCH   1  31
TORSDOF 6
