REMARK  Name = ZINC11584400
REMARK  9 active torsions:
REMARK  status: ('A' for Active; 'I' for Inactive)
REMARK    1  A    between atoms: C_1  and  C_2
REMARK    2  A    between atoms: C_5  and  C_8
REMARK    3  A    between atoms: N_12  and  C_13
REMARK    4  A    between atoms: C_13  and  C_14
REMARK    5  A    between atoms: C_20  and  C_22
REMARK    6  A    between atoms: C_25  and  O_30
REMARK    7  A    between atoms: C_27  and  O_28
REMARK    8  A    between atoms: O_28  and  C_29
REMARK    9  A    between atoms: O_30  and  C_31
REMARK                            x       y       z     vdW  Elec       q    Type
REMARK                         _______ _______ _______ _____ _____    ______ ____
ROOT
ATOM      1  C   UNL     1      -0.214  -4.656   3.308  0.00  0.00    +0.236 C 
ATOM      2  O   UNL     1      -1.326  -4.967   2.937  0.00  0.00    -0.274 OA
ATOM      3  N   UNL     1      -0.006  -4.307   4.594  0.00  0.00    -0.293 N 
ATOM      4  C   UNL     1       1.287  -3.902   5.175  0.00  0.00    +0.108 C 
ATOM      5  C   UNL     1       0.914  -3.043   6.410  0.00  0.00    +0.021 C 
ATOM      6  C   UNL     1      -0.339  -3.788   6.941  0.00  0.00    +0.029 C 
ATOM      7  C   UNL     1      -1.031  -4.262   5.646  0.00  0.00    +0.110 C 
ENDROOT
BRANCH   7   8
ATOM      8  C   UNL     1      -1.614  -5.636   5.853  0.00  0.00    +0.015 A 
ATOM      9  C   UNL     1      -0.872  -6.757   5.530  0.00  0.00    +0.012 A 
ATOM     10  C   UNL     1      -1.404  -8.018   5.719  0.00  0.00    +0.046 A 
ATOM     11  C   UNL     1      -2.685  -8.163   6.234  0.00  0.00    +0.124 A 
ATOM     12  C   UNL     1      -3.431  -7.040   6.559  0.00  0.00    +0.091 A 
ATOM     13  C   UNL     1      -2.893  -5.776   6.373  0.00  0.00    +0.128 A 
BRANCH  13  14
ATOM     14  O   UNL     1      -3.619  -4.674   6.697  0.00  0.00    -0.495 OA
ATOM     15  C   UNL     1      -4.928  -4.893   7.227  0.00  0.00    +0.277 C 
ENDBRANCH  13  14
BRANCH  11  16
ATOM     16  O   UNL     1      -3.207  -9.403   6.419  0.00  0.00    -0.495 OA
ATOM     17  C   UNL     1      -2.382 -10.514   6.062  0.00  0.00    +0.277 C 
ENDBRANCH  11  16
ENDBRANCH   7   8
BRANCH   1  18
ATOM     18  C   UNL     1       0.934  -4.658   2.333  0.00  0.00    +0.221 C 
BRANCH  18  23
ATOM     19  C   UNL     1       0.005  -4.253  -0.001  0.00  0.00    +0.165 A 
ATOM     20  N   UNL     1      -0.324  -5.032  -1.006  0.00  0.00    -0.128 NA
ATOM     21  N   UNL     1      -0.120  -6.261  -0.694  0.00  0.00    -0.121 NA
ATOM     22  C   UNL     1       0.352  -6.344   0.531  0.00  0.00    +0.203 A 
ATOM     23  N   UNL     1       0.453  -5.070   1.012  0.00  0.00    -0.293 N 
ATOM     24  S   UNL     1       0.780  -7.822   1.389  0.00  0.00    -0.009 SA
BRANCH  19  29
ATOM     25  C   UNL     1      -0.340   1.489   0.132  0.00  0.00    +0.044 C 
ATOM     26  C   UNL     1      -0.249  -0.015   0.097  0.00  0.00    -0.050 A 
ATOM     27  C   UNL     1      -0.231  -0.675  -1.118  0.00  0.00    +0.004 A 
ATOM     28  C   UNL     1      -0.149  -2.052  -1.157  0.00  0.00    +0.012 A 
ATOM     29  C   UNL     1      -0.083  -2.778   0.033  0.00  0.00    +0.019 A 
ATOM     30  C   UNL     1      -0.102  -2.105   1.256  0.00  0.00    +0.012 A 
ATOM     31  C   UNL     1      -0.179  -0.728   1.280  0.00  0.00    +0.004 A 
ENDBRANCH  19  29
ENDBRANCH  18  23
ENDBRANCH   1  18
TORSDOF 6
