REMARK  Name = ZINC39710861
REMARK  10 active torsions:
REMARK  status: ('A' for Active; 'I' for Inactive)
REMARK    1  A    between atoms: C_1  and  C_2
REMARK    2  A    between atoms: C_8  and  C_14
REMARK    3  A    between atoms: C_14  and  C_16
REMARK    4  A    between atoms: C_14  and  N_26
REMARK    5  A    between atoms: N_21  and  C_22
REMARK    6  A    between atoms: C_22  and  C_23
REMARK    7  A    between atoms: C_22  and  C_24
REMARK    8  A    between atoms: C_22  and  C_25
REMARK    9  A    between atoms: N_29  and  C_32
REMARK   10  A    between atoms: C_32  and  C_33
REMARK                            x       y       z     vdW  Elec       q    Type
REMARK                         _______ _______ _______ _____ _____    ______ ____
ROOT
ATOM      1  C   UNL     1      -1.172  -2.550   4.381  0.00  0.00    -0.009 C 
ENDROOT
BRANCH   1   9
ATOM      2  C   UNL     1       0.138   0.497  -0.784  0.00  0.00    +0.045 C 
ATOM      3  C   UNL     1       0.030  -0.979  -0.496  0.00  0.00    -0.029 A 
ATOM      4  C   UNL     1      -0.075  -1.860  -1.525  0.00  0.00    +0.005 A 
ATOM      5  C   UNL     1      -0.178  -3.237  -1.329  0.00  0.00    +0.001 A 
ATOM      6  C   UNL     1      -0.179  -3.776  -0.082  0.00  0.00    +0.009 A 
ATOM      7  C   UNL     1      -0.070  -2.883   1.072  0.00  0.00    -0.007 A 
ATOM      8  C   UNL     1      -0.066  -3.379   2.342  0.00  0.00    -0.006 C 
ATOM      9  C   UNL     1       0.051  -2.381   3.478  0.00  0.00    +0.088 C 
ATOM     10  C   UNL     1       0.155  -0.918   3.109  0.00  0.00    +0.223 C 
ATOM     11  O   UNL     1       0.252  -0.074   3.980  0.00  0.00    -0.275 OA
ATOM     12  N   UNL     1       0.141  -0.559   1.837  0.00  0.00    -0.284 N 
ATOM     13  C   UNL     1       0.044  -1.433   0.835  0.00  0.00    +0.043 A 
ATOM     14  H   UNL     1       0.209   0.384   1.621  0.00  0.00    +0.155 HD
ENDBRANCH   1   9
BRANCH   1  15
ATOM     15  N   UNL     1      -1.023  -1.704   5.572  0.00  0.00    +0.386 N 
ATOM     16  C   UNL     1      -2.105  -1.999   6.520  0.00  0.00    -0.063 C 
ATOM     17  C   UNL     1      -1.961  -1.104   7.753  0.00  0.00    +0.066 C 
ATOM     18  N   UNL     1      -0.655  -1.347   8.382  0.00  0.00    -0.302 NA
ATOM     19  C   UNL     1       0.438  -1.080   7.436  0.00  0.00    +0.066 C 
ATOM     20  C   UNL     1       0.274  -1.976   6.206  0.00  0.00    -0.063 C 
ATOM     21  H   UNL     1      -1.068  -0.733   5.302  0.00  0.00    -0.081 HD
BRANCH  18  22
ATOM     22  C   UNL     1      -0.501  -0.546   9.604  0.00  0.00    +0.119 C 
BRANCH  22  23
ATOM     23  C   UNL     1       0.729  -0.997  10.349  0.00  0.00    -0.030 A 
ATOM     24  C   UNL     1       0.634  -2.005  11.291  0.00  0.00    +0.009 A 
ATOM     25  C   UNL     1       1.760  -2.422  11.976  0.00  0.00    +0.050 A 
ATOM     26  C   UNL     1       2.986  -1.831  11.721  0.00  0.00    +0.166 A 
ATOM     27  C   UNL     1       3.082  -0.816  10.772  0.00  0.00    +0.167 A 
ATOM     28  C   UNL     1       1.951  -0.407  10.084  0.00  0.00    +0.054 A 
ATOM     29  O   UNL     1       4.381  -0.403  10.705  0.00  0.00    -0.453 OA
ATOM     30  C   UNL     1       5.002  -0.889  11.909  0.00  0.00    +0.466 C 
ATOM     31  O   UNL     1       4.225  -2.053  12.248  0.00  0.00    -0.453 OA
ENDBRANCH  22  23
ENDBRANCH  18  22
ENDBRANCH   1  15
BRANCH   1  32
ATOM     32  C   UNL     1      -2.432  -2.138   3.616  0.00  0.00    +0.205 C 
ATOM     33  N   UNL     1      -2.470  -0.680   3.441  0.00  0.00    -0.152 NA
ATOM     34  N   UNL     1      -3.474  -0.237   4.003  0.00  0.00    -0.070 NA
ATOM     35  N   UNL     1      -4.238  -1.232   4.612  0.00  0.00    -0.179 N 
ATOM     36  N   UNL     1      -3.640  -2.451   4.407  0.00  0.00    -0.183 NA
ATOM     37  H   UNL     1      -5.061  -1.086   5.103  0.00  0.00    +0.191 HD
BRANCH  36  38
ATOM     38  C   UNL     1      -4.530  -3.358   3.670  0.00  0.00    +0.035 C 
ATOM     39  C   UNL     1      -3.776  -4.644   3.326  0.00  0.00    +0.029 C 
ATOM     40  C   UNL     1      -5.745  -3.696   4.537  0.00  0.00    +0.029 C 
ATOM     41  C   UNL     1      -4.997  -2.680   2.381  0.00  0.00    +0.029 C 
ENDBRANCH  36  38
ENDBRANCH   1  32
TORSDOF 6
