REMARK  Name = ZINC62538200
REMARK  5 active torsions:
REMARK  status: ('A' for Active; 'I' for Inactive)
REMARK    1  A    between atoms: C_1  and  C_2
REMARK    2  A    between atoms: C_2  and  C_3
REMARK    3  A    between atoms: C_3  and  C_4
REMARK    4  A    between atoms: C_6  and  N_19
REMARK    5  A    between atoms: C_11  and  C_13
REMARK                            x       y       z     vdW  Elec       q    Type
REMARK                         _______ _______ _______ _____ _____    ______ ____
ROOT
ATOM      1  C   UNL     1       0.739  -2.004  -1.265  0.00  0.00    -0.043 A 
ATOM      2  C   UNL     1       1.793  -2.682  -0.672  0.00  0.00    +0.030 A 
ATOM      3  C   UNL     1       1.825  -4.066  -0.672  0.00  0.00    +0.070 A 
ATOM      4  C   UNL     1       0.791  -4.782  -1.271  0.00  0.00    +0.176 A 
ATOM      5  C   UNL     1      -0.274  -4.096  -1.870  0.00  0.00    +0.112 A 
ATOM      6  C   UNL     1      -0.293  -2.698  -1.857  0.00  0.00    +0.035 A 
ATOM      7  N   UNL     1      -1.116  -5.043  -2.363  0.00  0.00    -0.213 NA
ATOM      8  C   UNL     1      -0.627  -6.218  -2.099  0.00  0.00    +0.200 A 
ATOM      9  O   UNL     1       0.534  -6.098  -1.436  0.00  0.00    -0.438 OA
ENDROOT
BRANCH   8  10
ATOM     10  C   UNL     1      -1.270  -7.525  -2.483  0.00  0.00    +0.075 C 
ATOM     11  C   UNL     1      -2.652  -7.624  -1.834  0.00  0.00    +0.013 C 
ATOM     12  C   UNL     1      -3.304  -8.952  -2.224  0.00  0.00    +0.001 C 
ATOM     13  C   UNL     1      -3.449  -9.022  -3.745  0.00  0.00    +0.000 C 
ATOM     14  C   UNL     1      -2.066  -8.924  -4.394  0.00  0.00    +0.001 C 
ATOM     15  C   UNL     1      -1.414  -7.596  -4.004  0.00  0.00    +0.013 C 
ENDBRANCH   8  10
BRANCH   3  16
ATOM     16  N   UNL     1       2.892  -4.744  -0.073  0.00  0.00    -0.355 N 
ATOM     17  H   UNL     1       3.611  -4.244   0.344  0.00  0.00    +0.142 HD
ATOM     18  H   UNL     1       2.912  -5.714  -0.074  0.00  0.00    +0.142 HD
ENDBRANCH   3  16
BRANCH   1  19
ATOM     19  C   UNL     1       0.718  -0.497  -1.257  0.00  0.00    +0.035 C 
BRANCH  19  21
ATOM     20  C   UNL     1      -0.019   1.526   0.010  0.00  0.00    +0.004 C 
ATOM     21  C   UNL     1       0.002  -0.004   0.002  0.00  0.00    +0.001 C 
ENDBRANCH  19  21
ENDBRANCH   1  19
TORSDOF 4
