REMARK  Name = ZINC67352819
REMARK  9 active torsions:
REMARK  status: ('A' for Active; 'I' for Inactive)
REMARK    1  A    between atoms: C_1  and  C_2
REMARK    2  A    between atoms: C_2  and  C_3
REMARK    3  A    between atoms: C_2  and  C_4
REMARK    4  A    between atoms: C_2  and  C_24
REMARK    5  A    between atoms: C_4  and  N_5
REMARK    6  A    between atoms: C_6  and  C_8
REMARK    7  A    between atoms: N_10  and  C_11
REMARK    8  A    between atoms: C_14  and  O_18
REMARK    9  A    between atoms: O_18  and  C_19
REMARK                            x       y       z     vdW  Elec       q    Type
REMARK                         _______ _______ _______ _____ _____    ______ ____
ROOT
ATOM      1  C   UNL     1      -5.657  -1.183   2.286  0.00  0.00    +0.303 C 
ATOM      2  O   UNL     1      -6.810  -0.863   2.078  0.00  0.00    -0.265 OA
ATOM      3  N   UNL     1      -5.094  -0.932   3.484  0.00  0.00    -0.278 N 
ATOM      4  H   UNL     1      -4.197  -1.249   3.675  0.00  0.00    +0.155 HD
ENDROOT
BRANCH   3   5
ATOM      5  C   UNL     1      -5.803  -0.214   4.454  0.00  0.00    +0.035 A 
ATOM      6  C   UNL     1      -5.135   0.674   5.287  0.00  0.00    +0.027 A 
ATOM      7  C   UNL     1      -5.834   1.382   6.244  0.00  0.00    +0.049 A 
ATOM      8  C   UNL     1      -7.204   1.207   6.373  0.00  0.00    +0.139 A 
ATOM      9  C   UNL     1      -7.873   0.320   5.541  0.00  0.00    +0.084 A 
ATOM     10  C   UNL     1      -7.175  -0.385   4.579  0.00  0.00    +0.047 A 
ATOM     11 CL   UNL     1      -9.588   0.102   5.704  0.00  0.00    -0.080 Cl
BRANCH   8  12
ATOM     12  O   UNL     1      -7.892   1.905   7.316  0.00  0.00    -0.487 OA
BRANCH  12  13
ATOM     13  C   UNL     1      -7.164   2.884   8.059  0.00  0.00    +0.174 C 
ATOM     14  C   UNL     1      -6.491   2.228   9.282  0.00  0.00    +0.044 C 
ATOM     15  C   UNL     1      -6.603   3.298  10.396  0.00  0.00    +0.004 C 
ATOM     16  C   UNL     1      -8.004   3.909  10.144  0.00  0.00    +0.004 C 
ATOM     17  C   UNL     1      -8.126   3.953   8.607  0.00  0.00    +0.044 C 
ENDBRANCH  12  13
ENDBRANCH   8  12
ENDBRANCH   3   5
BRANCH   1  19
ATOM     18  N   UNL     1      -5.428  -2.108   0.016  0.00  0.00    -0.307 N 
ATOM     19  C   UNL     1      -4.864  -1.856   1.215  0.00  0.00    +0.299 C 
ATOM     20  O   UNL     1      -3.712  -2.176   1.423  0.00  0.00    -0.265 OA
ATOM     21  H   UNL     1      -6.348  -1.852  -0.150  0.00  0.00    +0.149 HD
BRANCH  18  22
ATOM     22  C   UNL     1      -4.649  -2.768  -1.035  0.00  0.00    +0.120 C 
BRANCH  22  24
ATOM     23  C   UNL     1      -6.742  -3.785  -1.945  0.00  0.00    +0.022 C 
ATOM     24  C   UNL     1      -5.517  -2.933  -2.284  0.00  0.00    +0.057 C 
ATOM     25  C   UNL     1      -5.973  -1.557  -2.774  0.00  0.00    +0.022 C 
BRANCH  24  26
ATOM     26  C   UNL     1      -4.717  -3.612  -3.365  0.00  0.00    +0.218 C 
ATOM     27  O   UNL     1      -3.566  -3.932  -3.158  0.00  0.00    -0.275 OA
ATOM     28  N   UNL     1      -5.280  -3.864  -4.564  0.00  0.00    -0.329 N 
ATOM     29  H   UNL     1      -6.201  -3.607  -4.730  0.00  0.00    +0.145 HD
ATOM     30  H   UNL     1      -4.765  -4.300  -5.260  0.00  0.00    +0.145 HD
ENDBRANCH  24  26
ENDBRANCH  22  24
ENDBRANCH  18  22
ENDBRANCH   1  19
TORSDOF 7
