REMARK  Name = ZINC16428785
REMARK  7 active torsions:
REMARK  status: ('A' for Active; 'I' for Inactive)
REMARK    1  A    between atoms: C_6  and  O_7
REMARK    2  A    between atoms: O_7  and  C_8
REMARK    3  A    between atoms: C_8  and  C_9
REMARK    4  A    between atoms: N_11  and  C_12
REMARK    5  A    between atoms: C_12  and  N_14
REMARK    6  A    between atoms: N_14  and  C_15
REMARK    7  A    between atoms: C_20  and  C_21
REMARK                            x       y       z     vdW  Elec       q    Type
REMARK                         _______ _______ _______ _____ _____    ______ ____
ROOT
ATOM      1  C   UNL     1       3.119   7.755  -0.222  0.00  0.00    +0.141 C 
ATOM      2  S   UNL     1       1.550   8.368  -0.527  0.00  0.00    -0.018 S 
ENDROOT
BRANCH   1   5
ATOM      3  C   UNL     1       2.315   5.577  -0.456  0.00  0.00    +0.256 C 
ATOM      4  O   UNL     1       1.204   6.010  -0.672  0.00  0.00    -0.272 OA
ATOM      5  N   UNL     1       3.335   6.425  -0.219  0.00  0.00    -0.265 N 
ATOM      6  H   UNL     1       4.224   6.078  -0.046  0.00  0.00    +0.157 HD
BRANCH   3   7
ATOM      7  C   UNL     1       2.556   4.089  -0.453  0.00  0.00    +0.324 C 
BRANCH   7   8
ATOM      8  O   UNL     1       1.331   3.407  -0.728  0.00  0.00    -0.483 OA
BRANCH   8  14
ATOM      9  C   UNL     1       0.221   1.324  -1.023  0.00  0.00    +0.047 A 
ATOM     10  C   UNL     1       0.268  -0.057  -1.057  0.00  0.00    +0.023 A 
ATOM     11  C   UNL     1       1.463  -0.715  -0.831  0.00  0.00    +0.041 A 
ATOM     12  C   UNL     1       2.614   0.006  -0.570  0.00  0.00    +0.023 A 
ATOM     13  C   UNL     1       2.572   1.387  -0.535  0.00  0.00    +0.047 A 
ATOM     14  C   UNL     1       1.374   2.049  -0.762  0.00  0.00    +0.121 A 
ATOM     15 CL   UNL     1       1.519  -2.450  -0.875  0.00  0.00    -0.084 Cl
ENDBRANCH   8  14
ENDBRANCH   7   8
ENDBRANCH   3   7
ENDBRANCH   1   5
BRANCH   1  16
ATOM     16  N   UNL     1       4.139   8.604   0.016  0.00  0.00    -0.296 N 
ATOM     17  H   UNL     1       5.013   8.257   0.257  0.00  0.00    +0.154 HD
BRANCH  16  18
ATOM     18  C   UNL     1       3.939   9.978  -0.085  0.00  0.00    +0.047 A 
ATOM     19  C   UNL     1       2.837  10.569   0.519  0.00  0.00    +0.025 A 
ATOM     20  C   UNL     1       2.641  11.931   0.419  0.00  0.00    +0.017 A 
ATOM     21  C   UNL     1       3.540  12.720  -0.283  0.00  0.00    +0.019 A 
ATOM     22  C   UNL     1       4.639  12.151  -0.889  0.00  0.00    +0.032 A 
ATOM     23  C   UNL     1       4.854  10.774  -0.792  0.00  0.00    +0.085 A 
ATOM     24 BR   UNL     1       3.255  14.585  -0.410  0.00  0.00    -0.050 Br
BRANCH  23  25
ATOM     25  C   UNL     1       6.031  10.160  -1.432  0.00  0.00    +0.388 C 
ATOM     26  O   UNL     1       6.162   8.952  -1.431  0.00  0.00    -0.241 OA
ATOM     27  O   UNL     1       6.961  10.938  -2.019  0.00  0.00    -0.241 OA
ENDBRANCH  23  25
ENDBRANCH  16  18
ENDBRANCH   1  16
TORSDOF 7
