REMARK  Name = ZINC20804214
REMARK  6 active torsions:
REMARK  status: ('A' for Active; 'I' for Inactive)
REMARK    1  A    between atoms: C_1  and  C_2
REMARK    2  A    between atoms: C_4  and  C_21
REMARK    3  A    between atoms: C_6  and  C_14
REMARK    4  A    between atoms: N_23  and  C_24
REMARK    5  A    between atoms: C_29  and  O_30
REMARK    6  A    between atoms: O_30  and  C_31
REMARK                            x       y       z     vdW  Elec       q    Type
REMARK                         _______ _______ _______ _____ _____    ______ ____
ROOT
ATOM      1  C   UNL     1       0.598   7.358   1.575  0.00  0.00    +0.028 C 
ATOM      2  C   UNL     1      -0.847   7.849   1.474  0.00  0.00    +0.084 C 
ATOM      3  C   UNL     1      -1.500   7.272   0.213  0.00  0.00    +0.124 C 
ATOM      4  C   UNL     1      -2.931   7.806   0.080  0.00  0.00    +0.154 C 
ATOM      5  N   UNL     1      -3.620   7.633   1.358  0.00  0.00    -0.225 N 
ATOM      6  C   UNL     1      -2.993   7.439   2.543  0.00  0.00    +0.214 A 
ATOM      7  N   UNL     1      -3.906   7.321   3.469  0.00  0.00    -0.202 NA
ATOM      8  C   UNL     1      -5.119   7.436   2.917  0.00  0.00    +0.247 A 
ATOM      9  N   UNL     1      -4.989   7.628   1.628  0.00  0.00    -0.156 NA
ATOM     10  N   UNL     1      -1.610   7.391   2.651  0.00  0.00    -0.310 N 
ATOM     11  H   UNL     1      -1.078   7.037   3.547  0.00  0.00    +0.149 HD
ENDROOT
BRANCH   4  12
ATOM     12  C   UNL     1      -3.659   7.039  -0.995  0.00  0.00    -0.019 A 
ATOM     13  C   UNL     1      -3.897   7.627  -2.223  0.00  0.00    +0.006 A 
ATOM     14  C   UNL     1      -4.564   6.925  -3.209  0.00  0.00    +0.003 A 
ATOM     15  C   UNL     1      -4.994   5.634  -2.968  0.00  0.00    +0.038 A 
ATOM     16  C   UNL     1      -4.756   5.044  -1.738  0.00  0.00    +0.124 A 
ATOM     17  C   UNL     1      -4.082   5.746  -0.753  0.00  0.00    +0.044 A 
ATOM     18  F   UNL     1      -5.175   3.781  -1.502  0.00  0.00    -0.205 F 
ENDBRANCH   4  12
BRANCH   3  19
ATOM     19  C   UNL     1      -1.533   5.768   0.310  0.00  0.00    +0.225 C 
ATOM     20  O   UNL     1      -1.859   5.234   1.349  0.00  0.00    -0.275 OA
ATOM     21  N   UNL     1      -1.201   5.017  -0.759  0.00  0.00    -0.282 N 
ATOM     22  H   UNL     1      -0.802   5.496  -1.665  0.00  0.00    +0.155 HD
BRANCH  21  23
ATOM     23  C   UNL     1      -1.364   3.626  -0.715  0.00  0.00    +0.076 A 
ATOM     24  C   UNL     1      -1.294   2.955   0.497  0.00  0.00    +0.027 A 
ATOM     25  C   UNL     1      -1.460   1.584   0.539  0.00  0.00    +0.002 A 
ATOM     26  C   UNL     1      -1.687   0.876  -0.627  0.00  0.00    +0.004 A 
ATOM     27  C   UNL     1      -1.758   1.537  -1.839  0.00  0.00    +0.047 A 
ATOM     28  C   UNL     1      -1.597   2.913  -1.889  0.00  0.00    +0.141 A 
BRANCH  28  29
ATOM     29  O   UNL     1      -1.667   3.565  -3.080  0.00  0.00    -0.493 OA
ATOM     30  C   UNL     1      -1.909   2.769  -4.242  0.00  0.00    +0.277 C 
ENDBRANCH  28  29
ENDBRANCH  21  23
ENDBRANCH   3  19
TORSDOF 4
