REMARK  Name = ZINC67240411
REMARK  5 active torsions:
REMARK  status: ('A' for Active; 'I' for Inactive)
REMARK    1  A    between atoms: C_3  and  N_12
REMARK    2  A    between atoms: C_6  and  C_7
REMARK    3  A    between atoms: C_7  and  N_8
REMARK    4  A    between atoms: C_13  and  C_15
REMARK    5  A    between atoms: C_15  and  C_20
REMARK                            x       y       z     vdW  Elec       q    Type
REMARK                         _______ _______ _______ _____ _____    ______ ____
ROOT
ATOM      1  N   UNL     1       3.631   2.518   0.624  0.00  0.00    -0.285 N 
ATOM      2  C   UNL     1       4.642   1.703   0.263  0.00  0.00    +0.228 C 
ATOM      3  O   UNL     1       4.422   0.537   0.013  0.00  0.00    -0.275 OA
ATOM      4  H   UNL     1       3.789   3.470   0.727  0.00  0.00    +0.155 HD
ENDROOT
BRANCH   1   7
ATOM      5  C   UNL     1       0.276   2.024   2.044  0.00  0.00    +0.007 A 
ATOM      6  C   UNL     1       1.536   2.546   1.824  0.00  0.00    +0.023 A 
ATOM      7  C   UNL     1       2.355   1.992   0.849  0.00  0.00    +0.033 A 
ATOM      8  C   UNL     1       1.904   0.914   0.098  0.00  0.00    +0.023 A 
ATOM      9  C   UNL     1       0.643   0.397   0.323  0.00  0.00    +0.007 A 
ATOM     10  C   UNL     1      -0.170   0.951   1.295  0.00  0.00    -0.030 A 
BRANCH  10  11
ATOM     11  C   UNL     1      -1.545   0.384   1.537  0.00  0.00    +0.141 C 
BRANCH  11  12
ATOM     12  N   UNL     1      -2.515   1.072   0.681  0.00  0.00    -0.295 N 
ATOM     13  C   UNL     1      -3.817   0.729   0.728  0.00  0.00    +0.297 C 
ATOM     14  O   UNL     1      -4.188  -0.151   1.480  0.00  0.00    -0.253 OA
ATOM     15  N   UNL     1      -4.709   1.361  -0.060  0.00  0.00    -0.313 N 
ATOM     16  H   UNL     1      -2.219   1.774   0.080  0.00  0.00    +0.151 HD
ATOM     17  H   UNL     1      -4.414   2.063  -0.661  0.00  0.00    +0.146 HD
ATOM     18  H   UNL     1      -5.647   1.114  -0.027  0.00  0.00    +0.146 HD
ENDBRANCH  11  12
ENDBRANCH  10  11
ENDBRANCH   1   7
BRANCH   2  19
ATOM     19  C   UNL     1       6.047   2.241   0.171  0.00  0.00    +0.072 C 
ATOM     20  C   UNL     1       6.445   2.911   1.502  0.00  0.00    +0.021 C 
ATOM     21  C   UNL     1       7.208   1.805   2.272  0.00  0.00    +0.001 C 
ATOM     22  C   UNL     1       8.006   1.096   1.149  0.00  0.00    +0.001 C 
ATOM     23  C   UNL     1       7.040   1.086  -0.053  0.00  0.00    +0.021 C 
BRANCH  19  24
ATOM     24  C   UNL     1       6.147   3.233  -0.959  0.00  0.00    -0.029 A 
ATOM     25  C   UNL     1       7.205   4.121  -1.006  0.00  0.00    +0.008 A 
ATOM     26  C   UNL     1       7.299   5.034  -2.039  0.00  0.00    +0.050 A 
ATOM     27  C   UNL     1       6.331   5.061  -3.032  0.00  0.00    +0.162 A 
ATOM     28  C   UNL     1       5.269   4.167  -2.986  0.00  0.00    +0.162 A 
ATOM     29  C   UNL     1       5.183   3.251  -1.948  0.00  0.00    +0.054 A 
ATOM     30  O   UNL     1       4.312   4.172  -3.954  0.00  0.00    -0.485 OA
ATOM     31  C   UNL     1       4.233   5.342  -4.776  0.00  0.00    +0.270 C 
ATOM     32  C   UNL     1       5.655   5.718  -5.215  0.00  0.00    +0.270 C 
ATOM     33  O   UNL     1       6.435   5.969  -4.041  0.00  0.00    -0.485 OA
ENDBRANCH  19  24
ENDBRANCH   2  19
TORSDOF 5
