REMARK  Name = ZINC41630462
REMARK  6 active torsions:
REMARK  status: ('A' for Active; 'I' for Inactive)
REMARK    1  A    between atoms: C_3  and  C_22
REMARK    2  A    between atoms: C_4  and  N_8
REMARK    3  A    between atoms: C_9  and  C_11
REMARK    4  A    between atoms: C_11  and  S_12
REMARK    5  A    between atoms: S_12  and  C_13
REMARK    6  A    between atoms: C_19  and  N_21
REMARK                            x       y       z     vdW  Elec       q    Type
REMARK                         _______ _______ _______ _____ _____    ______ ____
ROOT
ATOM      1  N   UNL     1       3.623  -0.649  -0.036  0.00  0.00    -0.284 N 
ATOM      2  C   UNL     1       3.647  -1.994   0.058  0.00  0.00    +0.227 C 
ATOM      3  O   UNL     1       2.608  -2.620   0.065  0.00  0.00    -0.275 OA
ATOM      4  H   UNL     1       4.453  -0.153  -0.108  0.00  0.00    +0.155 HD
ENDROOT
BRANCH   1   8
ATOM      5  C   UNL     1      -0.018   1.378  -0.020  0.00  0.00    +0.020 A 
ATOM      6  C   UNL     1       1.092   1.948   0.575  0.00  0.00    +0.015 A 
ATOM      7  C   UNL     1       2.300   1.278   0.572  0.00  0.00    +0.076 A 
ATOM      8  C   UNL     1       2.400   0.031  -0.031  0.00  0.00    +0.046 A 
ATOM      9  C   UNL     1       1.284  -0.540  -0.629  0.00  0.00    +0.043 A 
ATOM     10  C   UNL     1       0.077   0.135  -0.622  0.00  0.00    +0.043 A 
ATOM     11 CL   UNL     1      -1.319  -0.577  -1.369  0.00  0.00    -0.083 Cl
BRANCH   7  12
ATOM     12  C   UNL     1       3.509   1.901   1.221  0.00  0.00    +0.419 C 
ATOM     13  F   UNL     1       3.162   3.147   1.754  0.00  0.00    -0.166 F 
ATOM     14  F   UNL     1       3.970   1.067   2.245  0.00  0.00    -0.166 F 
ATOM     15  F   UNL     1       4.518   2.067   0.266  0.00  0.00    -0.166 F 
ENDBRANCH   7  12
ENDBRANCH   1   8
BRANCH   2  16
ATOM     16  C   UNL     1       4.964  -2.719   0.154  0.00  0.00    +0.173 C 
BRANCH  16  17
ATOM     17  S   UNL     1       4.664  -4.505   0.268  0.00  0.00    -0.078 S 
BRANCH  17  18
ATOM     18  C   UNL     1       6.279  -5.202   0.373  0.00  0.00    +0.171 A 
ATOM     19  N   UNL     1       6.417  -6.554   0.466  0.00  0.00    -0.302 N 
ATOM     20  H   UNL     1       5.631  -7.122   0.474  0.00  0.00    +0.171 HD
ATOM     21  C   UNL     1       7.646  -7.105   0.547  0.00  0.00    +0.254 A 
ATOM     22  O   UNL     1       7.779  -8.316   0.631  0.00  0.00    -0.268 OA
ATOM     23  C   UNL     1       8.765  -6.266   0.534  0.00  0.00    +0.113 A 
ATOM     24  C   UNL     1       8.570  -4.896   0.437  0.00  0.00    +0.124 A 
ATOM     25  N   UNL     1       7.328  -4.406   0.354  0.00  0.00    -0.209 NA
BRANCH  24  26
ATOM     26  N   UNL     1       9.655  -4.041   0.422  0.00  0.00    -0.343 N 
ATOM     27  H   UNL     1      10.554  -4.399   0.478  0.00  0.00    +0.144 HD
ATOM     28  H   UNL     1       9.516  -3.083   0.354  0.00  0.00    +0.144 HD
ENDBRANCH  24  26
ENDBRANCH  17  18
ENDBRANCH  16  17
ENDBRANCH   2  16
TORSDOF 6
