REMARK  Name = ZINC14807606
REMARK  10 active torsions:
REMARK  status: ('A' for Active; 'I' for Inactive)
REMARK    1  A    between atoms: C_1  and  C_2
REMARK    2  A    between atoms: C_5  and  N_9
REMARK    3  A    between atoms: C_6  and  C_8
REMARK    4  A    between atoms: N_9  and  C_10
REMARK    5  A    between atoms: C_10  and  N_12
REMARK    6  A    between atoms: N_12  and  N_13
REMARK    7  A    between atoms: C_14  and  C_16
REMARK    8  A    between atoms: C_18  and  N_24
REMARK    9  A    between atoms: C_21  and  O_22
REMARK   10  A    between atoms: O_22  and  C_23
REMARK                            x       y       z     vdW  Elec       q    Type
REMARK                         _______ _______ _______ _____ _____    ______ ____
ROOT
ATOM      1  N   UNL     1      -0.106  -6.886   0.025  0.00  0.00    -0.231 N 
ATOM      2  C   UNL     1      -0.190  -8.232   0.024  0.00  0.00    +0.264 C 
ATOM      3  O   UNL     1      -0.279  -8.835  -1.027  0.00  0.00    -0.269 OA
ATOM      4  H   UNL     1      -0.035  -6.405   0.864  0.00  0.00    +0.173 HD
ENDROOT
BRANCH   2   5
ATOM      5  C   UNL     1      -0.173  -8.972   1.300  0.00  0.00    +0.082 A 
ATOM      6  C   UNL     1      -0.077  -8.282   2.512  0.00  0.00    +0.049 A 
ATOM      7  C   UNL     1      -0.062  -8.980   3.700  0.00  0.00    +0.127 A 
ATOM      8  C   UNL     1      -0.142 -10.363   3.700  0.00  0.00    +0.036 A 
ATOM      9  C   UNL     1      -0.237 -11.057   2.510  0.00  0.00    +0.048 A 
ATOM     10  C   UNL     1      -0.259 -10.371   1.305  0.00  0.00    +0.132 A 
BRANCH   7  11
ATOM     11  N   UNL     1       0.040  -8.248   4.982  0.00  0.00    +0.056 N 
ATOM     12  O   UNL     1       0.110  -7.041   4.986  0.00  0.00    -0.126 OA
ATOM     13  O   UNL     1       0.053  -8.857   6.027  0.00  0.00    -0.126 OA
ENDBRANCH   7  11
BRANCH  10  14
ATOM     14  O   UNL     1      -0.358 -11.051   0.135  0.00  0.00    -0.494 OA
ATOM     15  C   UNL     1      -0.442 -12.475   0.218  0.00  0.00    +0.277 C 
ENDBRANCH  10  14
ENDBRANCH   2   5
BRANCH   1  16
ATOM     16  N   UNL     1      -0.122  -6.184  -1.187  0.00  0.00    -0.245 N 
ATOM     17  H   UNL     1      -0.193  -6.665  -2.026  0.00  0.00    +0.172 HD
BRANCH  16  18
ATOM     18  C   UNL     1      -0.039  -4.838  -1.187  0.00  0.00    +0.151 C 
ATOM     19  S   UNL     1      -0.058  -3.979  -2.668  0.00  0.00    -0.017 S 
BRANCH  18  20
ATOM     20  N   UNL     1       0.059  -4.169  -0.021  0.00  0.00    -0.296 N 
ATOM     21  H   UNL     1       0.134  -4.658   0.814  0.00  0.00    +0.154 HD
BRANCH  20  26
ATOM     22  C   UNL     1       0.038   1.503   0.005  0.00  0.00    +0.044 C 
ATOM     23  C   UNL     1       0.044  -0.004  -0.002  0.00  0.00    -0.050 A 
ATOM     24  C   UNL     1       0.855  -0.687  -0.890  0.00  0.00    +0.005 A 
ATOM     25  C   UNL     1       0.863  -2.068  -0.898  0.00  0.00    +0.024 A 
ATOM     26  C   UNL     1       0.054  -2.771  -0.015  0.00  0.00    +0.036 A 
ATOM     27  C   UNL     1      -0.759  -2.082   0.875  0.00  0.00    -0.029 A 
ATOM     28  C   UNL     1      -0.758  -0.700   0.882  0.00  0.00    +0.008 A 
ATOM     29  C   UNL     1      -1.638  -2.840   1.836  0.00  0.00    +0.045 C 
ENDBRANCH  20  26
ENDBRANCH  18  20
ENDBRANCH  16  18
ENDBRANCH   1  16
TORSDOF 7
