REMARK  Name = ZINC63374752
REMARK  6 active torsions:
REMARK  status: ('A' for Active; 'I' for Inactive)
REMARK    1  A    between atoms: C_1  and  C_2
REMARK    2  A    between atoms: C_4  and  C_35
REMARK    3  A    between atoms: C_6  and  N_8
REMARK    4  A    between atoms: C_11  and  C_18
REMARK    5  A    between atoms: C_25  and  O_30
REMARK    6  A    between atoms: O_30  and  C_31
REMARK                            x       y       z     vdW  Elec       q    Type
REMARK                         _______ _______ _______ _____ _____    ______ ____
ROOT
ATOM      1  N   UNL     1       0.051  -2.798   2.395  0.00  0.00    -0.229 N 
ATOM      2  C   UNL     1       0.144  -2.130   3.561  0.00  0.00    +0.270 A 
ATOM      3  O   UNL     1       0.215  -0.913   3.568  0.00  0.00    -0.267 OA
ATOM      4  C   UNL     1       0.159  -2.846   4.771  0.00  0.00    +0.101 A 
ATOM      5  C   UNL     1       0.078  -4.206   4.737  0.00  0.00    +0.263 A 
ATOM      6  N   UNL     1      -0.016  -4.847   3.527  0.00  0.00    -0.274 N 
ATOM      7  H   UNL     1      -0.074  -5.815   3.498  0.00  0.00    +0.173 HD
ATOM      8  C   UNL     1      -0.034  -4.141   2.382  0.00  0.00    +0.337 A 
ATOM      9  O   UNL     1      -0.123  -4.725   1.319  0.00  0.00    -0.246 OA
ATOM     10  O   UNL     1       0.090  -4.918   5.884  0.00  0.00    -0.267 OA
ENDROOT
BRANCH   4  11
ATOM     11  C   UNL     1       0.263  -2.119   6.088  0.00  0.00    +0.121 C 
ATOM     12  C   UNL     1      -0.980  -1.252   6.298  0.00  0.00    +0.128 C 
ATOM     13  C   UNL     1      -0.718  -0.429   7.554  0.00  0.00    -0.035 C 
ATOM     14  C   UNL     1      -1.744  -0.646   8.365  0.00  0.00    +0.003 A 
ATOM     15  C   UNL     1      -2.103  -0.077   9.673  0.00  0.00    +0.055 A 
ATOM     16  C   UNL     1      -3.244  -0.543  10.250  0.00  0.00    +0.121 A 
ATOM     17  C   UNL     1      -4.075  -1.515   9.672  0.00  0.00    +0.047 A 
ATOM     18  C   UNL     1      -3.842  -2.101   8.470  0.00  0.00    +0.029 A 
ATOM     19  C   UNL     1      -2.638  -1.674   7.745  0.00  0.00    +0.043 A 
ATOM     20  N   UNL     1      -2.180  -2.043   6.566  0.00  0.00    -0.376 N 
ATOM     21  C   UNL     1       0.561   0.351   7.737  0.00  0.00    +0.048 C 
ATOM     22  C   UNL     1       1.707  -0.610   7.374  0.00  0.00    +0.086 C 
ATOM     23  N   UNL     1       1.444  -1.242   6.078  0.00  0.00    -0.307 NA
ATOM     24  H   UNL     1       2.259  -1.736   5.744  0.00  0.00    +0.123 HD
ATOM     25  H   UNL     1      -2.559  -2.717   5.980  0.00  0.00    +0.160 HD
BRANCH  16  26
ATOM     26  O   UNL     1      -3.601  -0.036  11.460  0.00  0.00    -0.495 OA
ATOM     27  C   UNL     1      -4.803  -0.541  12.046  0.00  0.00    +0.277 C 
ENDBRANCH  16  26
ENDBRANCH   4  11
BRANCH   1  33
ATOM     28  C   UNL     1       2.501  -0.799  -1.372  0.00  0.00    +0.044 C 
ATOM     29  C   UNL     1       1.209  -1.106  -0.660  0.00  0.00    -0.048 A 
ATOM     30  C   UNL     1       0.007  -0.687  -1.199  0.00  0.00    +0.006 A 
ATOM     31  C   UNL     1      -1.181  -0.967  -0.549  0.00  0.00    -0.048 A 
ATOM     32  C   UNL     1      -1.170  -1.666   0.642  0.00  0.00    +0.029 A 
ATOM     33  C   UNL     1       0.036  -2.089   1.186  0.00  0.00    +0.055 A 
ATOM     34  C   UNL     1       1.226  -1.811   0.528  0.00  0.00    +0.029 A 
ATOM     35  C   UNL     1      -2.489  -0.507  -1.139  0.00  0.00    +0.044 C 
ENDBRANCH   1  33
TORSDOF 3
