REMARK  Name = ZINC00959309
REMARK  6 active torsions:
REMARK  status: ('A' for Active; 'I' for Inactive)
REMARK    1  A    between atoms: C_1  and  C_2
REMARK    2  A    between atoms: C_3  and  N_15
REMARK    3  A    between atoms: N_6  and  C_9
REMARK    4  A    between atoms: N_7  and  C_8
REMARK    5  A    between atoms: N_18  and  N_19
REMARK    6  A    between atoms: N_27  and  C_30
REMARK                            x       y       z     vdW  Elec       q    Type
REMARK                         _______ _______ _______ _____ _____    ______ ____
ROOT
ATOM      1  N   UNL     1       0.147  -0.336  -2.400  0.00  0.00    -0.217 NA
ATOM      2  C   UNL     1       1.138   0.441  -2.760  0.00  0.00    +0.185 C 
ATOM      3  S   UNL     1       2.289   1.016  -1.556  0.00  0.00    -0.012 SA
ATOM      4  N   UNL     1       1.282   0.808  -4.082  0.00  0.00    -0.214 N 
ATOM      5  H   UNL     1       2.016   1.383  -4.349  0.00  0.00    +0.176 HD
ENDROOT
BRANCH   4   6
ATOM      6  N   UNL     1       0.439   0.387  -4.964  0.00  0.00    -0.175 NA
ATOM      7  C   UNL     1       0.576   0.737  -6.223  0.00  0.00    +0.153 C 
ATOM      8  C   UNL     1      -0.291   0.358  -7.363  0.00  0.00    +0.028 A 
ATOM      9  C   UNL     1      -1.435  -0.426  -7.471  0.00  0.00    +0.012 A 
ATOM     10  C   UNL     1      -2.033  -0.597  -8.703  0.00  0.00    +0.001 A 
ATOM     11  C   UNL     1      -1.495   0.009  -9.826  0.00  0.00    +0.002 A 
ATOM     12  C   UNL     1      -0.359   0.787  -9.729  0.00  0.00    +0.024 A 
ATOM     13  C   UNL     1       0.257   0.972  -8.496  0.00  0.00    +0.046 A 
ATOM     14  N   UNL     1       1.387   1.693  -8.127  0.00  0.00    -0.269 N 
ATOM     15  C   UNL     1       1.620   1.597  -6.807  0.00  0.00    +0.271 C 
ATOM     16  O   UNL     1       2.534   2.125  -6.201  0.00  0.00    -0.268 OA
ATOM     17  C   UNL     1       2.215   2.464  -9.057  0.00  0.00    +0.138 C 
ENDBRANCH   4   6
BRANCH   1  20
ATOM     18  C   UNL     1      -1.213   1.274  -0.180  0.00  0.00    +0.067 C 
ATOM     19  C   UNL     1      -0.553  -0.077  -0.074  0.00  0.00    +0.064 A 
ATOM     20  C   UNL     1       0.040  -0.753  -1.094  0.00  0.00    +0.153 A 
ATOM     21  C   UNL     1       0.545  -2.015  -0.537  0.00  0.00    +0.298 A 
ATOM     22  O   UNL     1       1.138  -2.890  -1.142  0.00  0.00    -0.264 OA
ATOM     23  N   UNL     1       0.226  -2.019   0.774  0.00  0.00    -0.215 N 
ATOM     24  N   UNL     1      -0.445  -0.827   1.066  0.00  0.00    -0.282 N 
ATOM     25  C   UNL     1      -0.956  -0.443   2.384  0.00  0.00    +0.171 C 
BRANCH  23  26
ATOM     26  C   UNL     1       0.520  -3.038   1.686  0.00  0.00    +0.067 A 
ATOM     27  C   UNL     1      -0.471  -3.526   2.528  0.00  0.00    +0.028 A 
ATOM     28  C   UNL     1      -0.177  -4.532   3.427  0.00  0.00    +0.002 A 
ATOM     29  C   UNL     1       1.102  -5.054   3.489  0.00  0.00    +0.000 A 
ATOM     30  C   UNL     1       2.091  -4.571   2.652  0.00  0.00    +0.002 A 
ATOM     31  C   UNL     1       1.802  -3.569   1.746  0.00  0.00    +0.028 A 
ENDBRANCH  23  26
ENDBRANCH   1  20
TORSDOF 3
