REMARK  Name = ZINC08612406
REMARK  7 active torsions:
REMARK  status: ('A' for Active; 'I' for Inactive)
REMARK    1  A    between atoms: C_1  and  C_2
REMARK    2  A    between atoms: C_5  and  C_8
REMARK    3  A    between atoms: C_10  and  N_13
REMARK    4  A    between atoms: C_14  and  C_16
REMARK    5  A    between atoms: C_16  and  O_17
REMARK    6  A    between atoms: O_17  and  C_18
REMARK    7  A    between atoms: C_23  and  C_24
REMARK                            x       y       z     vdW  Elec       q    Type
REMARK                         _______ _______ _______ _____ _____    ______ ____
ROOT
ATOM      1  N   UNL     1       0.101  -7.507   1.496  0.00  0.00    -0.251 N 
ATOM      2  C   UNL     1       0.117  -8.735   0.941  0.00  0.00    +0.257 C 
ATOM      3  O   UNL     1       0.118  -8.854  -0.266  0.00  0.00    -0.272 OA
ATOM      4  H   UNL     1       0.100  -7.412   2.462  0.00  0.00    +0.158 HD
ENDROOT
BRANCH   1   7
ATOM      5  C   UNL     1       0.059  -4.257  -0.021  0.00  0.00    +0.115 A 
ATOM      6  C   UNL     1       0.070  -5.093   1.115  0.00  0.00    +0.097 A 
ATOM      7  C   UNL     1       0.086  -6.379   0.688  0.00  0.00    +0.225 A 
ATOM      8  O   UNL     1       0.086  -6.371  -0.656  0.00  0.00    -0.339 OA
ATOM      9  N   UNL     1       0.064  -5.023  -1.087  0.00  0.00    -0.076 NA
BRANCH   5  14
ATOM     10  C   UNL     1      -0.018   1.503   0.010  0.00  0.00    +0.044 C 
ATOM     11  C   UNL     1       0.002  -0.004   0.002  0.00  0.00    -0.050 A 
ATOM     12  C   UNL     1       0.006  -0.687  -1.201  0.00  0.00    +0.004 A 
ATOM     13  C   UNL     1       0.024  -2.067  -1.214  0.00  0.00    +0.010 A 
ATOM     14  C   UNL     1       0.040  -2.772  -0.013  0.00  0.00    +0.004 A 
ATOM     15  C   UNL     1       0.036  -2.080   1.196  0.00  0.00    +0.010 A 
ATOM     16  C   UNL     1       0.023  -0.700   1.198  0.00  0.00    +0.004 A 
ENDBRANCH   5  14
ENDBRANCH   1   7
BRANCH   2  17
ATOM     17  C   UNL     1       0.132  -9.959   1.819  0.00  0.00    +0.325 C 
BRANCH  17  18
ATOM     18  O   UNL     1       0.147 -11.131   1.001  0.00  0.00    -0.482 OA
BRANCH  18  19
ATOM     19  C   UNL     1       0.162 -12.330   1.642  0.00  0.00    +0.124 A 
ATOM     20  C   UNL     1       0.158 -12.377   3.028  0.00  0.00    +0.047 A 
ATOM     21  C   UNL     1       0.173 -13.596   3.677  0.00  0.00    +0.023 A 
ATOM     22  C   UNL     1       0.194 -14.770   2.945  0.00  0.00    +0.041 A 
ATOM     23  C   UNL     1       0.200 -14.726   1.563  0.00  0.00    +0.027 A 
ATOM     24  C   UNL     1       0.177 -13.508   0.910  0.00  0.00    -0.007 A 
ATOM     25  C   UNL     1       0.175 -13.460  -0.596  0.00  0.00    +0.047 C 
ATOM     26 CL   UNL     1       0.215 -16.301   3.763  0.00  0.00    -0.084 Cl
ENDBRANCH  18  19
ENDBRANCH  17  18
ENDBRANCH   2  17
TORSDOF 5
