REMARK  Name = ZINC45481277
REMARK  8 active torsions:
REMARK  status: ('A' for Active; 'I' for Inactive)
REMARK    1  A    between atoms: C_1  and  C_2
REMARK    2  A    between atoms: C_2  and  C_4
REMARK    3  A    between atoms: C_2  and  S_19
REMARK    4  A    between atoms: N_6  and  C_7
REMARK    5  A    between atoms: S_19  and  C_20
REMARK    6  A    between atoms: N_25  and  C_26
REMARK    7  A    between atoms: C_31  and  O_32
REMARK    8  A    between atoms: O_32  and  C_33
REMARK                            x       y       z     vdW  Elec       q    Type
REMARK                         _______ _______ _______ _____ _____    ______ ____
ROOT
ATOM      1  C   UNL     1      -0.897   0.788  -0.558  0.00  0.00    +0.029 C 
ATOM      2  C   UNL     1      -0.766  -0.730  -0.702  0.00  0.00    +0.136 C 
ENDROOT
BRANCH   2   3
ATOM      3  C   UNL     1      -2.125  -1.330  -0.953  0.00  0.00    +0.230 C 
ATOM      4  O   UNL     1      -2.458  -1.628  -2.081  0.00  0.00    -0.274 OA
ATOM      5  N   UNL     1      -2.972  -1.535   0.075  0.00  0.00    -0.285 N 
ATOM      6  H   UNL     1      -2.683  -1.355   0.984  0.00  0.00    +0.155 HD
BRANCH   5   7
ATOM      7  C   UNL     1      -4.268  -2.008  -0.168  0.00  0.00    +0.035 A 
ATOM      8  C   UNL     1      -5.326  -1.566   0.617  0.00  0.00    +0.025 A 
ATOM      9  C   UNL     1      -6.605  -2.029   0.383  0.00  0.00    +0.029 A 
ATOM     10  C   UNL     1      -6.837  -2.937  -0.639  0.00  0.00    +0.067 A 
ATOM     11  C   UNL     1      -5.775  -3.383  -1.429  0.00  0.00    +0.069 A 
ATOM     12  C   UNL     1      -4.493  -2.913  -1.195  0.00  0.00    +0.051 A 
ATOM     13  N   UNL     1      -6.311  -4.275  -2.356  0.00  0.00    -0.306 N 
ATOM     14  H   UNL     1      -5.813  -4.748  -3.041  0.00  0.00    +0.170 HD
ATOM     15  C   UNL     1      -7.636  -4.367  -2.140  0.00  0.00    +0.325 A 
ATOM     16  O   UNL     1      -8.403  -5.064  -2.779  0.00  0.00    -0.247 OA
ATOM     17  N   UNL     1      -7.985  -3.572  -1.111  0.00  0.00    -0.306 N 
ATOM     18  H   UNL     1      -8.881  -3.461  -0.758  0.00  0.00    +0.170 HD
ENDBRANCH   5   7
ENDBRANCH   2   3
BRANCH   2  19
ATOM     19  S   UNL     1       0.330  -1.111  -2.096  0.00  0.00    -0.084 S 
BRANCH  19  20
ATOM     20  C   UNL     1       1.896  -0.480  -1.592  0.00  0.00    +0.161 A 
ATOM     21  N   UNL     1       2.231   0.126  -0.469  0.00  0.00    -0.133 NA
ATOM     22  N   UNL     1       3.528   0.543  -0.278  0.00  0.00    -0.125 NA
ATOM     23  C   UNL     1       4.431   0.335  -1.216  0.00  0.00    +0.187 A 
ATOM     24  S   UNL     1       3.457  -0.498  -2.461  0.00  0.00    -0.024 S 
ATOM     25  N   UNL     1       5.780   0.668  -1.231  0.00  0.00    -0.289 N 
ATOM     26  H   UNL     1       6.309   0.515  -2.030  0.00  0.00    +0.154 HD
BRANCH  25  27
ATOM     27  C   UNL     1       6.375   1.226  -0.094  0.00  0.00    +0.075 A 
ATOM     28  C   UNL     1       5.598   1.555   1.008  0.00  0.00    +0.027 A 
ATOM     29  C   UNL     1       6.189   2.105   2.130  0.00  0.00    +0.002 A 
ATOM     30  C   UNL     1       7.553   2.328   2.158  0.00  0.00    +0.004 A 
ATOM     31  C   UNL     1       8.334   2.003   1.064  0.00  0.00    +0.047 A 
ATOM     32  C   UNL     1       7.751   1.446  -0.062  0.00  0.00    +0.141 A 
BRANCH  32  33
ATOM     33  O   UNL     1       8.518   1.121  -1.137  0.00  0.00    -0.493 OA
ATOM     34  C   UNL     1       9.921   1.375  -1.033  0.00  0.00    +0.277 C 
ENDBRANCH  32  33
ENDBRANCH  25  27
ENDBRANCH  19  20
ENDBRANCH   2  19
TORSDOF 6
