REMARK  Name = ZINC66768469
REMARK  6 active torsions:
REMARK  status: ('A' for Active; 'I' for Inactive)
REMARK    1  A    between atoms: C_3  and  N_9
REMARK    2  A    between atoms: C_6  and  C_7
REMARK    3  A    between atoms: C_12  and  N_15
REMARK    4  A    between atoms: C_16  and  C_18
REMARK    5  A    between atoms: C_20  and  S_23
REMARK    6  A    between atoms: S_23  and  N_26
REMARK                            x       y       z     vdW  Elec       q    Type
REMARK                         _______ _______ _______ _____ _____    ______ ____
ROOT
ATOM      1  N   UNL     1       6.740   3.746   2.123  0.00  0.00    -0.308 N 
ATOM      2  C   UNL     1       7.428   4.898   1.995  0.00  0.00    +0.245 C 
ATOM      3  O   UNL     1       7.332   5.553   0.975  0.00  0.00    -0.270 OA
ATOM      4  H   UNL     1       6.816   3.223   2.936  0.00  0.00    +0.149 HD
ENDROOT
BRANCH   1   8
ATOM      5  N   UNL     1       3.578   2.018  -0.022  0.00  0.00    -0.315 N 
ATOM      6  C   UNL     1       4.847   1.278  -0.044  0.00  0.00    +0.108 C 
ATOM      7  C   UNL     1       5.721   1.763   1.117  0.00  0.00    +0.041 C 
ATOM      8  C   UNL     1       5.878   3.283   1.032  0.00  0.00    +0.076 C 
ATOM      9  C   UNL     1       4.504   3.947   1.152  0.00  0.00    +0.041 C 
ATOM     10  C   UNL     1       3.617   3.487  -0.015  0.00  0.00    +0.108 C 
BRANCH   5  13
ATOM     11  C   UNL     1      -0.009   1.381  -0.220  0.00  0.00    +0.024 A 
ATOM     12  C   UNL     1       1.186   2.050  -0.228  0.00  0.00    +0.045 A 
ATOM     13  C   UNL     1       2.367   1.344  -0.013  0.00  0.00    +0.121 A 
ATOM     14  N   UNL     1       2.350   0.035   0.199  0.00  0.00    -0.239 NA
ATOM     15  C   UNL     1       1.224  -0.647   0.215  0.00  0.00    +0.131 A 
ATOM     16  C   UNL     1       0.002  -0.004   0.007  0.00  0.00    +0.070 A 
BRANCH  16  17
ATOM     17  C   UNL     1      -1.222  -0.746   0.025  0.00  0.00    +0.101 C 
ATOM     18  N   UNL     1      -2.194  -1.335   0.040  0.00  0.00    -0.191 NA
ENDBRANCH  16  17
ENDBRANCH   5  13
ENDBRANCH   1   8
BRANCH   2  19
ATOM     19  C   UNL     1       8.294   5.363   3.090  0.00  0.00    +0.046 A 
ATOM     20  C   UNL     1       9.041   6.594   2.992  0.00  0.00    +0.049 A 
ATOM     21  C   UNL     1       9.796   6.908   4.063  0.00  0.00    +0.143 A 
ATOM     22  S   UNL     1       9.495   5.555   5.179  0.00  0.00    -0.076 S 
ATOM     23  C   UNL     1       8.425   4.647   4.259  0.00  0.00    +0.060 A 
BRANCH  21  24
ATOM     24  S   UNL     1      10.830   8.315   4.301  0.00  0.00    +0.062 S 
ATOM     25  O   UNL     1      11.804   7.945   5.267  0.00  0.00    -0.153 OA
ATOM     26  O   UNL     1      11.182   8.783   3.006  0.00  0.00    -0.153 OA
BRANCH  24  27
ATOM     27  N   UNL     1       9.899   9.495   4.994  0.00  0.00    -0.203 NA
ATOM     28  H   UNL     1      10.304  10.147   5.587  0.00  0.00    +0.144 HD
ATOM     29  H   UNL     1       8.948   9.535   4.808  0.00  0.00    +0.144 HD
ENDBRANCH  24  27
ENDBRANCH  21  24
ENDBRANCH   2  19
TORSDOF 6
