REMARK  Name = ZINC00437022
REMARK  5 active torsions:
REMARK  status: ('A' for Active; 'I' for Inactive)
REMARK    1  A    between atoms: C_9  and  O_24
REMARK    2  A    between atoms: C_10  and  C_11
REMARK    3  A    between atoms: C_12  and  C_13
REMARK    4  A    between atoms: C_12  and  C_15
REMARK    5  A    between atoms: C_18  and  N_21
REMARK                            x       y       z     vdW  Elec       q    Type
REMARK                         _______ _______ _______ _____ _____    ______ ____
ROOT
ATOM      1  C   UNL     1      -1.379   5.932   0.135  0.00  0.00    +0.031 C 
ATOM      2  C   UNL     1      -1.564   6.952   1.023  0.00  0.00    +0.060 C 
ENDROOT
BRANCH   1  12
ATOM      3  C   UNL     1       3.387   7.360  -1.085  0.00  0.00    +0.001 A 
ATOM      4  C   UNL     1       2.171   8.034  -1.014  0.00  0.00    +0.001 A 
ATOM      5  C   UNL     1       1.029   7.382  -0.654  0.00  0.00    +0.009 A 
ATOM      6  C   UNL     1       1.080   6.019  -0.341  0.00  0.00    -0.007 A 
ATOM      7  C   UNL     1       2.316   5.331  -0.408  0.00  0.00    -0.017 A 
ATOM      8  C   UNL     1       3.472   6.033  -0.788  0.00  0.00    +0.008 A 
ATOM      9  C   UNL     1       2.365   3.961  -0.093  0.00  0.00    +0.012 A 
ATOM     10  C   UNL     1       1.241   3.289   0.273  0.00  0.00    +0.046 A 
ATOM     11  C   UNL     1       0.001   3.919   0.355  0.00  0.00    +0.125 A 
ATOM     12  C   UNL     1      -0.121   5.281   0.056  0.00  0.00    +0.025 A 
BRANCH  11  13
ATOM     13  O   UNL     1      -1.093   3.209   0.725  0.00  0.00    -0.506 OA
ATOM     14  H   UNL     1      -1.524   2.741  -0.003  0.00  0.00    +0.292 HD
ENDBRANCH  11  13
ENDBRANCH   1  12
BRANCH   2  15
ATOM     15  C   UNL     1      -0.503   7.286   2.000  0.00  0.00    -0.008 A 
ATOM     16  C   UNL     1      -0.125   6.356   2.969  0.00  0.00    +0.011 A 
ATOM     17  C   UNL     1       0.868   6.671   3.873  0.00  0.00    +0.033 A 
ATOM     18  C   UNL     1       1.482   7.910   3.827  0.00  0.00    +0.126 A 
ATOM     19  C   UNL     1       1.108   8.838   2.872  0.00  0.00    +0.033 A 
ATOM     20  C   UNL     1       0.120   8.534   1.959  0.00  0.00    +0.011 A 
BRANCH  18  21
ATOM     21  N   UNL     1       2.545   8.244   4.806  0.00  0.00    +0.056 N 
ATOM     22  O   UNL     1       3.088   9.334   4.767  0.00  0.00    -0.126 OA
ATOM     23  O   UNL     1       2.876   7.429   5.648  0.00  0.00    -0.126 OA
ENDBRANCH  18  21
ENDBRANCH   2  15
BRANCH   2  24
ATOM     24  C   UNL     1      -2.786   7.699   1.010  0.00  0.00    +0.100 C 
ATOM     25  N   UNL     1      -3.755   8.293   0.999  0.00  0.00    -0.191 NA
ENDBRANCH   2  24
TORSDOF 5
