REMARK  Name = ZINC16247919
REMARK  3 active torsions:
REMARK  status: ('A' for Active; 'I' for Inactive)
REMARK    1  A    between atoms: C_14  and  N_32
REMARK    2  A    between atoms: N_21  and  C_24
REMARK    3  A    between atoms: C_28  and  C_30
REMARK                            x       y       z     vdW  Elec       q    Type
REMARK                         _______ _______ _______ _____ _____    ______ ____
ROOT
ATOM      1  C   UNL     1       0.917   5.824   0.133  0.00  0.00    +0.000 A 
ATOM      2  C   UNL     1       1.608   5.291  -0.939  0.00  0.00    +0.000 A 
ATOM      3  C   UNL     1       1.798   3.919  -1.042  0.00  0.00    +0.007 A 
ATOM      4  C   UNL     1       1.291   3.109  -0.065  0.00  0.00    -0.006 A 
ATOM      5  C   UNL     1       0.595   3.646   1.015  0.00  0.00    -0.033 A 
ATOM      6  C   UNL     1       0.404   4.995   1.122  0.00  0.00    +0.004 A 
ATOM      7  C   UNL     1       0.094   2.616   2.015  0.00  0.00    +0.062 C 
ATOM      8  C   UNL     1       1.321   1.805   2.398  0.00  0.00    -0.033 A 
ATOM      9  C   UNL     1       1.747   1.592   3.678  0.00  0.00    +0.004 A 
ATOM     10  C   UNL     1       2.887   0.826   3.886  0.00  0.00    +0.000 A 
ATOM     11  C   UNL     1       3.576   0.291   2.813  0.00  0.00    +0.000 A 
ATOM     12  C   UNL     1       3.138   0.513   1.514  0.00  0.00    +0.007 A 
ATOM     13  C   UNL     1       2.016   1.267   1.317  0.00  0.00    -0.006 A 
ATOM     14  C   UNL     1       1.418   1.594  -0.042  0.00  0.00    +0.183 C 
ATOM     15  C   UNL     1      -0.030   1.061   0.008  0.00  0.00    +0.130 C 
ATOM     16  C   UNL     1      -0.793   1.642   1.211  0.00  0.00    +0.103 C 
ATOM     17  C   UNL     1      -1.913   2.436   0.574  0.00  0.00    +0.231 C 
ATOM     18  O   UNL     1      -2.761   3.061   1.174  0.00  0.00    -0.274 OA
ATOM     19  N   UNL     1      -1.819   2.337  -0.758  0.00  0.00    -0.210 N 
ATOM     20  C   UNL     1      -0.782   1.587  -1.196  0.00  0.00    +0.233 C 
ATOM     21  O   UNL     1      -0.498   1.365  -2.353  0.00  0.00    -0.274 OA
ENDROOT
BRANCH  19  22
ATOM     22  C   UNL     1      -2.717   2.966  -1.632  0.00  0.00    +0.045 A 
ATOM     23  C   UNL     1      -4.042   2.551  -1.684  0.00  0.00    +0.024 A 
ATOM     24  C   UNL     1      -4.933   3.172  -2.539  0.00  0.00    +0.003 A 
ATOM     25  C   UNL     1      -4.510   4.201  -3.355  0.00  0.00    +0.015 A 
ATOM     26  C   UNL     1      -3.179   4.622  -3.314  0.00  0.00    +0.065 A 
ATOM     27  C   UNL     1      -2.282   3.998  -2.447  0.00  0.00    +0.039 A 
BRANCH  26  28
ATOM     28  C   UNL     1      -2.723   5.724  -4.187  0.00  0.00    +0.387 C 
ATOM     29  O   UNL     1      -1.565   6.088  -4.149  0.00  0.00    -0.241 OA
ATOM     30  O   UNL     1      -3.592   6.324  -5.024  0.00  0.00    -0.241 OA
ENDBRANCH  26  28
ENDBRANCH  19  22
BRANCH  14  31
ATOM     31  N   UNL     1       2.193   1.047  -1.158  0.00  0.00    +0.038 N 
ATOM     32  O   UNL     1       3.083   1.708  -1.663  0.00  0.00    -0.130 OA
ATOM     33  O   UNL     1       1.948  -0.069  -1.581  0.00  0.00    -0.130 OA
ENDBRANCH  14  31
TORSDOF 3
