REMARK  Name = ZINC03444052
REMARK  10 active torsions:
REMARK  status: ('A' for Active; 'I' for Inactive)
REMARK    1  A    between atoms: C_1  and  C_2
REMARK    2  A    between atoms: C_7  and  N_8
REMARK    3  A    between atoms: C_9  and  C_11
REMARK    4  A    between atoms: C_11  and  N_12
REMARK    5  A    between atoms: C_13  and  C_15
REMARK    6  A    between atoms: C_15  and  O_16
REMARK    7  A    between atoms: O_16  and  C_17
REMARK    8  A    between atoms: C_17  and  C_19
REMARK    9  A    between atoms: C_23  and  N_26
REMARK   10  A    between atoms: C_24  and  C_25
REMARK                            x       y       z     vdW  Elec       q    Type
REMARK                         _______ _______ _______ _____ _____    ______ ____
ROOT
ATOM      1  N   UNL     1       1.734   3.493   0.936  0.00  0.00    -0.304 N 
ATOM      2  C   UNL     1       3.068   3.547   0.749  0.00  0.00    +0.251 C 
ATOM      3  O   UNL     1       3.631   4.620   0.706  0.00  0.00    -0.272 OA
ATOM      4  H   UNL     1       1.283   2.635   0.971  0.00  0.00    +0.149 HD
ENDROOT
BRANCH   1   5
ATOM      5  C   UNL     1       0.965   4.731   1.087  0.00  0.00    +0.200 C 
BRANCH   5   7
ATOM      6  N   UNL     1      -1.394   5.386   1.438  0.00  0.00    -0.284 N 
ATOM      7  C   UNL     1      -0.491   4.397   1.282  0.00  0.00    +0.234 C 
ATOM      8  O   UNL     1      -0.852   3.239   1.294  0.00  0.00    -0.274 OA
ATOM      9  H   UNL     1      -1.098   6.306   1.509  0.00  0.00    +0.155 HD
BRANCH   6  16
ATOM     10  C   UNL     1      -3.117   7.208   2.783  0.00  0.00    +0.046 C 
ATOM     11  C   UNL     1      -3.635   5.945   2.144  0.00  0.00    -0.028 A 
ATOM     12  C   UNL     1      -4.983   5.647   2.197  0.00  0.00    +0.020 A 
ATOM     13  C   UNL     1      -5.459   4.485   1.616  0.00  0.00    +0.018 A 
ATOM     14  C   UNL     1      -4.588   3.621   0.976  0.00  0.00    +0.017 A 
ATOM     15  C   UNL     1      -3.240   3.917   0.915  0.00  0.00    +0.024 A 
ATOM     16  C   UNL     1      -2.760   5.083   1.498  0.00  0.00    +0.036 A 
ATOM     17 BR   UNL     1      -7.303   4.076   1.698  0.00  0.00    -0.050 Br
ENDBRANCH   6  16
ENDBRANCH   5   7
ENDBRANCH   1   5
BRANCH   2  18
ATOM     18  C   UNL     1       3.859   2.274   0.594  0.00  0.00    +0.328 C 
BRANCH  18  19
ATOM     19  O   UNL     1       5.262   2.596   0.406  0.00  0.00    -0.452 OA
BRANCH  19  20
ATOM     20  C   UNL     1       6.111   1.561   0.251  0.00  0.00    +0.340 C 
ATOM     21  O   UNL     1       5.691   0.422   0.272  0.00  0.00    -0.245 OA
BRANCH  20  22
ATOM     22  C   UNL     1       7.554   1.813   0.055  0.00  0.00    +0.064 A 
ATOM     23  C   UNL     1       8.053   3.115   0.120  0.00  0.00    +0.015 A 
ATOM     24  C   UNL     1       9.401   3.343  -0.063  0.00  0.00    +0.003 A 
ATOM     25  C   UNL     1      10.258   2.284  -0.310  0.00  0.00    +0.033 A 
ATOM     26  C   UNL     1       9.770   0.992  -0.375  0.00  0.00    +0.130 A 
ATOM     27  C   UNL     1       8.424   0.749  -0.189  0.00  0.00    -0.006 A 
ATOM     28  C   UNL     1       7.895  -0.660  -0.255  0.00  0.00    +0.047 C 
BRANCH  26  29
ATOM     29  N   UNL     1      10.693  -0.134  -0.639  0.00  0.00    +0.057 N 
ATOM     30  O   UNL     1      11.896   0.057  -0.659  0.00  0.00    -0.126 OA
ATOM     31  O   UNL     1      10.251  -1.251  -0.837  0.00  0.00    -0.126 OA
ENDBRANCH  26  29
ENDBRANCH  20  22
ENDBRANCH  19  20
ENDBRANCH  18  19
ENDBRANCH   2  18
TORSDOF 8
