REMARK  Name = ZINC39774269
REMARK  6 active torsions:
REMARK  status: ('A' for Active; 'I' for Inactive)
REMARK    1  A    between atoms: C_4  and  N_7
REMARK    2  A    between atoms: N_10  and  C_11
REMARK    3  A    between atoms: C_15  and  C_18
REMARK    4  A    between atoms: C_18  and  C_19
REMARK    5  A    between atoms: N_21  and  N_22
REMARK    6  A    between atoms: C_23  and  C_24
REMARK                            x       y       z     vdW  Elec       q    Type
REMARK                         _______ _______ _______ _____ _____    ______ ____
ROOT
ATOM      1  C   UNL     1       4.848  -4.106   0.247  0.00  0.00    +0.276 C 
ATOM      2  N   UNL     1       4.678  -4.742  -1.079  0.00  0.00    -0.157 NA
ATOM      3  N   UNL     1       5.428  -5.627  -1.444  0.00  0.00    -0.175 NA
ATOM      4  C   UNL     1       6.531  -6.090  -0.571  0.00  0.00    +0.197 C 
ATOM      5  S   UNL     1       6.537  -4.722   0.675  0.00  0.00    -0.085 S 
ENDROOT
BRANCH   1   9
ATOM      6  N   UNL     1       3.622  -0.651  -0.036  0.00  0.00    -0.269 N 
ATOM      7  C   UNL     1       3.645  -1.995   0.058  0.00  0.00    +0.306 C 
ATOM      8  O   UNL     1       2.603  -2.622   0.065  0.00  0.00    -0.252 OA
ATOM      9  N   UNL     1       4.823  -2.644   0.144  0.00  0.00    -0.267 N 
ATOM     10  H   UNL     1       4.452  -0.156  -0.120  0.00  0.00    +0.156 HD
ATOM     11  H   UNL     1       5.654  -2.144   0.139  0.00  0.00    +0.153 HD
BRANCH   6  15
ATOM     12  C   UNL     1      -0.015   1.381   0.031  0.00  0.00    +0.000 A 
ATOM     13  C   UNL     1       0.140   0.219   0.765  0.00  0.00    +0.002 A 
ATOM     14  C   UNL     1       1.344  -0.457   0.744  0.00  0.00    +0.023 A 
ATOM     15  C   UNL     1       2.400   0.031  -0.014  0.00  0.00    +0.035 A 
ATOM     16  C   UNL     1       2.241   1.198  -0.750  0.00  0.00    +0.023 A 
ATOM     17  C   UNL     1       1.034   1.870  -0.725  0.00  0.00    +0.002 A 
ENDBRANCH   6  15
ENDBRANCH   1   9
BRANCH   4  18
ATOM     18  C   UNL     1       7.855  -6.157  -1.334  0.00  0.00    +0.137 C 
BRANCH  18  19
ATOM     19  C   UNL     1       8.927  -6.714  -0.433  0.00  0.00    +0.235 C 
ATOM     20  O   UNL     1       8.658  -7.027   0.708  0.00  0.00    -0.274 OA
ATOM     21  N   UNL     1      10.184  -6.865  -0.894  0.00  0.00    -0.207 N 
ATOM     22  H   UNL     1      10.399  -6.616  -1.807  0.00  0.00    +0.177 HD
BRANCH  21  23
ATOM     23  N   UNL     1      11.180  -7.383  -0.057  0.00  0.00    -0.188 NA
ATOM     24  C   UNL     1      12.401  -7.530  -0.505  0.00  0.00    +0.136 C 
BRANCH  24  25
ATOM     25  C   UNL     1      13.399  -8.049   0.334  0.00  0.00    +0.000 C 
ATOM     26  C   UNL     1      14.738  -8.261   0.017  0.00  0.00    +0.004 A 
ATOM     27  C   UNL     1      15.487  -8.045  -1.161  0.00  0.00    +0.010 A 
ATOM     28  C   UNL     1      16.808  -8.353  -1.185  0.00  0.00    +0.001 A 
ATOM     29  C   UNL     1      17.457  -8.882  -0.066  0.00  0.00    +0.002 A 
ATOM     30  C   UNL     1      16.803  -9.116   1.097  0.00  0.00    +0.026 A 
ATOM     31  C   UNL     1      15.418  -8.819   1.199  0.00  0.00    +0.043 A 
ATOM     32  N   UNL     1      14.570  -8.952   2.198  0.00  0.00    -0.380 N 
ATOM     33  C   UNL     1      13.246  -8.487   1.773  0.00  0.00    +0.150 C 
ATOM     34  H   UNL     1      14.788  -9.299   3.077  0.00  0.00    +0.160 HD
ENDBRANCH  24  25
ENDBRANCH  21  23
ENDBRANCH  18  19
ENDBRANCH   4  18
TORSDOF 6
