REMARK  Name = ZINC45699131
REMARK  5 active torsions:
REMARK  status: ('A' for Active; 'I' for Inactive)
REMARK    1  A    between atoms: C_1  and  C_2
REMARK    2  A    between atoms: C_5  and  N_9
REMARK    3  A    between atoms: C_6  and  C_8
REMARK    4  A    between atoms: C_10  and  S_14
REMARK    5  A    between atoms: S_14  and  C_15
REMARK                            x       y       z     vdW  Elec       q    Type
REMARK                         _______ _______ _______ _____ _____    ______ ____
ROOT
ATOM      1  N   UNL     1       0.453  -4.131   0.209  0.00  0.00    -0.187 N 
ATOM      2  C   UNL     1       0.595  -5.024  -0.802  0.00  0.00    +0.215 A 
ATOM      3  N   UNL     1       0.781  -6.204  -0.251  0.00  0.00    -0.101 NA
ATOM      4  N   UNL     1       0.765  -6.110   1.030  0.00  0.00    -0.022 NA
ATOM      5  N   UNL     1       0.577  -4.886   1.388  0.00  0.00    -0.038 NA
ENDROOT
BRANCH   1  10
ATOM      6  C   UNL     1      -0.428   1.459  -0.230  0.00  0.00    +0.044 C 
ATOM      7  C   UNL     1      -0.194  -0.025  -0.113  0.00  0.00    -0.050 A 
ATOM      8  C   UNL     1       0.799  -0.628  -0.863  0.00  0.00    +0.005 A 
ATOM      9  C   UNL     1       1.016  -1.988  -0.759  0.00  0.00    +0.028 A 
ATOM     10  C   UNL     1       0.236  -2.750   0.101  0.00  0.00    +0.073 A 
ATOM     11  C   UNL     1      -0.759  -2.141   0.853  0.00  0.00    -0.025 A 
ATOM     12  C   UNL     1      -0.968  -0.780   0.748  0.00  0.00    +0.008 A 
ATOM     13  C   UNL     1      -1.608  -2.965   1.788  0.00  0.00    +0.046 C 
ENDBRANCH   1  10
BRANCH   2  14
ATOM     14  S   UNL     1       0.540  -4.671  -2.527  0.00  0.00    -0.071 S 
BRANCH  14  15
ATOM     15  C   UNL     1       0.796  -6.286  -3.314  0.00  0.00    +0.140 C 
ATOM     16  C   UNL     1       0.657  -6.146  -4.832  0.00  0.00    +0.024 C 
ATOM     17  C   UNL     1       0.265  -7.471  -5.460  0.00  0.00    +0.003 C 
ATOM     18  C   UNL     1       1.338  -8.539  -5.360  0.00  0.00    +0.019 C 
ATOM     19  C   UNL     1       1.554  -8.960  -3.905  0.00  0.00    +0.104 C 
ATOM     20  N   UNL     1       2.530  -8.045  -3.290  0.00  0.00    -0.314 N 
ATOM     21  C   UNL     1       2.188  -6.790  -2.999  0.00  0.00    +0.226 C 
ATOM     22  O   UNL     1       2.998  -6.048  -2.485  0.00  0.00    -0.275 OA
ATOM     23  H   UNL     1       3.426  -8.359  -3.092  0.00  0.00    +0.149 HD
ENDBRANCH  14  15
ENDBRANCH   2  14
TORSDOF 3
