REMARK  Name = ZINC57456056
REMARK  7 active torsions:
REMARK  status: ('A' for Active; 'I' for Inactive)
REMARK    1  A    between atoms: C_1  and  C_2
REMARK    2  A    between atoms: C_2  and  C_4
REMARK    3  A    between atoms: C_2  and  N_15
REMARK    4  A    between atoms: N_6  and  C_7
REMARK    5  A    between atoms: C_8  and  C_12
REMARK    6  A    between atoms: N_18  and  C_21
REMARK    7  A    between atoms: C_26  and  O_27
REMARK                            x       y       z     vdW  Elec       q    Type
REMARK                         _______ _______ _______ _____ _____    ______ ____
ROOT
ATOM      1  C   UNL     1       0.462  -0.319  -1.423  0.00  0.00    +0.034 C 
ATOM      2  C   UNL     1       0.002  -0.004   0.002  0.00  0.00    +0.140 C 
ENDROOT
BRANCH   2   3
ATOM      3  N   UNL     1      -1.323  -0.596   0.231  0.00  0.00    -0.289 NA
ATOM      4  C   UNL     1      -1.221  -2.045   0.449  0.00  0.00    +0.104 C 
ATOM      5  C   UNL     1      -2.591  -2.594   0.862  0.00  0.00    +0.120 C 
ATOM      6  N   UNL     1      -3.581  -2.184  -0.146  0.00  0.00    -0.325 N 
ATOM      7  C   UNL     1      -3.648  -0.763  -0.518  0.00  0.00    +0.120 C 
ATOM      8  C   UNL     1      -2.236  -0.287  -0.876  0.00  0.00    +0.104 C 
BRANCH   6   9
ATOM      9  C   UNL     1      -4.437  -3.122  -0.734  0.00  0.00    +0.072 A 
ATOM     10  C   UNL     1      -5.671  -3.394  -0.161  0.00  0.00    +0.027 A 
ATOM     11  C   UNL     1      -6.515  -4.320  -0.744  0.00  0.00    +0.002 A 
ATOM     12  C   UNL     1      -6.132  -4.978  -1.899  0.00  0.00    +0.004 A 
ATOM     13  C   UNL     1      -4.904  -4.712  -2.476  0.00  0.00    +0.047 A 
ATOM     14  C   UNL     1      -4.055  -3.781  -1.901  0.00  0.00    +0.138 A 
BRANCH  14  15
ATOM     15  O   UNL     1      -2.849  -3.515  -2.470  0.00  0.00    -0.505 OA
ATOM     16  H   UNL     1      -2.131  -4.079  -2.152  0.00  0.00    +0.292 HD
ENDBRANCH  14  15
ENDBRANCH   6   9
ENDBRANCH   2   3
BRANCH   2  17
ATOM     17  C   UNL     1      -0.077   1.490   0.186  0.00  0.00    +0.235 C 
ATOM     18  O   UNL     1      -1.156   2.041   0.213  0.00  0.00    -0.274 OA
ATOM     19  N   UNL     1       1.053   2.212   0.320  0.00  0.00    -0.278 N 
ATOM     20  H   UNL     1       1.917   1.771   0.298  0.00  0.00    +0.155 HD
BRANCH  19  21
ATOM     21  C   UNL     1       0.981   3.587   0.489  0.00  0.00    +0.084 A 
ATOM     22  C   UNL     1       2.028   4.484   0.636  0.00  0.00    +0.065 A 
ATOM     23  C   UNL     1       1.670   5.875   0.798  0.00  0.00    +0.022 A 
ATOM     24  C   UNL     1       0.351   6.146   0.788  0.00  0.00    +0.048 A 
ATOM     25  S   UNL     1      -0.394   4.547   0.556  0.00  0.00    -0.081 S 
BRANCH  22  26
ATOM     26  C   UNL     1       3.427   4.045   0.629  0.00  0.00    +0.244 C 
ATOM     27  O   UNL     1       3.693   2.865   0.491  0.00  0.00    -0.270 OA
ATOM     28  N   UNL     1       4.418   4.947   0.775  0.00  0.00    -0.325 N 
ATOM     29  H   UNL     1       4.205   5.887   0.885  0.00  0.00    +0.145 HD
ATOM     30  H   UNL     1       5.343   4.656   0.769  0.00  0.00    +0.145 HD
ENDBRANCH  22  26
ENDBRANCH  19  21
ENDBRANCH   2  17
TORSDOF 6
