REMARK  Name = ZINC15969835
REMARK  7 active torsions:
REMARK  status: ('A' for Active; 'I' for Inactive)
REMARK    1  A    between atoms: C_1  and  C_2
REMARK    2  A    between atoms: C_16  and  C_19
REMARK    3  A    between atoms: C_19  and  C_20
REMARK    4  A    between atoms: C_20  and  C_21
REMARK    5  A    between atoms: N_26  and  C_29
REMARK    6  A    between atoms: C_29  and  C_30
REMARK    7  A    between atoms: C_30  and  C_31
REMARK                            x       y       z     vdW  Elec       q    Type
REMARK                         _______ _______ _______ _____ _____    ______ ____
ROOT
ATOM      1  C   UNL     1      -0.018   1.503   0.010  0.00  0.00    +0.046 C 
ATOM      2  C   UNL     1       0.002  -0.004   0.002  0.00  0.00    -0.028 A 
ATOM      3  C   UNL     1       0.006  -0.685  -1.198  0.00  0.00    +0.025 A 
ATOM      4  C   UNL     1       0.025  -2.068  -1.216  0.00  0.00    +0.042 A 
ATOM      5  C   UNL     1       0.041  -2.772  -0.023  0.00  0.00    +0.027 A 
ATOM      6  C   UNL     1       0.037  -2.096   1.176  0.00  0.00    +0.005 A 
ATOM      7  C   UNL     1       0.023  -0.705   1.205  0.00  0.00    +0.042 A 
ATOM      8  N   UNL     1       0.029  -0.250   2.526  0.00  0.00    -0.283 N 
ATOM      9  C   UNL     1       0.051  -1.264   3.413  0.00  0.00    +0.243 C 
ATOM     10  O   UNL     1       0.061  -1.169   4.622  0.00  0.00    -0.273 OA
ATOM     11  C   UNL     1       0.051  -2.538   2.612  0.00  0.00    +0.136 C 
ATOM     12  C   UNL     1       1.287  -3.386   2.930  0.00  0.00    +0.122 C 
ATOM     13  C   UNL     1       0.783  -4.855   2.861  0.00  0.00    +0.107 C 
ATOM     14  C   UNL     1      -0.713  -4.743   2.497  0.00  0.00    +0.068 C 
ATOM     15  N   UNL     1      -1.115  -3.384   2.928  0.00  0.00    -0.295 NA
ATOM     16  C   UNL     1       1.551  -5.431   1.692  0.00  0.00    +0.227 C 
ATOM     17  O   UNL     1       1.460  -6.571   1.288  0.00  0.00    -0.275 OA
ATOM     18  N   UNL     1       2.344  -4.488   1.172  0.00  0.00    -0.241 N 
ATOM     19  C   UNL     1       2.281  -3.289   1.795  0.00  0.00    +0.228 C 
ATOM     20  O   UNL     1       2.910  -2.296   1.498  0.00  0.00    -0.275 OA
ATOM     21 CL   UNL     1       0.030  -2.919  -2.729  0.00  0.00    -0.084 Cl
ATOM     22  H   UNL     1       0.018   0.687   2.776  0.00  0.00    +0.155 HD
ATOM     23  H   UNL     1      -1.312  -3.373   3.917  0.00  0.00    +0.123 HD
ENDROOT
BRANCH  14  24
ATOM     24  C   UNL     1      -1.521  -5.815   3.231  0.00  0.00    +0.028 C 
BRANCH  24  25
ATOM     25  C   UNL     1      -2.977  -5.766   2.763  0.00  0.00    +0.097 C 
BRANCH  25  26
ATOM     26  C   UNL     1      -3.772  -6.822   3.486  0.00  0.00    +0.211 C 
ATOM     27  O   UNL     1      -3.229  -7.543   4.296  0.00  0.00    -0.276 OA
ATOM     28  N   UNL     1      -5.088  -6.965   3.232  0.00  0.00    -0.329 N 
ATOM     29  H   UNL     1      -5.523  -6.389   2.584  0.00  0.00    +0.145 HD
ATOM     30  H   UNL     1      -5.601  -7.645   3.698  0.00  0.00    +0.145 HD
ENDBRANCH  25  26
ENDBRANCH  24  25
ENDBRANCH  14  24
BRANCH  18  31
ATOM     31  C   UNL     1       3.219  -4.733   0.022  0.00  0.00    +0.121 C 
BRANCH  31  32
ATOM     32  C   UNL     1       2.463  -4.417  -1.270  0.00  0.00    +0.054 C 
BRANCH  32  33
ATOM     33  C   UNL     1       3.362  -4.670  -2.452  0.00  0.00    -0.046 A 
ATOM     34  C   UNL     1       4.164  -3.654  -2.940  0.00  0.00    +0.004 A 
ATOM     35  C   UNL     1       4.989  -3.886  -4.024  0.00  0.00    +0.000 A 
ATOM     36  C   UNL     1       5.013  -5.132  -4.621  0.00  0.00    +0.000 A 
ATOM     37  C   UNL     1       4.212  -6.148  -4.133  0.00  0.00    +0.000 A 
ATOM     38  C   UNL     1       3.390  -5.918  -3.046  0.00  0.00    +0.004 A 
ENDBRANCH  32  33
ENDBRANCH  31  32
ENDBRANCH  18  31
TORSDOF 6
