REMARK  Name = ZINC22450884
REMARK  2 active torsions:
REMARK  status: ('A' for Active; 'I' for Inactive)
REMARK    1  A    between atoms: C_1  and  C_2
REMARK    2  A    between atoms: C_15  and  C_17
REMARK                            x       y       z     vdW  Elec       q    Type
REMARK                         _______ _______ _______ _____ _____    ______ ____
ROOT
ATOM      1  C   UNL     1       3.676   2.270  -0.544  0.00  0.00    +0.028 C 
ATOM      2  C   UNL     1       2.340   1.641  -0.944  0.00  0.00    +0.073 C 
ATOM      3  C   UNL     1       2.207   0.265  -0.286  0.00  0.00    +0.022 C 
ATOM      4  C   UNL     1       0.860  -0.352  -0.672  0.00  0.00    +0.003 C 
ATOM      5  C   UNL     1      -0.267   0.590  -0.241  0.00  0.00    +0.019 C 
ATOM      6  C   UNL     1      -0.063   1.956  -0.900  0.00  0.00    +0.108 C 
ATOM      7  N   UNL     1       1.239   2.505  -0.499  0.00  0.00    -0.298 N 
ATOM      8  C   UNL     1       1.398   3.783  -0.967  0.00  0.00    +0.199 A 
ATOM      9  N   UNL     1       0.676   4.791  -0.408  0.00  0.00    -0.295 N 
ATOM     10  H   UNL     1      -0.030   4.576   0.408  0.00  0.00    +0.172 HD
ATOM     11  C   UNL     1       0.823   6.057  -0.852  0.00  0.00    +0.253 A 
ATOM     12  O   UNL     1       0.183   6.968  -0.353  0.00  0.00    -0.268 OA
ATOM     13  C   UNL     1       1.721   6.307  -1.900  0.00  0.00    +0.098 A 
ATOM     14  C   UNL     1       2.428   5.242  -2.439  0.00  0.00    +0.080 A 
ATOM     15  N   UNL     1       2.242   4.007  -1.951  0.00  0.00    -0.216 NA
ENDROOT
BRANCH  14  16
ATOM     16  C   UNL     1       3.384   5.468  -3.547  0.00  0.00    +0.001 A 
ATOM     17  C   UNL     1       4.098   4.397  -4.085  0.00  0.00    +0.013 A 
ATOM     18  C   UNL     1       4.983   4.612  -5.121  0.00  0.00    +0.039 A 
ATOM     19  C   UNL     1       5.171   5.891  -5.621  0.00  0.00    +0.123 A 
ATOM     20  C   UNL     1       4.467   6.959  -5.086  0.00  0.00    +0.039 A 
ATOM     21  C   UNL     1       3.576   6.753  -4.054  0.00  0.00    +0.013 A 
ATOM     22  F   UNL     1       6.043   6.097  -6.632  0.00  0.00    -0.205 F 
ENDBRANCH  14  16
TORSDOF 1
