REMARK  Name = ZINC16021525
REMARK  6 active torsions:
REMARK  status: ('A' for Active; 'I' for Inactive)
REMARK    1  A    between atoms: C_3  and  S_13
REMARK    2  A    between atoms: C_4  and  N_10
REMARK    3  A    between atoms: C_6  and  C_7
REMARK    4  A    between atoms: S_13  and  C_14
REMARK    5  A    between atoms: C_14  and  C_15
REMARK    6  A    between atoms: N_17  and  C_18
REMARK                            x       y       z     vdW  Elec       q    Type
REMARK                         _______ _______ _______ _____ _____    ______ ____
ROOT
ATOM      1  S   UNL     1      -0.890   1.687  -1.462  0.00  0.00    -0.114 S 
ENDROOT
BRANCH   1   4
ATOM      2  C   UNL     1       1.905  -0.236  -3.616  0.00  0.00    +0.014 A 
ATOM      3  C   UNL     1       1.175   0.267  -2.563  0.00  0.00    +0.018 A 
ATOM      4  C   UNL     1       0.045   1.043  -2.809  0.00  0.00    +0.039 A 
ATOM      5  C   UNL     1      -0.351   1.306  -4.119  0.00  0.00    +0.140 A 
ATOM      6  C   UNL     1       0.373   0.814  -5.167  0.00  0.00    +0.047 A 
ATOM      7  C   UNL     1       1.508   0.034  -4.929  0.00  0.00    +0.039 A 
BRANCH   7   8
ATOM      8  C   UNL     1       2.287  -0.502  -6.061  0.00  0.00    +0.242 C 
ATOM      9  O   UNL     1       1.941  -0.266  -7.203  0.00  0.00    -0.270 OA
ATOM     10  N   UNL     1       3.382  -1.254  -5.830  0.00  0.00    -0.325 N 
ATOM     11  H   UNL     1       3.658  -1.442  -4.920  0.00  0.00    +0.145 HD
ATOM     12  H   UNL     1       3.894  -1.606  -6.575  0.00  0.00    +0.145 HD
ENDBRANCH   7   8
BRANCH   5  13
ATOM     13  N   UNL     1      -1.556   2.126  -4.374  0.00  0.00    +0.058 N 
ATOM     14  O   UNL     1      -1.904   2.358  -5.519  0.00  0.00    -0.126 OA
ATOM     15  O   UNL     1      -2.200   2.570  -3.441  0.00  0.00    -0.126 OA
ENDBRANCH   5  13
ENDBRANCH   1   4
BRANCH   1  16
ATOM     16  C   UNL     1      -0.013   1.086   0.008  0.00  0.00    +0.170 C 
BRANCH  16  17
ATOM     17  C   UNL     1      -0.718   1.572   1.248  0.00  0.00    +0.224 C 
ATOM     18  O   UNL     1      -1.714   2.256   1.150  0.00  0.00    -0.275 OA
ATOM     19  N   UNL     1      -0.242   1.246   2.466  0.00  0.00    -0.309 N 
ATOM     20  H   UNL     1       0.555   0.699   2.544  0.00  0.00    +0.149 HD
BRANCH  19  21
ATOM     21  C   UNL     1      -0.927   1.718   3.671  0.00  0.00    +0.035 C 
ATOM     22  C   UNL     1      -0.948   3.248   3.679  0.00  0.00    +0.029 C 
ATOM     23  C   UNL     1      -1.664   3.742   4.938  0.00  0.00    -0.008 C 
ATOM     24  C   UNL     1      -0.924   3.235   6.178  0.00  0.00    +0.007 C 
ATOM     25  C   UNL     1      -0.903   1.705   6.169  0.00  0.00    -0.008 C 
ATOM     26  C   UNL     1      -0.187   1.212   4.911  0.00  0.00    +0.029 C 
ATOM     27  C   UNL     1      -2.339   1.175   6.180  0.00  0.00    +0.007 C 
ATOM     28  C   UNL     1      -3.079   1.682   4.941  0.00  0.00    -0.008 C 
ATOM     29  C   UNL     1      -3.100   3.212   4.949  0.00  0.00    +0.007 C 
ATOM     30  C   UNL     1      -2.363   1.189   3.682  0.00  0.00    +0.029 C 
ENDBRANCH  19  21
ENDBRANCH  16  17
ENDBRANCH   1  16
TORSDOF 6
