REMARK  Name = ZINC66859827
REMARK  3 active torsions:
REMARK  status: ('A' for Active; 'I' for Inactive)
REMARK    1  A    between atoms: C_10  and  C_11
REMARK    2  A    between atoms: C_10  and  O_22
REMARK    3  A    between atoms: C_11  and  N_12
REMARK                            x       y       z     vdW  Elec       q    Type
REMARK                         _______ _______ _______ _____ _____    ______ ____
ROOT
ATOM      1  C   UNL     1       0.009   1.424  -0.051  0.00  0.00    +0.000 A 
ATOM      2  C   UNL     1       1.211   2.108  -0.069  0.00  0.00    +0.000 A 
ATOM      3  C   UNL     1       2.398   1.407  -0.063  0.00  0.00    +0.007 A 
ATOM      4  C   UNL     1       2.398   0.018  -0.037  0.00  0.00    -0.011 A 
ATOM      5  C   UNL     1       1.202  -0.663  -0.014  0.00  0.00    -0.041 A 
ATOM      6  C   UNL     1       0.007   0.045  -0.023  0.00  0.00    +0.004 A 
ATOM      7  C   UNL     1       1.126  -2.167   0.031  0.00  0.00    +0.035 C 
ATOM      8  C   UNL     1       2.456  -2.785  -0.392  0.00  0.00    +0.008 C 
ATOM      9  C   UNL     1       3.576  -2.131   0.425  0.00  0.00    +0.041 C 
ATOM     10  C   UNL     1       3.731  -0.684  -0.040  0.00  0.00    +0.107 C 
ENDROOT
BRANCH  10  11
ATOM     11  O   UNL     1       4.268  -0.670  -1.364  0.00  0.00    -0.382 OA
ATOM     12  H   UNL     1       4.410   0.218  -1.721  0.00  0.00    +0.211 HD
ENDBRANCH  10  11
BRANCH  10  13
ATOM     13  C   UNL     1       4.689   0.049   0.901  0.00  0.00    +0.142 C 
BRANCH  13  14
ATOM     14  N   UNL     1       5.959  -0.679   0.968  0.00  0.00    -0.325 N 
ATOM     15  C   UNL     1       6.945  -0.270   1.851  0.00  0.00    +0.136 A 
ATOM     16  C   UNL     1       8.154  -0.941   1.925  0.00  0.00    +0.077 A 
ATOM     17  C   UNL     1       9.163  -0.529   2.822  0.00  0.00    +0.083 A 
ATOM     18  C   UNL     1      10.340  -1.297   2.797  0.00  0.00    +0.036 A 
ATOM     19  C   UNL     1      10.448  -2.344   1.957  0.00  0.00    +0.048 A 
ATOM     20  S   UNL     1       8.875  -2.341   1.113  0.00  0.00    -0.092 S 
ATOM     21  N   UNL     1       8.862   0.550   3.586  0.00  0.00    -0.235 NA
ATOM     22  C   UNL     1       7.708   1.157   3.486  0.00  0.00    +0.223 A 
ATOM     23  N   UNL     1       6.757   0.783   2.646  0.00  0.00    -0.220 NA
ATOM     24  H   UNL     1       6.109  -1.447   0.395  0.00  0.00    +0.148 HD
ENDBRANCH  13  14
ENDBRANCH  10  13
TORSDOF 3
