REMARK  Name = ZINC43025336
REMARK  9 active torsions:
REMARK  status: ('A' for Active; 'I' for Inactive)
REMARK    1  A    between atoms: C_1  and  C_2
REMARK    2  A    between atoms: C_2  and  C_3
REMARK    3  A    between atoms: C_2  and  C_4
REMARK    4  A    between atoms: C_4  and  C_6
REMARK    5  A    between atoms: C_4  and  S_16
REMARK    6  A    between atoms: N_8  and  C_9
REMARK    7  A    between atoms: S_16  and  C_17
REMARK    8  A    between atoms: C_20  and  C_24
REMARK    9  A    between atoms: C_21  and  N_23
REMARK                            x       y       z     vdW  Elec       q    Type
REMARK                         _______ _______ _______ _____ _____    ______ ____
ROOT
ATOM      1  C   UNL     1      -1.438  -0.538   0.012  0.00  0.00    +0.143 C 
ENDROOT
BRANCH   1   2
ATOM      2  C   UNL     1      -2.174   0.052   1.187  0.00  0.00    +0.231 C 
ATOM      3  O   UNL     1      -2.915   0.998   1.026  0.00  0.00    -0.274 OA
ATOM      4  N   UNL     1      -2.009  -0.473   2.418  0.00  0.00    -0.284 N 
ATOM      5  H   UNL     1      -1.470  -1.270   2.537  0.00  0.00    +0.155 HD
BRANCH   4   6
ATOM      6  C   UNL     1      -2.615   0.134   3.524  0.00  0.00    +0.036 A 
ATOM      7  C   UNL     1      -1.967   0.145   4.753  0.00  0.00    +0.023 A 
ATOM      8  C   UNL     1      -2.567   0.744   5.843  0.00  0.00    +0.005 A 
ATOM      9  C   UNL     1      -3.811   1.333   5.714  0.00  0.00    +0.038 A 
ATOM     10  C   UNL     1      -4.460   1.323   4.490  0.00  0.00    +0.125 A 
ATOM     11  C   UNL     1      -3.862   0.730   3.393  0.00  0.00    +0.061 A 
ATOM     12  F   UNL     1      -5.676   1.899   4.367  0.00  0.00    -0.205 F 
ENDBRANCH   4   6
ENDBRANCH   1   2
BRANCH   1  14
ATOM     13  C   UNL     1      -0.009   1.512   0.007  0.00  0.00    +0.009 C 
ATOM     14  C   UNL     1       0.001  -0.017  -0.001  0.00  0.00    +0.005 C 
ATOM     15  C   UNL     1       0.740  -0.529   1.237  0.00  0.00    +0.009 C 
ENDBRANCH   1  14
BRANCH   1  16
ATOM     16  S   UNL     1      -2.269  -0.055  -1.526  0.00  0.00    -0.073 S 
BRANCH  16  17
ATOM     17  C   UNL     1      -1.391  -0.930  -2.778  0.00  0.00    +0.191 A 
ATOM     18  N   UNL     1      -0.381  -1.716  -2.425  0.00  0.00    -0.229 NA
ATOM     19  C   UNL     1       0.306  -2.392  -3.329  0.00  0.00    +0.136 A 
ATOM     20  C   UNL     1      -0.043  -2.271  -4.678  0.00  0.00    +0.109 A 
ATOM     21  C   UNL     1      -1.123  -1.426  -5.015  0.00  0.00    +0.138 A 
ATOM     22  N   UNL     1      -1.763  -0.788  -4.043  0.00  0.00    -0.206 NA
BRANCH  21  23
ATOM     23  N   UNL     1      -1.509  -1.270  -6.330  0.00  0.00    -0.342 N 
ATOM     24  H   UNL     1      -1.038  -1.744  -7.034  0.00  0.00    +0.144 HD
ATOM     25  H   UNL     1      -2.252  -0.688  -6.552  0.00  0.00    +0.144 HD
ENDBRANCH  21  23
BRANCH  20  26
ATOM     26  C   UNL     1       0.676  -2.985  -5.691  0.00  0.00    +0.104 C 
ATOM     27  N   UNL     1       1.246  -3.552  -6.494  0.00  0.00    -0.191 NA
ENDBRANCH  20  26
ENDBRANCH  16  17
ENDBRANCH   1  16
TORSDOF 7
