REMARK  Name = ZINC13567654
REMARK  7 active torsions:
REMARK  status: ('A' for Active; 'I' for Inactive)
REMARK    1  A    between atoms: C_1  and  C_2
REMARK    2  A    between atoms: C_2  and  C_35
REMARK    3  A    between atoms: N_16  and  C_19
REMARK    4  A    between atoms: C_19  and  C_20
REMARK    5  A    between atoms: C_22  and  C_33
REMARK    6  A    between atoms: C_23  and  N_32
REMARK    7  A    between atoms: N_24  and  C_25
REMARK                            x       y       z     vdW  Elec       q    Type
REMARK                         _______ _______ _______ _____ _____    ______ ____
ROOT
ATOM      1  C   UNL     1       2.631  -1.415   2.736  0.00  0.00    +0.011 C 
ATOM      2  C   UNL     1       2.709  -0.033   3.388  0.00  0.00    -0.023 C 
ATOM      3  C   UNL     1       2.165   1.023   2.424  0.00  0.00    +0.058 C 
ATOM      4  C   UNL     1       3.005   1.044   1.170  0.00  0.00    +0.026 C 
ATOM      5  C   UNL     1       4.321   0.743   1.211  0.00  0.00    +0.037 C 
ATOM      6  C   UNL     1       4.945   0.383   2.418  0.00  0.00    +0.163 C 
ATOM      7  O   UNL     1       6.133   0.130   2.422  0.00  0.00    -0.292 OA
ATOM      8  C   UNL     1       4.169   0.305   3.705  0.00  0.00    +0.086 C 
ATOM      9  C   UNL     1       5.160   0.785  -0.039  0.00  0.00    +0.141 C 
ATOM     10  C   UNL     1       6.054   1.987  -0.032  0.00  0.00    -0.001 A 
ATOM     11  C   UNL     1       5.769   3.335  -0.021  0.00  0.00    +0.007 A 
ATOM     12  C   UNL     1       6.852   4.208  -0.018  0.00  0.00    +0.000 A 
ATOM     13  C   UNL     1       8.151   3.743  -0.027  0.00  0.00    +0.002 A 
ATOM     14  C   UNL     1       8.445   2.388  -0.037  0.00  0.00    +0.024 A 
ATOM     15  C   UNL     1       7.367   1.501  -0.039  0.00  0.00    +0.042 A 
ATOM     16  N   UNL     1       7.368   0.118  -0.047  0.00  0.00    -0.258 N 
ATOM     17  C   UNL     1       6.118  -0.390  -0.047  0.00  0.00    +0.241 C 
ATOM     18  O   UNL     1       5.817  -1.565  -0.052  0.00  0.00    -0.273 OA
ATOM     19  C   UNL     1       4.310   0.758  -1.274  0.00  0.00    +0.089 C 
ATOM     20  C   UNL     1       2.982   1.049  -1.216  0.00  0.00    +0.108 C 
ATOM     21  N   UNL     1       2.402   1.379  -0.013  0.00  0.00    -0.257 N 
ATOM     22  C   UNL     1       1.888  -0.028   4.680  0.00  0.00    +0.011 C 
ENDROOT
BRANCH  21  23
ATOM     23  C   UNL     1       1.178   2.060   0.002  0.00  0.00    +0.075 A 
ATOM     24  C   UNL     1       1.154   3.448   0.010  0.00  0.00    +0.027 A 
ATOM     25  C   UNL     1      -0.055   4.117   0.025  0.00  0.00    +0.002 A 
ATOM     26  C   UNL     1      -1.241   3.406   0.032  0.00  0.00    +0.003 A 
ATOM     27  C   UNL     1      -1.223   2.023   0.019  0.00  0.00    +0.040 A 
ATOM     28  C   UNL     1      -0.016   1.347   0.009  0.00  0.00    +0.145 A 
ATOM     29  F   UNL     1       0.002  -0.004   0.002  0.00  0.00    -0.204 F 
ENDBRANCH  21  23
BRANCH  20  30
ATOM     30  N   UNL     1       2.221   1.019  -2.360  0.00  0.00    -0.345 N 
ATOM     31  H   UNL     1       1.275   1.230  -2.319  0.00  0.00    +0.144 HD
ATOM     32  H   UNL     1       2.629   0.787  -3.209  0.00  0.00    +0.144 HD
ENDBRANCH  20  30
BRANCH  19  33
ATOM     33  C   UNL     1       4.903   0.416  -2.532  0.00  0.00    +0.100 C 
ATOM     34  N   UNL     1       5.374   0.145  -3.530  0.00  0.00    -0.191 NA
ENDBRANCH  19  33
BRANCH  16  35
ATOM     35  C   UNL     1       8.583  -0.700  -0.053  0.00  0.00    +0.202 C 
BRANCH  35  36
ATOM     36  C   UNL     1       8.993  -0.982   1.332  0.00  0.00    -0.086 C 
ATOM     37  C   UNL     1       9.319  -1.206   2.437  0.00  0.00    +0.005 C 
ENDBRANCH  35  36
ENDBRANCH  16  35
TORSDOF 5
