REMARK  Name = ZINC39629687
REMARK  4 active torsions:
REMARK  status: ('A' for Active; 'I' for Inactive)
REMARK    1  A    between atoms: C_4  and  C_7
REMARK    2  A    between atoms: C_7  and  N_8
REMARK    3  A    between atoms: C_9  and  C_11
REMARK    4  A    between atoms: C_22  and  C_24
REMARK                            x       y       z     vdW  Elec       q    Type
REMARK                         _______ _______ _______ _____ _____    ______ ____
ROOT
ATOM      1  C   UNL     1       5.764  -1.853   2.984  0.00  0.00    +0.100 C 
ATOM      2  C   UNL     1       6.136  -0.522   3.675  0.00  0.00    +0.121 C 
ATOM      3  N   UNL     1       7.311  -0.852   4.516  0.00  0.00    -0.297 N 
ATOM      4  C   UNL     1       8.109  -1.784   3.684  0.00  0.00    +0.115 C 
ATOM      5  C   UNL     1       7.062  -2.678   2.991  0.00  0.00    -0.004 C 
ATOM      6  C   UNL     1       6.864  -3.968   3.781  0.00  0.00    -0.010 C 
ATOM      7  C   UNL     1       8.149  -4.797   3.727  0.00  0.00    -0.082 C 
ATOM      8  N   UNL     1       8.478  -5.102   2.329  0.00  0.00    +0.379 N 
ATOM      9  C   UNL     1       8.758  -3.860   1.598  0.00  0.00    -0.082 C 
ATOM     10  C   UNL     1       7.498  -2.991   1.563  0.00  0.00    -0.010 C 
ATOM     11  C   UNL     1       7.590  -0.406   5.757  0.00  0.00    +0.260 C 
ATOM     12  O   UNL     1       8.601  -0.771   6.319  0.00  0.00    -0.271 OA
ATOM     13  H   UNL     1       9.291  -5.699   2.298  0.00  0.00    -0.086 HD
ATOM     14  H   UNL     1       7.699  -5.576   1.897  0.00  0.00    -0.086 HD
ENDROOT
BRANCH  11  15
ATOM     15  C   UNL     1       6.646   0.545   6.445  0.00  0.00    +0.296 C 
ATOM     16  C   UNL     1       6.617   1.882   5.691  0.00  0.00    +0.283 C 
ATOM     17  O   UNL     1       5.724   2.765   6.378  0.00  0.00    -0.484 OA
ATOM     18  C   UNL     1       5.853   2.834   7.731  0.00  0.00    +0.162 A 
ATOM     19  C   UNL     1       5.295   3.905   8.415  0.00  0.00    +0.049 A 
ATOM     20  C   UNL     1       5.416   3.987   9.789  0.00  0.00    +0.004 A 
ATOM     21  C   UNL     1       6.093   3.004  10.486  0.00  0.00    +0.004 A 
ATOM     22  C   UNL     1       6.652   1.936   9.812  0.00  0.00    +0.049 A 
ATOM     23  C   UNL     1       6.536   1.847   8.432  0.00  0.00    +0.163 A 
ATOM     24  O   UNL     1       7.099   0.793   7.781  0.00  0.00    -0.473 OA
ENDBRANCH  11  15
BRANCH   1  26
ATOM     25  N   UNL     1       4.434  -2.439   0.982  0.00  0.00    -0.311 N 
ATOM     26  C   UNL     1       5.311  -1.601   1.569  0.00  0.00    +0.218 C 
ATOM     27  O   UNL     1       5.735  -0.642   0.958  0.00  0.00    -0.275 OA
ATOM     28  H   UNL     1       4.095  -3.206   1.471  0.00  0.00    +0.149 HD
BRANCH  25  29
ATOM     29  C   UNL     1       3.994  -2.194  -0.393  0.00  0.00    +0.139 C 
BRANCH  29  33
ATOM     30  C   UNL     1       1.240  -5.239  -1.573  0.00  0.00    +0.000 A 
ATOM     31  C   UNL     1       0.777  -4.084  -0.972  0.00  0.00    +0.000 A 
ATOM     32  C   UNL     1       1.668  -3.098  -0.590  0.00  0.00    +0.005 A 
ATOM     33  C   UNL     1       3.022  -3.269  -0.809  0.00  0.00    -0.030 A 
ATOM     34  C   UNL     1       3.485  -4.425  -1.409  0.00  0.00    +0.005 A 
ATOM     35  C   UNL     1       2.594  -5.409  -1.792  0.00  0.00    +0.000 A 
ENDBRANCH  29  33
ENDBRANCH  25  29
ENDBRANCH   1  26
TORSDOF 4
