REMARK  Name = ZINC63391440
REMARK  9 active torsions:
REMARK  status: ('A' for Active; 'I' for Inactive)
REMARK    1  A    between atoms: C_1  and  C_2
REMARK    2  A    between atoms: C_2  and  O_3
REMARK    3  A    between atoms: O_3  and  C_4
REMARK    4  A    between atoms: C_4  and  C_6
REMARK    5  A    between atoms: C_7  and  C_8
REMARK    6  A    between atoms: C_11  and  N_14
REMARK    7  A    between atoms: N_17  and  C_18
REMARK    8  A    between atoms: C_21  and  C_24
REMARK    9  A    between atoms: N_26  and  C_27
REMARK                            x       y       z     vdW  Elec       q    Type
REMARK                         _______ _______ _______ _____ _____    ______ ____
ROOT
ATOM      1  N   UNL     1       4.123  -5.759  -7.186  0.00  0.00    -0.269 N 
ATOM      2  C   UNL     1       4.312  -7.088  -7.301  0.00  0.00    +0.304 C 
ATOM      3  O   UNL     1       3.845  -7.843  -6.471  0.00  0.00    -0.253 OA
ATOM      4  N   UNL     1       5.019  -7.581  -8.338  0.00  0.00    -0.296 N 
ATOM      5  H   UNL     1       4.438  -5.162  -7.883  0.00  0.00    +0.156 HD
ATOM      6  H   UNL     1       5.392  -6.979  -9.001  0.00  0.00    +0.151 HD
ENDROOT
BRANCH   1  10
ATOM      7  C   UNL     1       2.185  -4.213  -3.837  0.00  0.00    -0.025 A 
ATOM      8  C   UNL     1       1.793  -5.448  -4.367  0.00  0.00    +0.010 A 
ATOM      9  C   UNL     1       2.436  -5.955  -5.474  0.00  0.00    +0.024 A 
ATOM     10  C   UNL     1       3.474  -5.241  -6.066  0.00  0.00    +0.035 A 
ATOM     11  C   UNL     1       3.867  -4.013  -5.542  0.00  0.00    +0.024 A 
ATOM     12  C   UNL     1       3.226  -3.496  -4.439  0.00  0.00    +0.010 A 
BRANCH   7  14
ATOM     13  C   UNL     1       0.497  -4.361  -2.077  0.00  0.00    +0.092 C 
ATOM     14  C   UNL     1       1.502  -3.668  -2.656  0.00  0.00    +0.015 C 
BRANCH  13  15
ATOM     15  C   UNL     1      -0.162  -3.835  -0.938  0.00  0.00    +0.332 C 
ATOM     16  O   UNL     1       0.176  -2.760  -0.482  0.00  0.00    -0.246 OA
BRANCH  15  17
ATOM     17  O   UNL     1      -1.165  -4.528  -0.359  0.00  0.00    -0.462 OA
BRANCH  17  19
ATOM     18  C   UNL     1      -2.891  -4.862   1.300  0.00  0.00    +0.048 C 
ATOM     19  C   UNL     1      -1.785  -3.938   0.786  0.00  0.00    +0.229 C 
ENDBRANCH  17  19
ENDBRANCH  15  17
ENDBRANCH  13  15
ENDBRANCH   7  14
ENDBRANCH   1  10
BRANCH   4  20
ATOM     20  C   UNL     1       5.225  -9.026  -8.463  0.00  0.00    +0.074 C 
ATOM     21  C   UNL     1       6.437  -9.443  -7.628  0.00  0.00    +0.023 C 
ATOM     22  C   UNL     1       7.680  -8.705  -8.129  0.00  0.00    +0.014 C 
ATOM     23  C   UNL     1       7.926  -9.060  -9.597  0.00  0.00    +0.075 C 
ATOM     24  C   UNL     1       6.714  -8.643 -10.432  0.00  0.00    +0.014 C 
ATOM     25  C   UNL     1       5.471  -9.381  -9.931  0.00  0.00    +0.023 C 
BRANCH  23  26
ATOM     26  C   UNL     1       9.150  -8.334 -10.091  0.00  0.00    +0.216 C 
ATOM     27  O   UNL     1       9.766  -7.604  -9.343  0.00  0.00    -0.276 OA
ATOM     28  N   UNL     1       9.562  -8.495 -11.365  0.00  0.00    -0.318 N 
ATOM     29  C   UNL     1      10.752  -7.789 -11.845  0.00  0.00    +0.128 C 
ATOM     30  H   UNL     1       9.069  -9.079 -11.963  0.00  0.00    +0.148 HD
ENDBRANCH  23  26
ENDBRANCH   4  20
TORSDOF 7
