REMARK  Name = ZINC58232543
REMARK  6 active torsions:
REMARK  status: ('A' for Active; 'I' for Inactive)
REMARK    1  A    between atoms: C_1  and  C_2
REMARK    2  A    between atoms: C_4  and  C_26
REMARK    3  A    between atoms: C_7  and  N_8
REMARK    4  A    between atoms: C_9  and  C_11
REMARK    5  A    between atoms: C_13  and  C_25
REMARK    6  A    between atoms: N_28  and  C_29
REMARK                            x       y       z     vdW  Elec       q    Type
REMARK                         _______ _______ _______ _____ _____    ______ ____
ROOT
ATOM      1  N   UNL     1       0.025  -0.013   2.413  0.00  0.00    -0.281 N 
ATOM      2  C   UNL     1      -0.056  -0.688   3.576  0.00  0.00    +0.250 C 
ATOM      3  O   UNL     1      -0.040  -1.904   3.576  0.00  0.00    -0.270 OA
ATOM      4  H   UNL     1       0.079   0.956   2.417  0.00  0.00    +0.155 HD
ENDROOT
BRANCH   2   5
ATOM      5  C   UNL     1      -0.165   0.048   4.852  0.00  0.00    +0.068 A 
ATOM      6  C   UNL     1      -0.191   1.444   4.878  0.00  0.00    +0.038 A 
ATOM      7  C   UNL     1      -0.294   2.099   6.092  0.00  0.00    +0.041 A 
ATOM      8  N   UNL     1      -0.371   1.435   7.228  0.00  0.00    -0.233 NA
ATOM      9  C   UNL     1      -0.354   0.115   7.269  0.00  0.00    +0.161 A 
ATOM     10  C   UNL     1      -0.251  -0.635   6.082  0.00  0.00    +0.120 A 
ATOM     11  N   UNL     1      -0.254  -1.935   6.429  0.00  0.00    -0.230 NA
ATOM     12  C   UNL     1      -0.361  -2.047   7.725  0.00  0.00    +0.112 A 
ATOM     13  N   UNL     1      -0.428  -0.810   8.289  0.00  0.00    -0.312 N 
ATOM     14  C   UNL     1      -0.579  -0.513   9.716  0.00  0.00    +0.125 C 
ATOM     15  C   UNL     1       0.043  -1.640  10.543  0.00  0.00    +0.022 C 
ATOM     16  C   UNL     1      -1.009  -2.713  10.819  0.00  0.00    +0.002 C 
ATOM     17  C   UNL     1      -1.509  -3.317   9.511  0.00  0.00    +0.008 C 
ATOM     18  C   UNL     1      -0.391  -3.349   8.490  0.00  0.00    +0.074 C 
ATOM     19  C   UNL     1      -0.318   3.605   6.117  0.00  0.00    +0.065 C 
ENDBRANCH   2   5
BRANCH   1  26
ATOM     20  C   UNL     1      -1.270   1.183   0.185  0.00  0.00    +0.045 C 
ATOM     21  C   UNL     1      -0.590  -0.158   0.086  0.00  0.00    -0.029 A 
ATOM     22  C   UNL     1      -0.579  -0.838  -1.111  0.00  0.00    +0.018 A 
ATOM     23  C   UNL     1       0.052  -2.081  -1.202  0.00  0.00    +0.037 A 
ATOM     24  C   UNL     1       0.670  -2.631  -0.076  0.00  0.00    +0.015 A 
ATOM     25  C   UNL     1       0.657  -1.947   1.118  0.00  0.00    +0.024 A 
ATOM     26  C   UNL     1       0.032  -0.706   1.204  0.00  0.00    +0.037 A 
BRANCH  23  27
ATOM     27  C   UNL     1       0.064  -2.812  -2.484  0.00  0.00    +0.244 C 
ATOM     28  O   UNL     1      -0.475  -2.333  -3.462  0.00  0.00    -0.270 OA
ATOM     29  N   UNL     1       0.673  -4.012  -2.570  0.00  0.00    -0.314 N 
ATOM     30  C   UNL     1       0.685  -4.737  -3.842  0.00  0.00    +0.128 C 
ATOM     31  H   UNL     1       1.103  -4.394  -1.789  0.00  0.00    +0.149 HD
ENDBRANCH  23  27
ENDBRANCH   1  26
TORSDOF 3
