REMARK  Name = ZINC31335373
REMARK  5 active torsions:
REMARK  status: ('A' for Active; 'I' for Inactive)
REMARK    1  A    between atoms: C_1  and  C_2
REMARK    2  A    between atoms: C_5  and  C_8
REMARK    3  A    between atoms: N_6  and  C_7
REMARK    4  A    between atoms: N_10  and  N_11
REMARK    5  A    between atoms: N_11  and  C_12
REMARK                            x       y       z     vdW  Elec       q    Type
REMARK                         _______ _______ _______ _____ _____    ______ ____
ROOT
ATOM      1  C   UNL     1      -4.889   3.695   0.066  0.00  0.00    +0.277 C 
ATOM      2  O   UNL     1      -4.909   4.862   0.412  0.00  0.00    -0.267 OA
ATOM      3  N   UNL     1      -3.771   2.961   0.236  0.00  0.00    -0.231 N 
ATOM      4  H   UNL     1      -3.725   1.932  -0.149  0.00  0.00    +0.173 HD
ENDROOT
BRANCH   1   9
ATOM      5  C   UNL     1      -7.930   0.389  -2.220  0.00  0.00    +0.063 C 
ATOM      6  C   UNL     1      -7.424   1.636  -1.541  0.00  0.00    +0.016 A 
ATOM      7  C   UNL     1      -8.159   2.743  -1.278  0.00  0.00    +0.023 A 
ATOM      8  C   UNL     1      -7.327   3.667  -0.638  0.00  0.00    +0.033 A 
ATOM      9  C   UNL     1      -6.080   3.088  -0.535  0.00  0.00    +0.106 A 
ATOM     10  N   UNL     1      -6.159   1.833  -1.095  0.00  0.00    -0.344 N 
ATOM     11  C   UNL     1      -5.060   0.870  -1.192  0.00  0.00    +0.149 C 
ENDBRANCH   1   9
BRANCH   3  12
ATOM     12  N   UNL     1      -2.668   3.509   0.904  0.00  0.00    -0.261 N 
ATOM     13  H   UNL     1      -2.676   4.568   1.202  0.00  0.00    +0.170 HD
BRANCH  12  14
ATOM     14  C   UNL     1      -1.557   2.709   1.193  0.00  0.00    +0.081 A 
ATOM     15  C   UNL     1      -0.278   3.249   1.137  0.00  0.00    +0.066 A 
ATOM     16  C   UNL     1       0.818   2.455   1.417  0.00  0.00    +0.042 A 
ATOM     17  C   UNL     1       0.642   1.127   1.763  0.00  0.00    +0.044 A 
ATOM     18  C   UNL     1      -0.631   0.588   1.825  0.00  0.00    +0.042 A 
ATOM     19  C   UNL     1      -1.731   1.376   1.541  0.00  0.00    +0.066 A 
ATOM     20 CL   UNL     1      -3.328   0.699   1.618  0.00  0.00    -0.081 Cl
ATOM     21 CL   UNL     1       2.021   0.134   2.121  0.00  0.00    -0.083 Cl
ATOM     22 CL   UNL     1      -0.056   4.917   0.710  0.00  0.00    -0.081 Cl
ENDBRANCH  12  14
ENDBRANCH   3  12
TORSDOF 3
