REMARK  Name = ZINC06995454
REMARK  6 active torsions:
REMARK  status: ('A' for Active; 'I' for Inactive)
REMARK    1  A    between atoms: C_1  and  C_2
REMARK    2  A    between atoms: C_11  and  C_13
REMARK    3  A    between atoms: C_18  and  O_19
REMARK    4  A    between atoms: O_19  and  C_20
REMARK    5  A    between atoms: C_24  and  C_26
REMARK    6  A    between atoms: C_24  and  C_27
REMARK                            x       y       z     vdW  Elec       q    Type
REMARK                         _______ _______ _______ _____ _____    ______ ____
ROOT
ATOM      1  C   UNL     1      -0.018   1.503   0.010  0.00  0.00    +0.065 C 
ATOM      2  C   UNL     1       0.002  -0.004   0.002  0.00  0.00    +0.039 A 
ATOM      3  C   UNL     1       0.008  -0.789  -1.086  0.00  0.00    +0.027 A 
ATOM      4  C   UNL     1       0.031  -2.135  -0.650  0.00  0.00    +0.149 A 
ATOM      5  N   UNL     1       0.035  -2.141   0.649  0.00  0.00    -0.158 NA
ATOM      6  N   UNL     1       0.024  -0.808   1.091  0.00  0.00    -0.280 N 
ATOM      7  H   UNL     1       0.028  -0.514   2.015  0.00  0.00    +0.189 HD
ATOM      8  N   UNL     1       0.050  -3.183  -1.575  0.00  0.00    -0.301 N 
ATOM      9  C   UNL     1       0.344  -2.896  -2.884  0.00  0.00    +0.017 C 
ATOM     10  C   UNL     1       0.342  -1.639  -3.378  0.00  0.00    +0.024 C 
ATOM     11  C   UNL     1      -0.008  -0.426  -2.543  0.00  0.00    +0.092 C 
ATOM     12  C   UNL     1       0.679  -1.394  -4.722  0.00  0.00    +0.162 C 
ATOM     13  O   UNL     1       0.662  -0.252  -5.138  0.00  0.00    -0.292 OA
ATOM     14  C   UNL     1       1.059  -2.506  -5.657  0.00  0.00    +0.086 C 
ATOM     15  C   UNL     1       1.678  -3.649  -4.844  0.00  0.00    -0.023 C 
ATOM     16  C   UNL     1       0.670  -4.074  -3.775  0.00  0.00    +0.058 C 
ATOM     17  C   UNL     1       1.984  -4.832  -5.765  0.00  0.00    +0.011 C 
ATOM     18  C   UNL     1       2.967  -3.167  -4.175  0.00  0.00    +0.011 C 
ATOM     19  H   UNL     1      -0.141  -4.093  -1.297  0.00  0.00    +0.153 HD
ENDROOT
BRANCH  11  20
ATOM     20  C   UNL     1      -1.382   0.064  -2.922  0.00  0.00    +0.006 A 
ATOM     21  C   UNL     1      -2.478  -0.763  -2.767  0.00  0.00    +0.008 A 
ATOM     22  C   UNL     1      -3.739  -0.315  -3.115  0.00  0.00    +0.001 A 
ATOM     23  C   UNL     1      -3.906   0.962  -3.619  0.00  0.00    +0.004 A 
ATOM     24  C   UNL     1      -2.814   1.792  -3.776  0.00  0.00    +0.046 A 
ATOM     25  C   UNL     1      -1.548   1.347  -3.423  0.00  0.00    +0.124 A 
BRANCH  25  26
ATOM     26  O   UNL     1      -0.473   2.164  -3.571  0.00  0.00    -0.495 OA
ATOM     27  C   UNL     1      -0.719   3.472  -4.092  0.00  0.00    +0.277 C 
ENDBRANCH  25  26
ENDBRANCH  11  20
TORSDOF 2
