REMARK  Name = ZINC09780737
REMARK  5 active torsions:
REMARK  status: ('A' for Active; 'I' for Inactive)
REMARK    1  A    between atoms: C_4  and  C_7
REMARK    2  A    between atoms: C_7  and  N_57
REMARK    3  A    between atoms: C_13  and  C_15
REMARK    4  A    between atoms: C_21  and  C_30
REMARK    5  A    between atoms: C_24  and  C_26
REMARK                            x       y       z     vdW  Elec       q    Type
REMARK                         _______ _______ _______ _____ _____    ______ ____
ROOT
ATOM      1  C   UNL     1       1.334  -0.396  -0.020  0.00  0.00    +0.096 A 
ATOM      2  C   UNL     1       1.809   0.680  -0.809  0.00  0.00    +0.149 A 
ATOM      3  N   UNL     1       1.105   1.740  -0.519  0.00  0.00    -0.177 NA
ATOM      4  N   UNL     1       0.159   1.409   0.451  0.00  0.00    -0.238 N 
ATOM      5  C   UNL     1       0.297   0.101   0.758  0.00  0.00    +0.130 A 
ATOM      6  N   UNL     1      -0.467  -0.585   1.679  0.00  0.00    -0.319 N 
ATOM      7  C   UNL     1      -1.710   0.145   1.973  0.00  0.00    +0.140 C 
ATOM      8  C   UNL     1      -1.379   1.601   2.318  0.00  0.00    +0.066 C 
ATOM      9  C   UNL     1      -0.841   2.297   1.058  0.00  0.00    +0.215 C 
ATOM     10  H   UNL     1      -0.664  -1.521   1.360  0.00  0.00    +0.148 HD
ENDROOT
BRANCH   1  16
ATOM     11  C   UNL     1       4.789  -3.573   0.775  0.00  0.00    -0.059 C 
ATOM     12  C   UNL     1       3.682  -3.376  -0.265  0.00  0.00    +0.089 C 
ATOM     13  N   UNL     1       3.163  -2.005  -0.141  0.00  0.00    -0.301 N 
ATOM     14  C   UNL     1       4.125  -0.893  -0.153  0.00  0.00    +0.089 C 
ATOM     15  C   UNL     1       5.216  -1.189   0.889  0.00  0.00    -0.059 C 
ATOM     16  C   UNL     1       1.840  -1.774  -0.025  0.00  0.00    +0.251 C 
ATOM     17  O   UNL     1       1.066  -2.707   0.075  0.00  0.00    -0.270 OA
ATOM     18  N   UNL     1       5.805  -2.513   0.595  0.00  0.00    +0.384 N 
ATOM     19  H   UNL     1       6.128  -2.524  -0.380  0.00  0.00    -0.081 HD
BRANCH  18  20
ATOM     20  C   UNL     1       6.957  -2.762   1.485  0.00  0.00    -0.043 C 
BRANCH  20  24
ATOM     21  C   UNL     1       9.482   0.684   1.504  0.00  0.00    +0.000 A 
ATOM     22  C   UNL     1       8.471   0.562   2.439  0.00  0.00    +0.000 A 
ATOM     23  C   UNL     1       7.654  -0.553   2.433  0.00  0.00    +0.002 A 
ATOM     24  C   UNL     1       7.848  -1.546   1.492  0.00  0.00    -0.064 A 
ATOM     25  C   UNL     1       8.862  -1.427   0.560  0.00  0.00    +0.002 A 
ATOM     26  C   UNL     1       9.675  -0.310   0.562  0.00  0.00    +0.000 A 
ENDBRANCH  20  24
ENDBRANCH  18  20
ENDBRANCH   1  16
BRANCH   7  27
ATOM     27  C   UNL     1      -2.408  -0.502   3.141  0.00  0.00    +0.125 A 
ATOM     28  C   UNL     1      -3.735  -0.691   3.257  0.00  0.00    +0.046 A 
ATOM     29  C   UNL     1      -3.950  -1.327   4.502  0.00  0.00    +0.041 A 
ATOM     30  C   UNL     1      -2.742  -1.489   5.071  0.00  0.00    +0.195 A 
ATOM     31  O   UNL     1      -1.811  -0.992   4.239  0.00  0.00    -0.466 OA
ENDBRANCH   7  27
BRANCH   9  32
ATOM     32  C   UNL     1      -0.187   3.624   1.448  0.00  0.00    +0.412 C 
ATOM     33  F   UNL     1       0.342   4.236   0.307  0.00  0.00    -0.168 F 
ATOM     34  F   UNL     1      -1.145   4.464   2.026  0.00  0.00    -0.168 F 
ATOM     35  F   UNL     1       0.840   3.386   2.368  0.00  0.00    -0.168 F 
ENDBRANCH   9  32
TORSDOF 5
