REMARK  Name = ZINC06600122
REMARK  13 active torsions:
REMARK  status: ('A' for Active; 'I' for Inactive)
REMARK    1  A    between atoms: C_1  and  C_2
REMARK    2  A    between atoms: C_2  and  O_3
REMARK    3  A    between atoms: O_3  and  C_4
REMARK    4  A    between atoms: C_4  and  C_5
REMARK    5  A    between atoms: C_5  and  C_6
REMARK    6  A    between atoms: C_6  and  N_7
REMARK    7  A    between atoms: N_7  and  C_8
REMARK    8  A    between atoms: C_8  and  C_10
REMARK    9  A    between atoms: C_8  and  C_17
REMARK   10  A    between atoms: N_19  and  C_20
REMARK   11  A    between atoms: C_25  and  C_27
REMARK   12  A    between atoms: C_28  and  N_35
REMARK   13  A    between atoms: C_29  and  C_32
REMARK                            x       y       z     vdW  Elec       q    Type
REMARK                         _______ _______ _______ _____ _____    ______ ____
ROOT
ATOM      1  N   UNL     1       1.728  -3.851   3.455  0.00  0.00    -0.281 N 
ATOM      2  C   UNL     1       3.068  -3.950   3.560  0.00  0.00    +0.257 C 
ATOM      3  O   UNL     1       3.590  -4.008   4.658  0.00  0.00    -0.269 OA
ENDROOT
BRANCH   2   4
ATOM      4  C   UNL     1       3.896  -3.989   2.353  0.00  0.00    +0.115 A 
ATOM      5  C   UNL     1       5.269  -4.205   2.230  0.00  0.00    +0.076 A 
ATOM      6  C   UNL     1       5.720  -4.172   0.912  0.00  0.00    +0.155 A 
ATOM      7  N   UNL     1       4.861  -3.951  -0.062  0.00  0.00    -0.203 NA
ATOM      8  S   UNL     1       3.419  -3.780   0.650  0.00  0.00    +0.019 S 
BRANCH   6   9
ATOM      9  C   UNL     1       7.147  -4.383   0.609  0.00  0.00    +0.262 C 
ATOM     10  O   UNL     1       7.924  -4.661   1.503  0.00  0.00    -0.269 OA
ATOM     11  N   UNL     1       7.592  -4.266  -0.658  0.00  0.00    -0.324 N 
ATOM     12  H   UNL     1       6.973  -4.044  -1.371  0.00  0.00    +0.145 HD
ATOM     13  H   UNL     1       8.531  -4.404  -0.857  0.00  0.00    +0.145 HD
ENDBRANCH   6   9
BRANCH   5  14
ATOM     14  N   UNL     1       6.106  -4.431   3.315  0.00  0.00    -0.355 N 
ATOM     15  H   UNL     1       5.728  -4.572   4.197  0.00  0.00    +0.142 HD
ATOM     16  H   UNL     1       7.067  -4.447   3.191  0.00  0.00    +0.142 HD
ENDBRANCH   5  14
ENDBRANCH   2   4
BRANCH   1  17
ATOM     17  C   UNL     1       1.091  -3.907   2.137  0.00  0.00    +0.111 C 
BRANCH  17  18
ATOM     18  C   UNL     1       0.991  -2.494   1.558  0.00  0.00    +0.047 C 
BRANCH  18  19
ATOM     19  C   UNL     1       0.325  -2.553   0.182  0.00  0.00    +0.161 C 
BRANCH  19  20
ATOM     20  O   UNL     1       0.232  -1.234  -0.359  0.00  0.00    -0.380 OA
BRANCH  20  22
ATOM     21  C   UNL     1      -0.425   0.277  -2.128  0.00  0.00    +0.034 C 
ATOM     22  C   UNL     1      -0.378  -1.176  -1.649  0.00  0.00    +0.156 C 
ENDBRANCH  20  22
ENDBRANCH  19  20
ENDBRANCH  18  19
ENDBRANCH  17  18
ENDBRANCH   1  17
BRANCH   1  23
ATOM     23  C   UNL     1       0.909  -3.687   4.659  0.00  0.00    +0.192 C 
BRANCH  23  24
ATOM     24  C   UNL     1       1.398  -2.494   5.440  0.00  0.00    -0.018 A 
ATOM     25  C   UNL     1       1.008  -1.220   5.072  0.00  0.00    +0.009 A 
ATOM     26  C   UNL     1       1.455  -0.126   5.788  0.00  0.00    +0.038 A 
ATOM     27  C   UNL     1       2.294  -0.307   6.875  0.00  0.00    +0.123 A 
ATOM     28  C   UNL     1       2.684  -1.583   7.242  0.00  0.00    +0.038 A 
ATOM     29  C   UNL     1       2.231  -2.676   6.528  0.00  0.00    +0.009 A 
ATOM     30  F   UNL     1       2.732   0.762   7.575  0.00  0.00    -0.205 F 
ENDBRANCH  23  24
BRANCH  23  31
ATOM     31  C   UNL     1       1.016  -4.925   5.511  0.00  0.00    +0.238 C 
ATOM     32  O   UNL     1       1.708  -5.852   5.150  0.00  0.00    -0.273 OA
ATOM     33  N   UNL     1       0.342  -5.000   6.676  0.00  0.00    -0.311 N 
ATOM     34  H   UNL     1      -0.211  -4.258   6.966  0.00  0.00    +0.149 HD
BRANCH  33  35
ATOM     35  C   UNL     1       0.446  -6.204   7.506  0.00  0.00    +0.073 C 
ATOM     36  C   UNL     1      -0.616  -7.236   7.075  0.00  0.00    +0.022 C 
ATOM     37  C   UNL     1      -1.073  -7.888   8.403  0.00  0.00    +0.002 C 
ATOM     38  C   UNL     1      -1.079  -6.692   9.387  0.00  0.00    +0.002 C 
ATOM     39  C   UNL     1       0.152  -5.858   8.976  0.00  0.00    +0.022 C 
ENDBRANCH  33  35
ENDBRANCH  23  31
ENDBRANCH   1  23
TORSDOF 12
