REMARK  Name = ZINC40287210
REMARK  5 active torsions:
REMARK  status: ('A' for Active; 'I' for Inactive)
REMARK    1  A    between atoms: C_1  and  O_2
REMARK    2  A    between atoms: O_2  and  C_3
REMARK    3  A    between atoms: C_3  and  C_5
REMARK    4  A    between atoms: C_5  and  N_6
REMARK    5  A    between atoms: C_18  and  C_20
REMARK                            x       y       z     vdW  Elec       q    Type
REMARK                         _______ _______ _______ _____ _____    ______ ____
ROOT
ATOM      1  N   UNL     1      -1.908  -4.938   0.030  0.00  0.00    -0.289 N 
ATOM      2  C   UNL     1      -2.848  -3.972   0.012  0.00  0.00    +0.303 C 
ATOM      3  O   UNL     1      -2.521  -2.804   0.093  0.00  0.00    -0.253 OA
ATOM      4  N   UNL     1      -4.151  -4.301  -0.096  0.00  0.00    -0.273 N 
ATOM      5  C   UNL     1      -5.183  -3.262  -0.229  0.00  0.00    +0.116 C 
ATOM      6  C   UNL     1      -6.100  -3.302   1.000  0.00  0.00    +0.076 C 
ATOM      7  C   UNL     1      -6.462  -4.737   1.290  0.00  0.00    +0.066 A 
ATOM      8  C   UNL     1      -5.786  -5.805   0.815  0.00  0.00    +0.064 A 
ATOM      9  N   UNL     1      -6.404  -6.919   1.293  0.00  0.00    -0.346 N 
ATOM     10  H   UNL     1      -6.146  -7.839   1.125  0.00  0.00    +0.167 HD
ATOM     11  C   UNL     1      -7.446  -6.499   2.047  0.00  0.00    +0.197 A 
ATOM     12  N   UNL     1      -7.472  -5.192   2.038  0.00  0.00    -0.240 NA
ATOM     13  C   UNL     1      -4.577  -5.712  -0.089  0.00  0.00    +0.159 C 
ATOM     14  H   UNL     1      -2.172  -5.871   0.040  0.00  0.00    +0.151 HD
ENDROOT
BRANCH  13  15
ATOM     15  C   UNL     1      -4.941  -6.145  -1.486  0.00  0.00    +0.015 A 
ATOM     16  C   UNL     1      -6.269  -6.261  -1.849  0.00  0.00    +0.024 A 
ATOM     17  C   UNL     1      -6.604  -6.658  -3.131  0.00  0.00    +0.018 A 
ATOM     18  C   UNL     1      -5.609  -6.939  -4.051  0.00  0.00    +0.018 A 
ATOM     19  C   UNL     1      -4.280  -6.824  -3.688  0.00  0.00    +0.040 A 
ATOM     20  C   UNL     1      -3.945  -6.421  -2.407  0.00  0.00    +0.129 A 
ATOM     21  F   UNL     1      -2.646  -6.303  -2.053  0.00  0.00    -0.205 F 
ATOM     22 BR   UNL     1      -8.421  -6.816  -3.628  0.00  0.00    -0.050 Br
ENDBRANCH  13  15
BRANCH   1  23
ATOM     23  C   UNL     1      -0.488  -4.578   0.036  0.00  0.00    +0.226 C 
BRANCH  23  24
ATOM     24  C   UNL     1       0.348  -5.832   0.057  0.00  0.00    +0.324 C 
ATOM     25  O   UNL     1      -0.188  -6.915   0.066  0.00  0.00    -0.249 OA
BRANCH  24  27
ATOM     26  C   UNL     1       2.416  -6.974   0.086  0.00  0.00    +0.280 C 
ATOM     27  O   UNL     1       1.687  -5.745   0.066  0.00  0.00    -0.467 OA
ENDBRANCH  24  27
ENDBRANCH  23  24
ENDBRANCH   1  23
TORSDOF 4
