REMARK  Name = ZINC18336895
REMARK  9 active torsions:
REMARK  status: ('A' for Active; 'I' for Inactive)
REMARK    1  A    between atoms: C_1  and  C_2
REMARK    2  A    between atoms: C_4  and  C_13
REMARK    3  A    between atoms: C_6  and  S_9
REMARK    4  A    between atoms: C_7  and  C_8
REMARK    5  A    between atoms: S_9  and  N_12
REMARK    6  A    between atoms: C_13  and  O_15
REMARK    7  A    between atoms: O_15  and  C_16
REMARK    8  A    between atoms: C_16  and  C_17
REMARK    9  A    between atoms: C_25  and  N_27
REMARK                            x       y       z     vdW  Elec       q    Type
REMARK                         _______ _______ _______ _____ _____    ______ ____
ROOT
ATOM      1  C   UNL     1       1.250  -2.159  -0.021  0.00  0.00    +0.340 C 
ATOM      2  O   UNL     1       2.313  -2.747  -0.034  0.00  0.00    -0.245 OA
ENDROOT
BRANCH   1   6
ATOM      3  C   UNL     1      -1.333   2.109   0.020  0.00  0.00    +0.044 C 
ATOM      4  C   UNL     1      -0.017   1.375   0.010  0.00  0.00    -0.045 A 
ATOM      5  C   UNL     1       0.002  -0.004   0.002  0.00  0.00    +0.018 A 
ATOM      6  C   UNL     1       1.222  -0.682  -0.013  0.00  0.00    +0.061 A 
ATOM      7  C   UNL     1       2.416   0.042  -0.021  0.00  0.00    +0.043 A 
ATOM      8  C   UNL     1       2.383   1.421  -0.013  0.00  0.00    +0.109 A 
ATOM      9  C   UNL     1       1.170   2.087   0.002  0.00  0.00    -0.021 A 
ATOM     10  C   UNL     1       1.142   3.593   0.011  0.00  0.00    +0.046 C 
BRANCH   8  11
ATOM     11  S   UNL     1       3.889   2.336  -0.022  0.00  0.00    +0.056 S 
ATOM     12  O   UNL     1       3.779   3.307   1.010  0.00  0.00    -0.153 OA
ATOM     13  O   UNL     1       4.943   1.384  -0.064  0.00  0.00    -0.153 OA
BRANCH  11  14
ATOM     14  N   UNL     1       3.946   3.170  -1.452  0.00  0.00    -0.204 NA
ATOM     15  H   UNL     1       3.221   3.087  -2.091  0.00  0.00    +0.144 HD
ATOM     16  H   UNL     1       4.705   3.740  -1.651  0.00  0.00    +0.144 HD
ENDBRANCH  11  14
ENDBRANCH   8  11
ENDBRANCH   1   6
BRANCH   1  17
ATOM     17  O   UNL     1       0.096  -2.855  -0.013  0.00  0.00    -0.453 OA
BRANCH  17  18
ATOM     18  C   UNL     1       0.200  -4.303  -0.022  0.00  0.00    +0.308 C 
BRANCH  18  19
ATOM     19  C   UNL     1      -1.182  -4.905  -0.011  0.00  0.00    +0.169 A 
ATOM     20  N   UNL     1      -1.767  -5.150  -1.159  0.00  0.00    -0.228 NA
ATOM     21  C   UNL     1      -2.996  -5.685  -1.196  0.00  0.00    +0.076 A 
ATOM     22  C   UNL     1      -3.651  -5.960  -2.404  0.00  0.00    +0.028 A 
ATOM     23  C   UNL     1      -4.900  -6.505  -2.384  0.00  0.00    +0.002 A 
ATOM     24  C   UNL     1      -5.538  -6.794  -1.180  0.00  0.00    +0.001 A 
ATOM     25  C   UNL     1      -4.929  -6.539   0.013  0.00  0.00    +0.013 A 
ATOM     26  C   UNL     1      -3.646  -5.980   0.027  0.00  0.00    +0.040 A 
ATOM     27  C   UNL     1      -2.963  -5.693   1.234  0.00  0.00    +0.128 A 
ATOM     28  N   UNL     1      -1.747  -5.168   1.156  0.00  0.00    -0.214 NA
BRANCH  27  29
ATOM     29  N   UNL     1      -3.543  -5.957   2.456  0.00  0.00    -0.343 N 
ATOM     30  H   UNL     1      -4.432  -6.344   2.498  0.00  0.00    +0.144 HD
ATOM     31  H   UNL     1      -3.063  -5.755   3.275  0.00  0.00    +0.144 HD
ENDBRANCH  27  29
ENDBRANCH  18  19
ENDBRANCH  17  18
ENDBRANCH   1  17
TORSDOF 7
