REMARK  Name = ZINC05051895
REMARK  7 active torsions:
REMARK  status: ('A' for Active; 'I' for Inactive)
REMARK    1  A    between atoms: C_1  and  C_2
REMARK    2  A    between atoms: C_2  and  C_3
REMARK    3  A    between atoms: C_2  and  C_4
REMARK    4  A    between atoms: C_2  and  C_5
REMARK    5  A    between atoms: C_12  and  N_25
REMARK    6  A    between atoms: C_13  and  C_23
REMARK    7  A    between atoms: C_14  and  C_16
REMARK                            x       y       z     vdW  Elec       q    Type
REMARK                         _______ _______ _______ _____ _____    ______ ____
ROOT
ATOM      1  C   UNL     1       0.684  -0.809  -2.059  0.00  0.00    +0.076 A 
ATOM      2  C   UNL     1       0.905  -2.179  -2.087  0.00  0.00    +0.050 A 
ATOM      3  C   UNL     1       1.530  -2.484  -3.265  0.00  0.00    +0.222 A 
ATOM      4  N   UNL     1       1.690  -1.338  -3.947  0.00  0.00    -0.246 N 
ATOM      5  H   UNL     1       2.103  -1.246  -4.820  0.00  0.00    +0.192 HD
ATOM      6  N   UNL     1       1.147  -0.299  -3.176  0.00  0.00    -0.175 NA
ATOM      7  O   UNL     1       1.889  -3.748  -3.598  0.00  0.00    -0.423 OA
ATOM      8  C   UNL     1       1.867  -4.681  -2.624  0.00  0.00    +0.200 C 
ATOM      9  C   UNL     1       1.270  -4.502  -1.424  0.00  0.00    +0.098 C 
ATOM     10  C   UNL     1       0.557  -3.224  -1.058  0.00  0.00    +0.101 C 
ENDROOT
BRANCH  10  11
ATOM     11  C   UNL     1      -0.932  -3.455  -1.052  0.00  0.00    -0.032 A 
ATOM     12  C   UNL     1      -1.603  -3.668  -2.241  0.00  0.00    +0.005 A 
ATOM     13  C   UNL     1      -2.969  -3.880  -2.237  0.00  0.00    +0.003 A 
ATOM     14  C   UNL     1      -3.666  -3.878  -1.043  0.00  0.00    +0.038 A 
ATOM     15  C   UNL     1      -2.994  -3.665   0.149  0.00  0.00    +0.124 A 
ATOM     16  C   UNL     1      -1.625  -3.459   0.144  0.00  0.00    +0.043 A 
ATOM     17  F   UNL     1      -3.674  -3.663   1.316  0.00  0.00    -0.205 F 
ENDBRANCH  10  11
BRANCH   1  19
ATOM     18  C   UNL     1      -1.466  -0.404  -0.891  0.00  0.00    +0.017 C 
ATOM     19  C   UNL     1       0.020  -0.043  -0.945  0.00  0.00    +0.007 C 
ATOM     20  C   UNL     1       0.171   1.459  -1.198  0.00  0.00    +0.017 C 
ATOM     21  C   UNL     1       0.682  -0.404   0.387  0.00  0.00    +0.017 C 
ENDBRANCH   1  19
BRANCH   8  22
ATOM     22  N   UNL     1       2.486  -5.882  -2.865  0.00  0.00    -0.328 N 
ATOM     23  H   UNL     1       2.923  -6.040  -3.716  0.00  0.00    +0.145 HD
ATOM     24  H   UNL     1       2.487  -6.572  -2.183  0.00  0.00    +0.145 HD
ENDBRANCH   8  22
BRANCH   9  25
ATOM     25  C   UNL     1       1.316  -5.564  -0.466  0.00  0.00    +0.101 C 
ATOM     26  N   UNL     1       1.353  -6.408   0.295  0.00  0.00    -0.191 NA
ENDBRANCH   9  25
TORSDOF 4
