REMARK  Name = ZINC03461899
REMARK  8 active torsions:
REMARK  status: ('A' for Active; 'I' for Inactive)
REMARK    1  A    between atoms: C_1  and  C_2
REMARK    2  A    between atoms: C_2  and  C_3
REMARK    3  A    between atoms: C_3  and  C_25
REMARK    4  A    between atoms: N_6  and  C_10
REMARK    5  A    between atoms: C_10  and  C_11
REMARK    6  A    between atoms: N_16  and  C_17
REMARK    7  A    between atoms: C_20  and  C_24
REMARK    8  A    between atoms: C_22  and  C_23
REMARK                            x       y       z     vdW  Elec       q    Type
REMARK                         _______ _______ _______ _____ _____    ______ ____
ROOT
ATOM      1  C   UNL     1       1.280   1.981  -0.034  0.00  0.00    +0.214 C 
ENDROOT
BRANCH   1   5
ATOM      2  C   UNL     1       4.084  -0.359  -0.711  0.00  0.00    +0.138 C 
ATOM      3  C   UNL     1       2.970   0.559  -1.175  0.00  0.00    +0.251 C 
ATOM      4  O   UNL     1       2.652   0.804  -2.319  0.00  0.00    -0.272 OA
ATOM      5  N   UNL     1       2.406   1.044  -0.051  0.00  0.00    -0.215 N 
ATOM      6  C   UNL     1       3.006   0.570   1.046  0.00  0.00    +0.310 C 
ATOM      7  O   UNL     1       2.677   0.867   2.178  0.00  0.00    -0.252 OA
ATOM      8  N   UNL     1       4.012  -0.276   0.758  0.00  0.00    -0.281 N 
ATOM      9  H   UNL     1       4.581  -0.738   1.393  0.00  0.00    +0.152 HD
BRANCH   2  10
ATOM     10  C   UNL     1       5.419   0.134  -1.208  0.00  0.00    -0.015 A 
ATOM     11  C   UNL     1       5.912  -0.312  -2.420  0.00  0.00    +0.006 A 
ATOM     12  C   UNL     1       7.134   0.144  -2.878  0.00  0.00    +0.000 A 
ATOM     13  C   UNL     1       7.867   1.038  -2.120  0.00  0.00    +0.000 A 
ATOM     14  C   UNL     1       7.376   1.480  -0.906  0.00  0.00    +0.000 A 
ATOM     15  C   UNL     1       6.151   1.028  -0.450  0.00  0.00    +0.006 A 
ENDBRANCH   2  10
BRANCH   2  17
ATOM     16  C   UNL     1       2.497  -2.287  -0.621  0.00  0.00    +0.007 C 
ATOM     17  C   UNL     1       3.832  -1.792  -1.183  0.00  0.00    +0.037 C 
ENDBRANCH   2  17
ENDBRANCH   1   5
BRANCH   1  18
ATOM     18  C   UNL     1      -0.014   1.209  -0.011  0.00  0.00    +0.238 C 
ATOM     19  O   UNL     1       0.003  -0.003  -0.010  0.00  0.00    -0.274 OA
ATOM     20  N   UNL     1      -1.191   1.867   0.001  0.00  0.00    -0.239 N 
ATOM     21  C   UNL     1      -2.348   1.177   0.016  0.00  0.00    +0.310 C 
ATOM     22  O   UNL     1      -2.332  -0.038   0.017  0.00  0.00    -0.252 OA
ATOM     23  N   UNL     1      -3.525   1.834   0.029  0.00  0.00    -0.269 N 
ATOM     24  H   UNL     1      -1.204   2.837   0.000  0.00  0.00    +0.159 HD
ATOM     25  H   UNL     1      -3.539   2.801   0.110  0.00  0.00    +0.156 HD
BRANCH  23  26
ATOM     26  C   UNL     1      -4.725   1.123  -0.075  0.00  0.00    +0.038 A 
ATOM     27  C   UNL     1      -4.745  -0.123  -0.688  0.00  0.00    +0.024 A 
ATOM     28  C   UNL     1      -5.930  -0.826  -0.783  0.00  0.00    +0.005 A 
ATOM     29  C   UNL     1      -7.099  -0.284  -0.280  0.00  0.00    -0.050 A 
ATOM     30  C   UNL     1      -7.084   0.959   0.325  0.00  0.00    +0.008 A 
ATOM     31  C   UNL     1      -5.900   1.664   0.429  0.00  0.00    -0.029 A 
ATOM     32  C   UNL     1      -5.885   3.018   1.090  0.00  0.00    +0.045 C 
ATOM     33  C   UNL     1      -8.392  -1.050  -0.392  0.00  0.00    +0.044 C 
ENDBRANCH  23  26
ENDBRANCH   1  18
TORSDOF 5
