REMARK  Name = ZINC61853035
REMARK  9 active torsions:
REMARK  status: ('A' for Active; 'I' for Inactive)
REMARK    1  A    between atoms: C_1  and  C_2
REMARK    2  A    between atoms: C_2  and  C_3
REMARK    3  A    between atoms: C_2  and  N_10
REMARK    4  A    between atoms: C_11  and  C_13
REMARK    5  A    between atoms: N_15  and  C_16
REMARK    6  A    between atoms: C_18  and  C_24
REMARK    7  A    between atoms: C_21  and  O_22
REMARK    8  A    between atoms: O_22  and  C_23
REMARK    9  A    between atoms: N_26  and  C_27
REMARK                            x       y       z     vdW  Elec       q    Type
REMARK                         _______ _______ _______ _____ _____    ______ ____
ROOT
ATOM      1  C   UNL     1       2.776  -1.100   2.382  0.00  0.00    +0.303 C 
ATOM      2  O   UNL     1       2.154  -1.399   3.381  0.00  0.00    -0.265 OA
ATOM      3  N   UNL     1       4.119  -1.205   2.368  0.00  0.00    -0.275 N 
ATOM      4  H   UNL     1       4.611  -1.029   1.551  0.00  0.00    +0.155 HD
ENDROOT
BRANCH   3   5
ATOM      5  C   UNL     1       4.804  -1.568   3.533  0.00  0.00    +0.077 A 
ATOM      6  C   UNL     1       4.235  -2.464   4.420  0.00  0.00    +0.040 A 
ATOM      7  C   UNL     1       4.923  -2.823   5.582  0.00  0.00    +0.039 A 
ATOM      8  C   UNL     1       6.182  -2.276   5.843  0.00  0.00    +0.017 A 
ATOM      9  C   UNL     1       6.745  -1.385   4.955  0.00  0.00    +0.048 A 
ATOM     10  C   UNL     1       6.066  -1.030   3.798  0.00  0.00    +0.141 A 
BRANCH   7  11
ATOM     11  C   UNL     1       4.321  -3.779   6.532  0.00  0.00    +0.244 C 
ATOM     12  O   UNL     1       3.225  -4.253   6.304  0.00  0.00    -0.270 OA
ATOM     13  N   UNL     1       4.985  -4.124   7.652  0.00  0.00    -0.314 N 
ATOM     14  C   UNL     1       4.387  -5.072   8.596  0.00  0.00    +0.128 C 
ATOM     15  H   UNL     1       5.860  -3.746   7.834  0.00  0.00    +0.149 HD
ENDBRANCH   7  11
BRANCH  10  16
ATOM     16  O   UNL     1       6.626  -0.156   2.924  0.00  0.00    -0.493 OA
ATOM     17  C   UNL     1       7.918   0.356   3.257  0.00  0.00    +0.277 C 
ENDBRANCH  10  16
ENDBRANCH   3   5
BRANCH   1  19
ATOM     18  N   UNL     1       0.708  -0.512   1.182  0.00  0.00    -0.301 N 
ATOM     19  C   UNL     1       2.052  -0.617   1.169  0.00  0.00    +0.300 C 
ATOM     20  O   UNL     1       2.674  -0.318   0.170  0.00  0.00    -0.265 OA
ATOM     21  H   UNL     1       0.211  -0.751   1.980  0.00  0.00    +0.150 HD
BRANCH  18  23
ATOM     22  C   UNL     1      -0.029   1.492  -0.009  0.00  0.00    +0.033 C 
ATOM     23  C   UNL     1      -0.002  -0.037  -0.008  0.00  0.00    +0.102 C 
BRANCH  23  24
ATOM     24  C   UNL     1      -1.413  -0.565   0.005  0.00  0.00    -0.009 A 
ATOM     25  C   UNL     1      -2.015  -0.898   1.204  0.00  0.00    +0.007 A 
ATOM     26  C   UNL     1      -3.310  -1.382   1.216  0.00  0.00    +0.000 A 
ATOM     27  C   UNL     1      -4.003  -1.534   0.029  0.00  0.00    +0.001 A 
ATOM     28  C   UNL     1      -3.402  -1.201  -1.170  0.00  0.00    +0.020 A 
ATOM     29  C   UNL     1      -2.108  -0.711  -1.182  0.00  0.00    +0.046 A 
ATOM     30 CL   UNL     1      -1.355  -0.286  -2.687  0.00  0.00    -0.083 Cl
ENDBRANCH  23  24
ENDBRANCH  18  23
ENDBRANCH   1  19
TORSDOF 6
