REMARK  Name = ZINC08568272
REMARK  8 active torsions:
REMARK  status: ('A' for Active; 'I' for Inactive)
REMARK    1  A    between atoms: C_1  and  C_2
REMARK    2  A    between atoms: C_2  and  C_3
REMARK    3  A    between atoms: C_3  and  C_4
REMARK    4  A    between atoms: C_11  and  N_29
REMARK    5  A    between atoms: C_12  and  C_27
REMARK    6  A    between atoms: C_13  and  C_15
REMARK    7  A    between atoms: C_18  and  O_25
REMARK    8  A    between atoms: O_25  and  C_26
REMARK                            x       y       z     vdW  Elec       q    Type
REMARK                         _______ _______ _______ _____ _____    ______ ____
ROOT
ATOM      1  C   UNL     1       0.765  -2.038   1.242  0.00  0.00    +0.044 A 
ATOM      2  C   UNL     1       1.662  -2.805   0.605  0.00  0.00    +0.049 A 
ATOM      3  C   UNL     1       1.330  -4.157   0.843  0.00  0.00    +0.245 A 
ATOM      4  N   UNL     1       0.270  -4.185   1.598  0.00  0.00    -0.135 NA
ATOM      5  N   UNL     1      -0.106  -2.860   1.871  0.00  0.00    -0.278 N 
ATOM      6  H   UNL     1      -0.861  -2.583   2.414  0.00  0.00    +0.189 HD
ATOM      7  O   UNL     1       2.058  -5.181   0.321  0.00  0.00    -0.421 OA
ATOM      8  C   UNL     1       2.945  -4.881  -0.648  0.00  0.00    +0.201 C 
ATOM      9  C   UNL     1       3.348  -3.631  -0.957  0.00  0.00    +0.098 C 
ATOM     10  C   UNL     1       2.846  -2.404  -0.237  0.00  0.00    +0.102 C 
ENDROOT
BRANCH  10  11
ATOM     11  C   UNL     1       3.935  -1.853   0.646  0.00  0.00    -0.027 A 
ATOM     12  C   UNL     1       4.403  -2.587   1.693  0.00  0.00    +0.009 A 
ATOM     13  C   UNL     1       5.409  -2.097   2.522  0.00  0.00    +0.046 A 
ATOM     14  C   UNL     1       5.956  -0.863   2.307  0.00  0.00    +0.128 A 
ATOM     15  C   UNL     1       5.496  -0.076   1.232  0.00  0.00    +0.024 A 
ATOM     16  C   UNL     1       4.476  -0.582   0.389  0.00  0.00    -0.010 A 
ATOM     17  C   UNL     1       4.021   0.201  -0.686  0.00  0.00    +0.009 A 
ATOM     18  C   UNL     1       4.567   1.428  -0.905  0.00  0.00    +0.001 A 
ATOM     19  C   UNL     1       5.575   1.922  -0.079  0.00  0.00    +0.001 A 
ATOM     20  C   UNL     1       6.032   1.197   0.979  0.00  0.00    +0.012 A 
BRANCH  14  21
ATOM     21  O   UNL     1       6.936  -0.399   3.125  0.00  0.00    -0.495 OA
ATOM     22  C   UNL     1       7.349  -1.253   4.193  0.00  0.00    +0.277 C 
ENDBRANCH  14  21
ENDBRANCH  10  11
BRANCH   8  23
ATOM     23  N   UNL     1       3.476  -5.920  -1.372  0.00  0.00    -0.328 N 
ATOM     24  H   UNL     1       3.210  -6.832  -1.177  0.00  0.00    +0.145 HD
ATOM     25  H   UNL     1       4.117  -5.742  -2.077  0.00  0.00    +0.145 HD
ENDBRANCH   8  23
BRANCH   9  26
ATOM     26  C   UNL     1       4.295  -3.461  -2.017  0.00  0.00    +0.101 C 
ATOM     27  N   UNL     1       5.047  -3.326  -2.858  0.00  0.00    -0.191 NA
ENDBRANCH   9  26
BRANCH   1  28
ATOM     28  C   UNL     1       0.737  -0.531   1.260  0.00  0.00    +0.055 C 
BRANCH  28  30
ATOM     29  C   UNL     1      -0.038   1.509   0.044  0.00  0.00    +0.004 C 
ATOM     30  C   UNL     1      -0.009  -0.020   0.026  0.00  0.00    +0.003 C 
ENDBRANCH  28  30
ENDBRANCH   1  28
TORSDOF 6
