REMARK  Name = ZINC11294872
REMARK  6 active torsions:
REMARK  status: ('A' for Active; 'I' for Inactive)
REMARK    1  A    between atoms: C_1  and  C_2
REMARK    2  A    between atoms: C_7  and  N_8
REMARK    3  A    between atoms: C_12  and  C_13
REMARK    4  A    between atoms: C_16  and  O_20
REMARK    5  A    between atoms: C_17  and  C_19
REMARK    6  A    between atoms: O_20  and  C_21
REMARK                            x       y       z     vdW  Elec       q    Type
REMARK                         _______ _______ _______ _____ _____    ______ ____
ROOT
ATOM      1  N   UNL     1       3.435   1.923  -0.391  0.00  0.00    -0.216 N 
ATOM      2  C   UNL     1       2.519   0.977  -0.101  0.00  0.00    +0.271 C 
ATOM      3  O   UNL     1       2.734  -0.187   0.181  0.00  0.00    -0.268 OA
ATOM      4  C   UNL     1       1.207   1.635  -0.198  0.00  0.00    +0.097 C 
ATOM      5  C   UNL     1      -0.013   1.076   0.008  0.00  0.00    +0.036 C 
ATOM      6  N   UNL     1       1.486   2.964  -0.541  0.00  0.00    -0.292 N 
ATOM      7  C   UNL     1       2.821   3.089  -0.645  0.00  0.00    +0.148 C 
ATOM      8  S   UNL     1       3.630   4.543  -1.048  0.00  0.00    -0.018 S 
ATOM      9  H   UNL     1       0.834   3.668  -0.680  0.00  0.00    +0.154 HD
ENDROOT
BRANCH   1  16
ATOM     10  C   UNL     1       4.633   1.129  -2.848  0.00  0.00    +0.045 C 
ATOM     11  C   UNL     1       5.446   1.333  -1.595  0.00  0.00    -0.029 A 
ATOM     12  C   UNL     1       6.812   1.133  -1.618  0.00  0.00    +0.005 A 
ATOM     13  C   UNL     1       7.559   1.320  -0.469  0.00  0.00    +0.000 A 
ATOM     14  C   UNL     1       6.940   1.707   0.706  0.00  0.00    +0.002 A 
ATOM     15  C   UNL     1       5.575   1.912   0.733  0.00  0.00    +0.024 A 
ATOM     16  C   UNL     1       4.822   1.720  -0.417  0.00  0.00    +0.046 A 
ENDBRANCH   1  16
BRANCH   5  17
ATOM     17  C   UNL     1      -1.230   1.835  -0.305  0.00  0.00    -0.023 A 
ATOM     18  C   UNL     1      -1.186   2.885  -1.230  0.00  0.00    +0.011 A 
ATOM     19  C   UNL     1      -2.330   3.593  -1.520  0.00  0.00    +0.046 A 
ATOM     20  C   UNL     1      -3.529   3.267  -0.895  0.00  0.00    +0.123 A 
ATOM     21  C   UNL     1      -3.579   2.225   0.023  0.00  0.00    -0.008 A 
ATOM     22  C   UNL     1      -2.442   1.506   0.316  0.00  0.00    +0.015 A 
ATOM     23  C   UNL     1      -4.882   1.877   0.695  0.00  0.00    +0.047 C 
BRANCH  20  24
ATOM     24  O   UNL     1      -4.655   3.968  -1.185  0.00  0.00    -0.495 OA
ATOM     25  C   UNL     1      -4.534   5.026  -2.138  0.00  0.00    +0.277 C 
ENDBRANCH  20  24
ENDBRANCH   5  17
TORSDOF 3
