REMARK  Name = ZINC44386864
REMARK  4 active torsions:
REMARK  status: ('A' for Active; 'I' for Inactive)
REMARK    1  A    between atoms: C_2  and  C_7
REMARK    2  A    between atoms: C_7  and  N_8
REMARK    3  A    between atoms: C_9  and  C_11
REMARK    4  A    between atoms: C_11  and  C_17
REMARK                            x       y       z     vdW  Elec       q    Type
REMARK                         _______ _______ _______ _____ _____    ______ ____
ROOT
ATOM      1  N   UNL     1       1.880   3.671   1.385  0.00  0.00    -0.310 N 
ATOM      2  C   UNL     1       2.281   4.934   1.633  0.00  0.00    +0.233 C 
ATOM      3  O   UNL     1       2.510   5.690   0.713  0.00  0.00    -0.274 OA
ATOM      4  H   UNL     1       1.698   3.066   2.120  0.00  0.00    +0.149 HD
ENDROOT
BRANCH   2   5
ATOM      5  C   UNL     1       2.446   5.405   3.055  0.00  0.00    +0.133 C 
ATOM      6  C   UNL     1       1.108   5.291   3.788  0.00  0.00    +0.031 C 
ATOM      7  C   UNL     1       1.275   5.770   5.232  0.00  0.00    +0.002 C 
ATOM      8  C   UNL     1       1.736   7.229   5.235  0.00  0.00    +0.000 C 
ATOM      9  C   UNL     1       3.074   7.343   4.502  0.00  0.00    +0.002 C 
ATOM     10  C   UNL     1       2.906   6.864   3.058  0.00  0.00    +0.031 C 
BRANCH   5  11
ATOM     11  C   UNL     1       3.451   4.572   3.735  0.00  0.00    +0.079 C 
ATOM     12  N   UNL     1       4.227   3.929   4.260  0.00  0.00    -0.195 NA
ENDBRANCH   5  11
ENDBRANCH   2   5
BRANCH   1  13
ATOM     13  C   UNL     1       1.720   3.212   0.002  0.00  0.00    +0.142 C 
BRANCH  13  15
ATOM     14  C   UNL     1      -0.016   1.345   0.009  0.00  0.00    +0.110 A 
ATOM     15  C   UNL     1       1.267   1.775  -0.001  0.00  0.00    +0.007 A 
ATOM     16  C   UNL     1       2.098   0.650  -0.015  0.00  0.00    +0.139 A 
ATOM     17  N   UNL     1       1.341  -0.417  -0.013  0.00  0.00    -0.182 NA
ATOM     18  N   UNL     1       0.002  -0.004   0.002  0.00  0.00    -0.284 N 
ATOM     19  H   UNL     1      -0.774  -0.585   0.006  0.00  0.00    +0.188 HD
ENDBRANCH  13  15
ENDBRANCH   1  13
TORSDOF 4
