REMARK  Name = ZINC23044836
REMARK  8 active torsions:
REMARK  status: ('A' for Active; 'I' for Inactive)
REMARK    1  A    between atoms: C_1  and  C_2
REMARK    2  A    between atoms: C_2  and  C_4
REMARK    3  A    between atoms: C_2  and  O_17
REMARK    4  A    between atoms: N_6  and  C_7
REMARK    5  A    between atoms: C_10  and  N_14
REMARK    6  A    between atoms: O_17  and  C_18
REMARK    7  A    between atoms: C_18  and  C_20
REMARK    8  A    between atoms: C_23  and  C_26
REMARK                            x       y       z     vdW  Elec       q    Type
REMARK                         _______ _______ _______ _____ _____    ______ ____
ROOT
ATOM      1  C   UNL     1       2.458   0.008   1.417  0.00  0.00    +0.062 C 
ATOM      2  C   UNL     1       2.455   0.805   0.111  0.00  0.00    +0.259 C 
ENDROOT
BRANCH   2   3
ATOM      3  C   UNL     1       1.179   1.599   0.010  0.00  0.00    +0.258 C 
ATOM      4  O   UNL     1       1.222   2.809  -0.069  0.00  0.00    -0.271 OA
ATOM      5  N   UNL     1      -0.011   0.966   0.007  0.00  0.00    -0.281 N 
ATOM      6  H   UNL     1      -0.049  -0.133  -0.011  0.00  0.00    +0.155 HD
BRANCH   5   7
ATOM      7  C   UNL     1      -1.198   1.707   0.028  0.00  0.00    +0.052 A 
ATOM      8  C   UNL     1      -1.208   2.992   0.553  0.00  0.00    +0.027 A 
ATOM      9  C   UNL     1      -2.381   3.720   0.572  0.00  0.00    +0.034 A 
ATOM     10  C   UNL     1      -3.546   3.172   0.069  0.00  0.00    +0.128 A 
ATOM     11  C   UNL     1      -3.541   1.892  -0.455  0.00  0.00    +0.054 A 
ATOM     12  C   UNL     1      -2.369   1.160  -0.483  0.00  0.00    +0.064 A 
ATOM     13 CL   UNL     1      -2.362  -0.444  -1.147  0.00  0.00    -0.082 Cl
BRANCH  10  14
ATOM     14  N   UNL     1      -4.801   3.956   0.090  0.00  0.00    +0.056 N 
ATOM     15  O   UNL     1      -4.807   5.083   0.551  0.00  0.00    -0.126 OA
ATOM     16  O   UNL     1      -5.828   3.474  -0.353  0.00  0.00    -0.126 OA
ENDBRANCH  10  14
ENDBRANCH   5   7
ENDBRANCH   2   3
BRANCH   2  17
ATOM     17  O   UNL     1       3.591   1.709   0.093  0.00  0.00    -0.449 OA
BRANCH  17  18
ATOM     18  C   UNL     1       4.738   1.240  -0.434  0.00  0.00    +0.340 C 
ATOM     19  O   UNL     1       4.788   0.106  -0.867  0.00  0.00    -0.245 OA
BRANCH  18  20
ATOM     20  C   UNL     1       5.937   2.105  -0.486  0.00  0.00    +0.059 A 
ATOM     21  C   UNL     1       5.877   3.410   0.007  0.00  0.00    +0.016 A 
ATOM     22  C   UNL     1       6.996   4.214  -0.035  0.00  0.00    +0.014 A 
ATOM     23  C   UNL     1       8.184   3.728  -0.582  0.00  0.00    +0.037 A 
ATOM     24  C   UNL     1       8.242   2.425  -1.080  0.00  0.00    +0.014 A 
ATOM     25  C   UNL     1       7.126   1.619  -1.032  0.00  0.00    +0.016 A 
BRANCH  23  26
ATOM     26  C   UNL     1       9.384   4.593  -0.632  0.00  0.00    +0.242 C 
ATOM     27  O   UNL     1      10.420   4.170  -1.108  0.00  0.00    -0.270 OA
ATOM     28  N   UNL     1       9.329   5.851  -0.151  0.00  0.00    -0.325 N 
ATOM     29  H   UNL     1      10.220   6.494  -0.189  0.00  0.00    +0.145 HD
ATOM     30  H   UNL     1       8.392   6.234   0.279  0.00  0.00    +0.145 HD
ENDBRANCH  23  26
ENDBRANCH  18  20
ENDBRANCH  17  18
ENDBRANCH   2  17
TORSDOF 7
