REMARK  Name = ZINC36970925
REMARK  7 active torsions:
REMARK  status: ('A' for Active; 'I' for Inactive)
REMARK    1  A    between atoms: C_1  and  C_2
REMARK    2  A    between atoms: C_3  and  C_8
REMARK    3  A    between atoms: C_5  and  C_7
REMARK    4  A    between atoms: C_8  and  C_10
REMARK    5  A    between atoms: C_8  and  N_11
REMARK    6  A    between atoms: N_11  and  C_12
REMARK    7  A    between atoms: C_15  and  N_19
REMARK                            x       y       z     vdW  Elec       q    Type
REMARK                         _______ _______ _______ _____ _____    ______ ____
ROOT
ATOM      1  N   UNL     1      -3.226  -1.203   0.986  0.00  0.00    -0.335 N 
ATOM      2  H   UNL     1      -2.929  -2.093   1.232  0.00  0.00    +0.147 HD
ENDROOT
BRANCH   1   3
ATOM      3  C   UNL     1      -4.381  -0.668   1.563  0.00  0.00    +0.046 A 
ATOM      4  C   UNL     1      -4.811   0.605   1.209  0.00  0.00    +0.026 A 
ATOM      5  C   UNL     1      -5.952   1.131   1.781  0.00  0.00    +0.034 A 
ATOM      6  C   UNL     1      -6.668   0.393   2.706  0.00  0.00    +0.128 A 
ATOM      7  C   UNL     1      -6.243  -0.875   3.062  0.00  0.00    +0.054 A 
ATOM      8  C   UNL     1      -5.105  -1.409   2.489  0.00  0.00    +0.064 A 
ATOM      9 CL   UNL     1      -4.576  -3.003   2.931  0.00  0.00    -0.082 Cl
BRANCH   6  10
ATOM     10  N   UNL     1      -7.890   0.960   3.317  0.00  0.00    +0.056 N 
ATOM     11  O   UNL     1      -8.262   2.068   3.008  0.00  0.00    -0.126 OA
ATOM     12  O   UNL     1      -8.517   0.316   4.126  0.00  0.00    -0.126 OA
ENDBRANCH   6  10
ENDBRANCH   1   3
BRANCH   1  13
ATOM     13  C   UNL     1      -2.464  -0.419   0.011  0.00  0.00    +0.117 C 
ATOM     14  C   UNL     1      -3.071  -0.609  -1.381  0.00  0.00    +0.034 C 
BRANCH  13  17
ATOM     15  C   UNL     1      -0.018   1.503   0.010  0.00  0.00    +0.053 C 
ATOM     16  C   UNL     1       0.002  -0.004   0.002  0.00  0.00    +0.011 A 
ATOM     17  C   UNL     1      -1.031  -0.885   0.002  0.00  0.00    +0.071 A 
ATOM     18  N   UNL     1      -0.723  -2.167  -0.007  0.00  0.00    -0.247 NA
ATOM     19  C   UNL     1       0.524  -2.568  -0.014  0.00  0.00    +0.076 A 
ATOM     20  S   UNL     1       1.391  -1.126  -0.018  0.00  0.00    -0.077 S 
ATOM     21  C   UNL     1       1.053  -3.979  -0.024  0.00  0.00    +0.073 C 
ENDBRANCH  13  17
ENDBRANCH   1  13
TORSDOF 4
