REMARK  Name = ZINC62208276
REMARK  6 active torsions:
REMARK  status: ('A' for Active; 'I' for Inactive)
REMARK    1  A    between atoms: C_1  and  C_2
REMARK    2  A    between atoms: C_8  and  C_28
REMARK    3  A    between atoms: C_8  and  C_29
REMARK    4  A    between atoms: C_10  and  N_11
REMARK    5  A    between atoms: C_12  and  C_14
REMARK    6  A    between atoms: N_16  and  C_17
REMARK                            x       y       z     vdW  Elec       q    Type
REMARK                         _______ _______ _______ _____ _____    ______ ____
ROOT
ATOM      1  N   UNL     1      -2.506  -3.302  -0.962  0.00  0.00    -0.301 N 
ATOM      2  C   UNL     1      -3.669  -2.738  -0.580  0.00  0.00    +0.300 C 
ATOM      3  O   UNL     1      -3.801  -2.329   0.555  0.00  0.00    -0.265 OA
ATOM      4  H   UNL     1      -2.400  -3.629  -1.869  0.00  0.00    +0.150 HD
ENDROOT
BRANCH   1  14
ATOM      5  C   UNL     1      -0.020   1.490   0.054  0.00  0.00    +0.086 C 
ATOM      6  C   UNL     1      -0.000  -0.017   0.035  0.00  0.00    +0.103 A 
ATOM      7  C   UNL     1      -1.084  -0.818   0.027  0.00  0.00    +0.050 A 
ATOM      8  C   UNL     1      -0.606  -2.141   0.009  0.00  0.00    +0.014 A 
ATOM      9  C   UNL     1       0.742  -2.077   0.009  0.00  0.00    +0.111 A 
ATOM     10  O   UNL     1       1.101  -0.788   0.018  0.00  0.00    -0.464 OA
ATOM     11  C   UNL     1       1.641  -3.289  -0.004  0.00  0.00    +0.081 C 
ATOM     12  C   UNL     1       0.812  -4.513   0.401  0.00  0.00    -0.026 C 
ATOM     13  C   UNL     1      -0.470  -4.563  -0.434  0.00  0.00    +0.034 C 
ATOM     14  C   UNL     1      -1.401  -3.420  -0.008  0.00  0.00    +0.107 C 
ATOM     15  C   UNL     1       0.450  -4.415   1.885  0.00  0.00    +0.011 C 
ATOM     16  C   UNL     1       1.628  -5.785   0.159  0.00  0.00    +0.011 C 
ENDBRANCH   1  14
BRANCH   2  17
ATOM     17  C   UNL     1      -4.795  -2.617  -1.553  0.00  0.00    +0.303 C 
ATOM     18  O   UNL     1      -4.663  -3.027  -2.688  0.00  0.00    -0.265 OA
ATOM     19  N   UNL     1      -5.959  -2.054  -1.171  0.00  0.00    -0.278 N 
ATOM     20  H   UNL     1      -6.088  -1.788  -0.247  0.00  0.00    +0.155 HD
BRANCH  19  21
ATOM     21  C   UNL     1      -6.979  -1.853  -2.106  0.00  0.00    +0.034 A 
ATOM     22  C   UNL     1      -7.792  -0.730  -2.016  0.00  0.00    +0.025 A 
ATOM     23  C   UNL     1      -8.799  -0.531  -2.940  0.00  0.00    +0.025 A 
ATOM     24  C   UNL     1      -8.998  -1.454  -3.959  0.00  0.00    +0.037 A 
ATOM     25  C   UNL     1      -8.185  -2.576  -4.048  0.00  0.00    -0.024 A 
ATOM     26  C   UNL     1      -7.175  -2.773  -3.129  0.00  0.00    +0.028 A 
ATOM     27  C   UNL     1      -8.404  -3.574  -5.156  0.00  0.00    +0.046 C 
ATOM     28  C   UNL     1      -9.896  -3.662  -5.478  0.00  0.00    +0.101 C 
ATOM     29  C   UNL     1     -10.466  -2.279  -5.645  0.00  0.00    +0.218 C 
ATOM     30  O   UNL     1     -11.340  -2.086  -6.463  0.00  0.00    -0.275 OA
ATOM     31  N   UNL     1     -10.018  -1.254  -4.897  0.00  0.00    -0.285 N 
ATOM     32  H   UNL     1     -10.404  -0.371  -5.008  0.00  0.00    +0.155 HD
ENDBRANCH  19  21
ENDBRANCH   2  17
TORSDOF 3
