REMARK  Name = ZINC01380925
REMARK  11 active torsions:
REMARK  status: ('A' for Active; 'I' for Inactive)
REMARK    1  A    between atoms: C_1  and  C_2
REMARK    2  A    between atoms: C_8  and  C_10
REMARK    3  A    between atoms: N_16  and  C_32
REMARK    4  A    between atoms: C_17  and  C_25
REMARK    5  A    between atoms: C_22  and  C_24
REMARK    6  A    between atoms: N_27  and  C_28
REMARK    7  A    between atoms: C_28  and  C_29
REMARK    8  A    between atoms: C_28  and  C_30
REMARK    9  A    between atoms: C_28  and  C_31
REMARK   10  A    between atoms: C_36  and  C_38
REMARK   11  A    between atoms: C_38  and  C_40
REMARK                            x       y       z     vdW  Elec       q    Type
REMARK                         _______ _______ _______ _____ _____    ______ ____
ROOT
ATOM      1  C   UNL     1      -3.324   1.845  -2.993  0.00  0.00    +0.126 C 
ATOM      2  C   UNL     1      -2.408   1.165  -1.960  0.00  0.00    +0.128 C 
ATOM      3  C   UNL     1      -3.111   0.633  -0.744  0.00  0.00    +0.228 C 
ATOM      4  O   UNL     1      -4.120  -0.039  -0.754  0.00  0.00    -0.275 OA
ATOM      5  N   UNL     1      -2.438   1.023   0.369  0.00  0.00    -0.256 N 
ATOM      6  C   UNL     1      -1.330   1.944   0.019  0.00  0.00    +0.203 C 
ATOM      7  C   UNL     1      -1.675   2.420  -1.357  0.00  0.00    +0.128 C 
ATOM      8  C   UNL     1      -0.685   2.880  -2.367  0.00  0.00    +0.009 C 
ATOM      9  C   UNL     1      -1.441   3.435  -3.322  0.00  0.00    +0.007 C 
ATOM     10  C   UNL     1      -2.900   3.344  -2.861  0.00  0.00    +0.098 C 
ATOM     11  O   UNL     1      -2.720   3.429  -1.401  0.00  0.00    -0.355 OA
ATOM     12  C   UNL     1      -3.855   4.357  -3.494  0.00  0.00    +0.047 C 
ENDROOT
BRANCH   1  20
ATOM     13  C   UNL     1      -1.924  -0.689  -9.341  0.00  0.00    +0.089 C 
ATOM     14  C   UNL     1      -2.642   0.274  -8.431  0.00  0.00    +0.136 A 
ATOM     15  C   UNL     1      -2.532   0.349  -7.085  0.00  0.00    +0.091 A 
ATOM     16  C   UNL     1      -3.409   1.408  -6.728  0.00  0.00    +0.168 A 
ATOM     17  N   UNL     1      -3.925   1.847  -7.846  0.00  0.00    -0.063 NA
ATOM     18  O   UNL     1      -3.509   1.228  -8.798  0.00  0.00    -0.358 OA
ATOM     19  N   UNL     1      -3.663   1.887  -5.443  0.00  0.00    -0.267 N 
ATOM     20  C   UNL     1      -3.050   1.327  -4.381  0.00  0.00    +0.225 C 
ATOM     21  O   UNL     1      -2.276   0.407  -4.543  0.00  0.00    -0.275 OA
ATOM     22  H   UNL     1      -4.282   2.623  -5.314  0.00  0.00    +0.156 HD
ENDBRANCH   1  20
BRANCH   5  23
ATOM     23  C   UNL     1      -2.748   0.612   1.670  0.00  0.00    +0.038 A 
ATOM     24  C   UNL     1      -1.993   1.072   2.743  0.00  0.00    +0.023 A 
ATOM     25  C   UNL     1      -2.294   0.670   4.031  0.00  0.00    +0.002 A 
ATOM     26  C   UNL     1      -3.346  -0.192   4.262  0.00  0.00    +0.011 A 
ATOM     27  C   UNL     1      -4.113  -0.661   3.190  0.00  0.00    +0.019 A 
ATOM     28  C   UNL     1      -3.811  -0.249   1.889  0.00  0.00    +0.035 A 
BRANCH  27  29
ATOM     29  C   UNL     1      -5.236  -1.581   3.432  0.00  0.00    +0.160 C 
ATOM     30  O   UNL     1      -5.899  -1.986   2.501  0.00  0.00    -0.292 OA
ATOM     31  C   UNL     1      -5.563  -2.018   4.837  0.00  0.00    +0.091 C 
ENDBRANCH  27  29
ENDBRANCH   5  23
BRANCH   6  32
ATOM     32  C   UNL     1      -0.014   1.209   0.009  0.00  0.00    +0.238 C 
ATOM     33  O   UNL     1       0.002  -0.004   0.002  0.00  0.00    -0.274 OA
ATOM     34  N   UNL     1       1.143   1.898   0.001  0.00  0.00    -0.309 N 
ATOM     35  H   UNL     1       1.130   2.868   0.007  0.00  0.00    +0.149 HD
BRANCH  34  36
ATOM     36  C   UNL     1       2.422   1.183  -0.015  0.00  0.00    +0.026 C 
ATOM     37  C   UNL     1       2.503   0.311  -1.270  0.00  0.00    +0.031 C 
ATOM     38  C   UNL     1       3.571   2.193  -0.020  0.00  0.00    +0.031 C 
ATOM     39  C   UNL     1       2.527   0.298   1.229  0.00  0.00    +0.031 C 
ENDBRANCH  34  36
ENDBRANCH   6  32
TORSDOF 5
