REMARK  Name = ZINC67382676
REMARK  9 active torsions:
REMARK  status: ('A' for Active; 'I' for Inactive)
REMARK    1  A    between atoms: C_1  and  C_2
REMARK    2  A    between atoms: C_6  and  C_7
REMARK    3  A    between atoms: N_9  and  N_10
REMARK    4  A    between atoms: N_13  and  C_14
REMARK    5  A    between atoms: C_14  and  C_15
REMARK    6  A    between atoms: C_15  and  C_17
REMARK    7  A    between atoms: C_15  and  N_24
REMARK    8  A    between atoms: N_24  and  C_25
REMARK    9  A    between atoms: N_24  and  C_26
REMARK                            x       y       z     vdW  Elec       q    Type
REMARK                         _______ _______ _______ _____ _____    ______ ____
ROOT
ATOM      1  N   UNL     1       0.684  -1.240   4.015  0.00  0.00    -0.218 N 
ATOM      2  C   UNL     1       0.469  -1.938   5.148  0.00  0.00    +0.316 C 
ATOM      3  O   UNL     1       0.282  -1.351   6.197  0.00  0.00    -0.251 OA
ATOM      4  N   UNL     1       0.462  -3.285   5.119  0.00  0.00    -0.299 N 
ATOM      5  H   UNL     1       0.690  -0.270   4.037  0.00  0.00    +0.174 HD
ATOM      6  H   UNL     1       0.611  -3.752   4.282  0.00  0.00    +0.150 HD
ENDROOT
BRANCH   1   9
ATOM      7  C   UNL     1       1.115  -1.217   1.674  0.00  0.00    +0.267 C 
ATOM      8  O   UNL     1       1.122  -0.001   1.701  0.00  0.00    -0.268 OA
ATOM      9  N   UNL     1       0.900  -1.915   2.807  0.00  0.00    -0.229 N 
ATOM     10  H   UNL     1       0.894  -2.885   2.786  0.00  0.00    +0.173 HD
BRANCH   7  16
ATOM     11  C   UNL     1       1.639   0.082  -1.108  0.00  0.00    +0.045 C 
ATOM     12  C   UNL     1       1.578  -1.402  -0.853  0.00  0.00    -0.031 A 
ATOM     13  C   UNL     1       1.759  -2.324  -1.855  0.00  0.00    +0.011 A 
ATOM     14  C   UNL     1       1.691  -3.645  -1.556  0.00  0.00    +0.046 A 
ATOM     15  S   UNL     1       1.379  -3.678   0.094  0.00  0.00    -0.092 S 
ATOM     16  C   UNL     1       1.340  -1.924   0.410  0.00  0.00    +0.078 A 
ENDBRANCH   7  16
ENDBRANCH   1   9
BRANCH   4  17
ATOM     17  C   UNL     1       0.228  -4.043   6.350  0.00  0.00    +0.095 C 
BRANCH  17  18
ATOM     18  C   UNL     1       0.142  -5.535   6.021  0.00  0.00    -0.021 C 
BRANCH  18  19
ATOM     19  C   UNL     1      -1.071  -5.791   5.163  0.00  0.00    -0.057 A 
ATOM     20  C   UNL     1      -2.323  -5.877   5.744  0.00  0.00    +0.002 A 
ATOM     21  C   UNL     1      -3.435  -6.111   4.958  0.00  0.00    +0.003 A 
ATOM     22  C   UNL     1      -3.297  -6.262   3.591  0.00  0.00    +0.038 A 
ATOM     23  C   UNL     1      -2.044  -6.177   3.009  0.00  0.00    +0.124 A 
ATOM     24  C   UNL     1      -0.931  -5.935   3.796  0.00  0.00    +0.040 A 
ATOM     25  F   UNL     1      -1.908  -6.324   1.673  0.00  0.00    -0.205 F 
ENDBRANCH  18  19
BRANCH  18  26
ATOM     26  N   UNL     1       0.031  -6.305   7.267  0.00  0.00    +0.382 N 
ATOM     27  C   UNL     1      -0.102  -7.734   6.950  0.00  0.00    -0.096 C 
ATOM     28  C   UNL     1       1.235  -6.095   8.082  0.00  0.00    -0.096 C 
ATOM     29  H   UNL     1      -0.781  -5.998   7.782  0.00  0.00    -0.082 HD
ENDBRANCH  18  26
ENDBRANCH  17  18
ENDBRANCH   4  17
TORSDOF 6
