REMARK  Name = ZINC15550493
REMARK  13 active torsions:
REMARK  status: ('A' for Active; 'I' for Inactive)
REMARK    1  A    between atoms: C_1  and  C_2
REMARK    2  A    between atoms: C_2  and  N_3
REMARK    3  A    between atoms: N_3  and  C_4
REMARK    4  A    between atoms: C_5  and  N_20
REMARK    5  A    between atoms: N_6  and  C_13
REMARK    6  A    between atoms: C_13  and  C_14
REMARK    7  A    between atoms: C_21  and  C_23
REMARK    8  A    between atoms: C_23  and  N_63
REMARK    9  A    between atoms: C_24  and  C_26
REMARK   10  A    between atoms: C_24  and  C_33
REMARK   11  A    between atoms: C_24  and  N_63
REMARK   12  A    between atoms: C_33  and  C_34
REMARK   13  A    between atoms: C_33  and  C_35
REMARK                            x       y       z     vdW  Elec       q    Type
REMARK                         _______ _______ _______ _____ _____    ______ ____
ROOT
ATOM      1  N   UNL     1      -1.799   1.769   0.177  0.00  0.00    -0.266 N 
ATOM      2  C   UNL     1      -1.622   3.106   0.222  0.00  0.00    +0.203 C 
ATOM      3  O   UNL     1      -0.507   3.567   0.346  0.00  0.00    -0.277 OA
ENDROOT
BRANCH   1   4
ATOM      4  C   UNL     1      -0.679   0.910   0.167  0.00  0.00    +0.140 A 
ATOM      5  C   UNL     1      -0.409   0.122  -0.933  0.00  0.00    +0.128 A 
ATOM      6  N   UNL     1       0.686  -0.710  -0.911  0.00  0.00    -0.276 N 
ATOM      7  C   UNL     1       1.484  -0.755   0.171  0.00  0.00    +0.331 A 
ATOM      8  O   UNL     1       2.447  -1.498   0.171  0.00  0.00    -0.246 OA
ATOM      9  N   UNL     1       1.237   0.005   1.252  0.00  0.00    -0.273 N 
ATOM     10  H   UNL     1       1.846  -0.047   2.043  0.00  0.00    +0.173 HD
ATOM     11  C   UNL     1       0.177   0.837   1.281  0.00  0.00    +0.277 A 
ATOM     12  O   UNL     1      -0.038   1.522   2.267  0.00  0.00    -0.266 OA
BRANCH   5  13
ATOM     13  N   UNL     1      -1.225   0.168  -2.038  0.00  0.00    -0.343 N 
ATOM     14  H   UNL     1      -1.946   0.816  -2.083  0.00  0.00    +0.144 HD
ATOM     15  H   UNL     1      -1.080  -0.447  -2.774  0.00  0.00    +0.144 HD
ENDBRANCH   5  13
BRANCH   6  16
ATOM     16  C   UNL     1       0.984  -1.552  -2.072  0.00  0.00    +0.163 C 
BRANCH  16  17
ATOM     17  C   UNL     1       0.285  -2.879  -1.923  0.00  0.00    -0.028 A 
ATOM     18  C   UNL     1       0.926  -3.930  -1.293  0.00  0.00    +0.005 A 
ATOM     19  C   UNL     1       0.283  -5.146  -1.151  0.00  0.00    +0.000 A 
ATOM     20  C   UNL     1      -0.995  -5.314  -1.649  0.00  0.00    +0.000 A 
ATOM     21  C   UNL     1      -1.634  -4.265  -2.283  0.00  0.00    +0.000 A 
ATOM     22  C   UNL     1      -0.993  -3.047  -2.420  0.00  0.00    +0.005 A 
ENDBRANCH  16  17
ENDBRANCH   6  16
ENDBRANCH   1   4
BRANCH   1  24
ATOM     23  C   UNL     1      -3.696   1.092   1.564  0.00  0.00    +0.025 C 
ATOM     24  C   UNL     1      -3.152   1.210   0.139  0.00  0.00    +0.110 C 
ENDBRANCH   1  24
BRANCH   2  25
ATOM     25  C   UNL     1      -2.811   4.027   0.117  0.00  0.00    +0.016 C 
BRANCH  25  26
ATOM     26  N   UNL     1      -2.347   5.425   0.192  0.00  0.00    +0.389 N 
ATOM     27  H   UNL     1      -1.757   5.630  -0.623  0.00  0.00    -0.084 HD
ATOM     28  H   UNL     1      -1.801   5.555   1.052  0.00  0.00    -0.084 HD
BRANCH  26  29
ATOM     29  C   UNL     1      -3.499   6.347   0.203  0.00  0.00    -0.038 C 
BRANCH  29  30
ATOM     30  C   UNL     1      -3.070   7.667   0.789  0.00  0.00    -0.061 A 
ATOM     31  C   UNL     1      -1.829   8.190   0.479  0.00  0.00    +0.005 A 
ATOM     32  C   UNL     1      -1.437   9.403   1.012  0.00  0.00    +0.038 A 
ATOM     33  C   UNL     1      -2.283  10.090   1.866  0.00  0.00    +0.123 A 
ATOM     34  C   UNL     1      -3.524   9.562   2.180  0.00  0.00    +0.038 A 
ATOM     35  C   UNL     1      -3.917   8.352   1.641  0.00  0.00    +0.005 A 
ATOM     36  F   UNL     1      -1.898  11.273   2.392  0.00  0.00    -0.205 F 
ENDBRANCH  29  30
BRANCH  29  37
ATOM     37  C   UNL     1      -3.995   6.561  -1.228  0.00  0.00    -0.027 C 
ATOM     38  C   UNL     1      -5.223   7.474  -1.211  0.00  0.00    +0.006 C 
ATOM     39  C   UNL     1      -2.888   7.212  -2.060  0.00  0.00    +0.006 C 
ENDBRANCH  29  37
ENDBRANCH  26  29
ENDBRANCH  25  26
ENDBRANCH   2  25
TORSDOF 10
