REMARK  Name = ZINC12279714
REMARK  8 active torsions:
REMARK  status: ('A' for Active; 'I' for Inactive)
REMARK    1  A    between atoms: C_4  and  C_7
REMARK    2  A    between atoms: C_8  and  C_9
REMARK    3  A    between atoms: C_9  and  N_66
REMARK    4  A    between atoms: C_12  and  C_15
REMARK    5  A    between atoms: C_12  and  O_34
REMARK    6  A    between atoms: C_22  and  C_24
REMARK    7  A    between atoms: N_26  and  C_27
REMARK    8  A    between atoms: C_27  and  C_28
REMARK                            x       y       z     vdW  Elec       q    Type
REMARK                         _______ _______ _______ _____ _____    ______ ____
ROOT
ATOM      1  C   UNL     1      -0.180   0.953  -0.023  0.00  0.00    -0.075 C 
ATOM      2  C   UNL     1      -1.032   1.269  -1.254  0.00  0.00    +0.021 C 
ATOM      3  C   UNL     1      -2.381   0.555  -1.132  0.00  0.00    +0.088 C 
ATOM      4  C   UNL     1      -3.070   1.001   0.160  0.00  0.00    +0.021 C 
ATOM      5  C   UNL     1      -2.159   0.692   1.351  0.00  0.00    -0.075 C 
ATOM      6  N   UNL     1      -0.888   1.428   1.185  0.00  0.00    +0.383 N 
ATOM      7  H   UNL     1      -1.093   2.428   1.079  0.00  0.00    -0.081 HD
ENDROOT
BRANCH   3   8
ATOM      8  C   UNL     1      -3.248   0.911  -2.313  0.00  0.00    -0.015 A 
ATOM      9  C   UNL     1      -3.106   2.150  -2.924  0.00  0.00    +0.010 A 
ATOM     10  C   UNL     1      -3.884   2.493  -4.008  0.00  0.00    +0.047 A 
ATOM     11  C   UNL     1      -4.830   1.597  -4.493  0.00  0.00    +0.136 A 
ATOM     12  C   UNL     1      -4.973   0.345  -3.867  0.00  0.00    +0.021 A 
ATOM     13  C   UNL     1      -4.171   0.014  -2.772  0.00  0.00    +0.018 A 
ATOM     14  C   UNL     1      -6.030  -0.348  -4.602  0.00  0.00    +0.063 A 
ATOM     15  C   UNL     1      -6.430   0.506  -5.579  0.00  0.00    +0.190 A 
ATOM     16  O   UNL     1      -5.717   1.649  -5.506  0.00  0.00    -0.450 OA
BRANCH  15  17
ATOM     17  C   UNL     1      -7.482   0.228  -6.567  0.00  0.00    +0.279 C 
ATOM     18  O   UNL     1      -8.069  -0.838  -6.547  0.00  0.00    -0.267 OA
ATOM     19  N   UNL     1      -7.798   1.153  -7.495  0.00  0.00    -0.306 N 
ATOM     20  H   UNL     1      -7.330   2.003  -7.511  0.00  0.00    +0.149 HD
BRANCH  19  21
ATOM     21  C   UNL     1      -8.846   0.876  -8.480  0.00  0.00    +0.136 C 
BRANCH  21  22
ATOM     22  C   UNL     1      -9.005   2.081  -9.409  0.00  0.00    +0.135 C 
ATOM     23  C   UNL     1     -10.106   1.799 -10.449  0.00  0.00    +0.035 C 
ATOM     24  C   UNL     1     -11.136   2.933 -10.228  0.00  0.00    +0.031 C 
ATOM     25  C   UNL     1     -10.285   4.008  -9.505  0.00  0.00    +0.160 C 
ATOM     26  O   UNL     1      -9.416   3.231  -8.652  0.00  0.00    -0.375 OA
ENDBRANCH  21  22
ENDBRANCH  19  21
ENDBRANCH  15  17
ENDBRANCH   3   8
BRANCH   3  27
ATOM     27  O   UNL     1      -2.173  -0.858  -1.100  0.00  0.00    -0.384 OA
ATOM     28  H   UNL     1      -2.987  -1.374  -1.023  0.00  0.00    +0.211 HD
ENDBRANCH   3  27
BRANCH   6  29
ATOM     29  C   UNL     1      -0.036   1.237   2.377  0.00  0.00    -0.030 C 
BRANCH  29  31
ATOM     30  C   UNL     1      -1.101   1.210   4.590  0.00  0.00    +0.021 C 
ATOM     31  C   UNL     1      -0.684   1.924   3.551  0.00  0.00    +0.003 C 
ATOM     32 CL   UNL     1      -0.885   3.648   3.546  0.00  0.00    -0.090 Cl
BRANCH  30  36
ATOM     33  C   UNL     1      -2.498   3.171   8.089  0.00  0.00    +0.000 A 
ATOM     34  C   UNL     1      -3.051   1.960   7.710  0.00  0.00    +0.001 A 
ATOM     35  C   UNL     1      -2.602   1.318   6.574  0.00  0.00    +0.008 A 
ATOM     36  C   UNL     1      -1.587   1.893   5.807  0.00  0.00    -0.024 A 
ATOM     37  C   UNL     1      -1.029   3.111   6.198  0.00  0.00    +0.008 A 
ATOM     38  C   UNL     1      -1.492   3.745   7.333  0.00  0.00    +0.001 A 
ENDBRANCH  30  36
ENDBRANCH  29  31
ENDBRANCH   6  29
TORSDOF 8
