REMARK  Name = ZINC36100894
REMARK  9 active torsions:
REMARK  status: ('A' for Active; 'I' for Inactive)
REMARK    1  A    between atoms: C_1  and  C_2
REMARK    2  A    between atoms: C_4  and  C_25
REMARK    3  A    between atoms: C_5  and  S_9
REMARK    4  A    between atoms: C_6  and  C_8
REMARK    5  A    between atoms: S_9  and  N_12
REMARK    6  A    between atoms: N_12  and  C_13
REMARK    7  A    between atoms: C_13  and  C_15
REMARK    8  A    between atoms: C_13  and  C_16
REMARK    9  A    between atoms: C_21  and  C_24
REMARK                            x       y       z     vdW  Elec       q    Type
REMARK                         _______ _______ _______ _____ _____    ______ ____
ROOT
ATOM      1  N   UNL     1       0.387  -5.332   0.031  0.00  0.00    -0.178 NA
ATOM      2  H   UNL     1       0.615  -5.906  -0.717  0.00  0.00    +0.149 HD
ENDROOT
BRANCH   1   3
ATOM      3  S   UNL     1      -0.961  -4.373  -0.042  0.00  0.00    +0.060 S 
ATOM      4  O   UNL     1      -1.673  -4.581   1.170  0.00  0.00    -0.153 OA
ATOM      5  O   UNL     1      -1.547  -4.592  -1.317  0.00  0.00    -0.153 OA
BRANCH   3  10
ATOM      6  C   UNL     1       0.928   1.357   0.028  0.00  0.00    +0.044 C 
ATOM      7  C   UNL     1       0.456  -0.074   0.011  0.00  0.00    -0.050 A 
ATOM      8  C   UNL     1       0.111  -0.702   1.192  0.00  0.00    +0.008 A 
ATOM      9  C   UNL     1      -0.322  -2.015   1.176  0.00  0.00    -0.024 A 
ATOM     10  C   UNL     1      -0.410  -2.699  -0.021  0.00  0.00    +0.111 A 
ATOM     11  C   UNL     1      -0.065  -2.071  -1.203  0.00  0.00    -0.024 A 
ATOM     12  C   UNL     1       0.364  -0.757  -1.188  0.00  0.00    +0.008 A 
ATOM     13  C   UNL     1      -0.160  -2.817  -2.509  0.00  0.00    +0.046 C 
ATOM     14  C   UNL     1      -0.699  -2.700   2.465  0.00  0.00    +0.046 C 
ENDBRANCH   3  10
ENDBRANCH   1   3
BRANCH   1  15
ATOM     15  C   UNL     1       1.236  -5.315   1.225  0.00  0.00    +0.159 C 
ATOM     16  C   UNL     1       0.822  -6.452   2.161  0.00  0.00    +0.035 C 
BRANCH  15  17
ATOM     17  C   UNL     1       2.676  -5.495   0.821  0.00  0.00    +0.237 C 
ATOM     18  O   UNL     1       2.965  -5.626  -0.350  0.00  0.00    -0.274 OA
ATOM     19  N   UNL     1       3.643  -5.512   1.760  0.00  0.00    -0.266 N 
ATOM     20  C   UNL     1       4.976  -5.679   1.385  0.00  0.00    +0.168 A 
ATOM     21  C   UNL     1       5.456  -5.836   0.066  0.00  0.00    +0.091 A 
ATOM     22  C   UNL     1       6.793  -5.968   0.121  0.00  0.00    +0.136 A 
ATOM     23  O   UNL     1       7.168  -5.902   1.408  0.00  0.00    -0.358 OA
ATOM     24  N   UNL     1       6.004  -5.713   2.193  0.00  0.00    -0.063 NA
ATOM     25  C   UNL     1       7.712  -6.159  -1.058  0.00  0.00    +0.089 C 
ATOM     26  H   UNL     1       3.411  -5.407   2.696  0.00  0.00    +0.156 HD
ENDBRANCH  15  17
ENDBRANCH   1  15
TORSDOF 4
