REMARK  Name = ZINC04787253
REMARK  6 active torsions:
REMARK  status: ('A' for Active; 'I' for Inactive)
REMARK    1  A    between atoms: C_1  and  C_2
REMARK    2  A    between atoms: C_6  and  C_8
REMARK    3  A    between atoms: C_10  and  C_23
REMARK    4  A    between atoms: C_11  and  C_22
REMARK    5  A    between atoms: C_23  and  O_25
REMARK    6  A    between atoms: O_25  and  C_26
REMARK                            x       y       z     vdW  Elec       q    Type
REMARK                         _______ _______ _______ _____ _____    ______ ____
ROOT
ATOM      1  C   UNL     1      -0.047   5.407  -0.064  0.00  0.00    +0.159 C 
ATOM      2  C   UNL     1      -0.641   5.977   1.195  0.00  0.00    +0.080 C 
ATOM      3  C   UNL     1      -1.890   6.462   1.264  0.00  0.00    +0.020 C 
ATOM      4  N   UNL     1      -2.728   6.488   0.179  0.00  0.00    -0.288 N 
ATOM      5  C   UNL     1      -2.171   6.252  -1.069  0.00  0.00    +0.202 A 
ATOM      6  N   UNL     1      -0.898   5.745  -1.205  0.00  0.00    -0.300 N 
ATOM      7  C   UNL     1      -0.646   5.640  -2.543  0.00  0.00    +0.071 A 
ATOM      8  C   UNL     1       0.458   5.204  -3.265  0.00  0.00    +0.028 A 
ATOM      9  C   UNL     1       0.361   5.234  -4.647  0.00  0.00    +0.002 A 
ATOM     10  C   UNL     1      -0.780   5.677  -5.292  0.00  0.00    +0.002 A 
ATOM     11  C   UNL     1      -1.893   6.117  -4.597  0.00  0.00    +0.030 A 
ATOM     12  C   UNL     1      -1.817   6.095  -3.200  0.00  0.00    +0.091 A 
ATOM     13  N   UNL     1      -2.701   6.450  -2.246  0.00  0.00    -0.214 NA
ATOM     14  C   UNL     1      -2.389   6.998   2.581  0.00  0.00    +0.061 C 
ATOM     15  H   UNL     1      -3.677   6.664   0.281  0.00  0.00    +0.155 HD
ENDROOT
BRANCH   1  21
ATOM     16  C   UNL     1       2.720   1.238  -0.004  0.00  0.00    +0.044 C 
ATOM     17  C   UNL     1       1.376   1.914   0.091  0.00  0.00    -0.050 A 
ATOM     18  C   UNL     1       0.235   1.160   0.294  0.00  0.00    +0.003 A 
ATOM     19  C   UNL     1      -0.997   1.780   0.376  0.00  0.00    +0.001 A 
ATOM     20  C   UNL     1      -1.088   3.155   0.265  0.00  0.00    +0.006 A 
ATOM     21  C   UNL     1       0.052   3.909   0.062  0.00  0.00    -0.020 A 
ATOM     22  C   UNL     1       1.285   3.288  -0.025  0.00  0.00    +0.009 A 
ENDBRANCH   1  21
BRANCH   2  23
ATOM     23  C   UNL     1       0.155   6.003   2.362  0.00  0.00    +0.339 C 
ATOM     24  O   UNL     1       0.975   6.888   2.519  0.00  0.00    -0.245 OA
BRANCH  23  25
ATOM     25  O   UNL     1       0.006   5.046   3.301  0.00  0.00    -0.458 OA
BRANCH  25  26
ATOM     26  C   UNL     1       0.845   5.134   4.455  0.00  0.00    +0.177 C 
ATOM     27  C   UNL     1       2.140   4.360   4.205  0.00  0.00    +0.044 C 
ATOM     28  C   UNL     1       3.038   4.455   5.440  0.00  0.00    +0.004 C 
ATOM     29  C   UNL     1       2.311   3.855   6.646  0.00  0.00    +0.000 C 
ATOM     30  C   UNL     1       1.015   4.628   6.896  0.00  0.00    +0.004 C 
ATOM     31  C   UNL     1       0.118   4.534   5.661  0.00  0.00    +0.044 C 
ENDBRANCH  25  26
ENDBRANCH  23  25
ENDBRANCH   2  23
TORSDOF 4
