REMARK  Name = ZINC44864778
REMARK  7 active torsions:
REMARK  status: ('A' for Active; 'I' for Inactive)
REMARK    1  A    between atoms: C_1  and  C_2
REMARK    2  A    between atoms: C_2  and  C_4
REMARK    3  A    between atoms: C_2  and  C_8
REMARK    4  A    between atoms: N_5  and  O_6
REMARK    5  A    between atoms: C_15  and  C_17
REMARK    6  A    between atoms: C_17  and  C_18
REMARK    7  A    between atoms: C_18  and  O_19
REMARK                            x       y       z     vdW  Elec       q    Type
REMARK                         _______ _______ _______ _____ _____    ______ ____
ROOT
ATOM      1  C   UNL     1       0.724  -0.783  -1.162  0.00  0.00    +0.226 C 
ATOM      2  O   UNL     1       0.029  -1.387  -1.951  0.00  0.00    -0.275 OA
ATOM      3  N   UNL     1       1.964  -0.392  -1.518  0.00  0.00    -0.298 N 
ATOM      4  C   UNL     1       2.859   0.241  -0.539  0.00  0.00    +0.108 C 
ATOM      5  C   UNL     1       4.185  -0.525  -0.516  0.00  0.00    +0.019 C 
ATOM      6  C   UNL     1       4.754  -0.595  -1.935  0.00  0.00    +0.003 C 
ATOM      7  C   UNL     1       3.777  -1.348  -2.842  0.00  0.00    +0.022 C 
ATOM      8  C   UNL     1       2.448  -0.596  -2.889  0.00  0.00    +0.078 C 
ENDROOT
BRANCH   1  10
ATOM      9  C   UNL     1      -0.330   0.966   0.246  0.00  0.00    +0.025 C 
ATOM     10  C   UNL     1       0.201  -0.468   0.216  0.00  0.00    +0.138 C 
BRANCH  10  11
ATOM     11  C   UNL     1      -0.912  -1.423   0.561  0.00  0.00    +0.143 C 
ATOM     12  N   UNL     1      -2.142  -1.084   0.354  0.00  0.00    -0.076 NA
ATOM     13  N   UNL     1      -0.620  -2.658   1.097  0.00  0.00    -0.343 N 
ATOM     14  H   UNL     1       0.303  -2.912   1.253  0.00  0.00    +0.144 HD
ATOM     15  H   UNL     1      -1.337  -3.272   1.319  0.00  0.00    +0.144 HD
BRANCH  12  16
ATOM     16  O   UNL     1      -3.188  -1.982   0.678  0.00  0.00    -0.408 OA
ATOM     17  H   UNL     1      -4.072  -1.640   0.487  0.00  0.00    +0.328 HD
ENDBRANCH  12  16
ENDBRANCH  10  11
ENDBRANCH   1  10
BRANCH   8  18
ATOM     18  C   UNL     1       1.425  -1.417  -3.678  0.00  0.00    +0.050 C 
BRANCH  18  19
ATOM     19  C   UNL     1       1.911  -1.590  -5.118  0.00  0.00    +0.157 C 
BRANCH  19  20
ATOM     20  O   UNL     1       0.901  -2.247  -5.886  0.00  0.00    -0.395 OA
ATOM     21  H   UNL     1       1.141  -2.390  -6.812  0.00  0.00    +0.209 HD
ENDBRANCH  19  20
ENDBRANCH  18  19
ENDBRANCH   8  18
TORSDOF 6
