REMARK  Name = ZINC57142871
REMARK  7 active torsions:
REMARK  status: ('A' for Active; 'I' for Inactive)
REMARK    1  A    between atoms: C_1  and  C_2
REMARK    2  A    between atoms: C_2  and  C_4
REMARK    3  A    between atoms: C_2  and  O_33
REMARK    4  A    between atoms: C_7  and  C_21
REMARK    5  A    between atoms: N_23  and  C_24
REMARK    6  A    between atoms: C_29  and  O_30
REMARK    7  A    between atoms: O_30  and  C_31
REMARK                            x       y       z     vdW  Elec       q    Type
REMARK                         _______ _______ _______ _____ _____    ______ ____
ROOT
ATOM      1  C   UNL     1      -1.406  -0.569  -0.005  0.00  0.00    +0.084 C 
ATOM      2  C   UNL     1      -1.419  -2.119   0.016  0.00  0.00    +0.036 C 
ATOM      3  C   UNL     1      -2.801  -2.414   0.661  0.00  0.00    +0.110 C 
ATOM      4  C   UNL     1      -2.957  -1.268   1.673  0.00  0.00    +0.135 C 
ATOM      5  N   UNL     1      -2.085  -0.165   1.248  0.00  0.00    -0.294 NA
ATOM      6  C   UNL     1      -4.393  -0.826   1.763  0.00  0.00    +0.005 A 
ATOM      7  C   UNL     1      -5.279  -0.301   0.848  0.00  0.00    +0.008 A 
ATOM      8  C   UNL     1      -6.569   0.014   1.236  0.00  0.00    +0.002 A 
ATOM      9  C   UNL     1      -6.967  -0.200   2.543  0.00  0.00    +0.022 A 
ATOM     10  C   UNL     1      -6.082  -0.726   3.463  0.00  0.00    +0.062 A 
ATOM     11  C   UNL     1      -4.780  -1.045   3.080  0.00  0.00    +0.057 A 
ATOM     12  N   UNL     1      -3.717  -1.576   3.814  0.00  0.00    -0.282 N 
ATOM     13  C   UNL     1      -2.611  -1.736   3.063  0.00  0.00    +0.243 C 
ATOM     14  O   UNL     1      -1.543  -2.173   3.434  0.00  0.00    -0.273 OA
ATOM     15 CL   UNL     1      -6.592  -0.990   5.102  0.00  0.00    -0.082 Cl
ATOM     16  H   UNL     1      -1.413   0.061   1.966  0.00  0.00    +0.124 HD
ATOM     17  H   UNL     1      -3.769  -1.803   4.756  0.00  0.00    +0.155 HD
ENDROOT
BRANCH   3  18
ATOM     18  C   UNL     1      -3.894  -2.369  -0.376  0.00  0.00    +0.223 C 
ATOM     19  O   UNL     1      -3.821  -1.587  -1.300  0.00  0.00    -0.275 OA
ATOM     20  N   UNL     1      -4.953  -3.196  -0.276  0.00  0.00    -0.282 N 
ATOM     21  H   UNL     1      -5.054  -3.762   0.506  0.00  0.00    +0.155 HD
BRANCH  20  22
ATOM     22  C   UNL     1      -5.907  -3.240  -1.300  0.00  0.00    +0.077 A 
ATOM     23  C   UNL     1      -5.520  -3.055  -2.620  0.00  0.00    +0.047 A 
ATOM     24  C   UNL     1      -6.465  -3.099  -3.629  0.00  0.00    +0.043 A 
ATOM     25  C   UNL     1      -7.795  -3.327  -3.327  0.00  0.00    +0.024 A 
ATOM     26  C   UNL     1      -8.187  -3.512  -2.014  0.00  0.00    +0.049 A 
ATOM     27  C   UNL     1      -7.247  -3.475  -0.998  0.00  0.00    +0.141 A 
ATOM     28 CL   UNL     1      -5.979  -2.868  -5.280  0.00  0.00    -0.083 Cl
BRANCH  27  29
ATOM     29  O   UNL     1      -7.630  -3.663   0.293  0.00  0.00    -0.493 OA
ATOM     30  C   UNL     1      -9.020  -3.899   0.529  0.00  0.00    +0.277 C 
ENDBRANCH  27  29
ENDBRANCH  20  22
ENDBRANCH   3  18
BRANCH   1  32
ATOM     31  C   UNL     1       0.022   1.481  -0.004  0.00  0.00    +0.039 C 
ATOM     32  C   UNL     1       0.032  -0.049  -0.023  0.00  0.00    +0.128 C 
BRANCH  32  33
ATOM     33  O   UNL     1       0.690  -0.506  -1.206  0.00  0.00    -0.391 OA
ATOM     34  H   UNL     1       1.608  -0.213  -1.284  0.00  0.00    +0.210 HD
ENDBRANCH  32  33
ENDBRANCH   1  32
TORSDOF 5
