REMARK  Name = ZINC40923614
REMARK  8 active torsions:
REMARK  status: ('A' for Active; 'I' for Inactive)
REMARK    1  A    between atoms: C_1  and  C_2
REMARK    2  A    between atoms: C_2  and  C_3
REMARK    3  A    between atoms: C_2  and  C_4
REMARK    4  A    between atoms: C_2  and  C_5
REMARK    5  A    between atoms: C_8  and  C_11
REMARK    6  A    between atoms: C_11  and  O_12
REMARK    7  A    between atoms: O_12  and  C_13
REMARK    8  A    between atoms: C_18  and  C_19
REMARK                            x       y       z     vdW  Elec       q    Type
REMARK                         _______ _______ _______ _____ _____    ______ ____
ROOT
ATOM      1  C   UNL     1       3.102  -1.211  -7.003  0.00  0.00    +0.127 A 
ATOM      2  C   UNL     1       3.824  -2.386  -7.159  0.00  0.00    +0.046 A 
ATOM      3  C   UNL     1       4.410  -2.678  -8.376  0.00  0.00    +0.004 A 
ATOM      4  C   UNL     1       4.276  -1.802  -9.437  0.00  0.00    +0.001 A 
ATOM      5  C   UNL     1       3.558  -0.631  -9.283  0.00  0.00    +0.009 A 
ATOM      6  C   UNL     1       2.965  -0.336  -8.070  0.00  0.00    +0.023 A 
ENDROOT
BRANCH   6   7
ATOM      7  C   UNL     1       2.177   0.937  -7.905  0.00  0.00    +0.181 C 
ATOM      8  C   UNL     1       1.018   0.940  -8.879  0.00  0.00    +0.041 C 
ATOM      9  C   UNL     1       1.006   1.724  -9.979  0.00  0.00    +0.020 C 
ATOM     10  C   UNL     1      -0.166   1.706 -10.932  0.00  0.00    +0.052 C 
ATOM     11  C   UNL     1      -0.807   0.317 -10.934  0.00  0.00    +0.014 C 
ATOM     12  C   UNL     1      -1.250  -0.013  -9.505  0.00  0.00    +0.080 C 
ATOM     13  C   UNL     1      -0.060   0.084  -8.591  0.00  0.00    +0.163 C 
ATOM     14  O   UNL     1      -0.028  -0.594  -7.583  0.00  0.00    -0.292 OA
ATOM     15  N   UNL     1       2.046   2.572 -10.278  0.00  0.00    -0.286 N 
ATOM     16  C   UNL     1       2.974   2.837  -9.285  0.00  0.00    +0.240 A 
ATOM     17  N   UNL     1       3.043   2.078  -8.162  0.00  0.00    -0.201 N 
ATOM     18  N   UNL     1       4.069   2.635  -7.402  0.00  0.00    -0.042 NA
ATOM     19  N   UNL     1       4.530   3.635  -8.082  0.00  0.00    -0.021 NA
ATOM     20  N   UNL     1       3.891   3.756  -9.188  0.00  0.00    -0.092 NA
ATOM     21  H   UNL     1       2.127   2.972 -11.157  0.00  0.00    +0.155 HD
ENDBRANCH   6   7
BRANCH   1  22
ATOM     22  O   UNL     1       2.525  -0.921  -5.807  0.00  0.00    -0.487 OA
BRANCH  22  23
ATOM     23  C   UNL     1       2.707  -1.868  -4.752  0.00  0.00    +0.264 C 
BRANCH  23  27
ATOM     24  C   UNL     1       0.707  -0.490  -1.238  0.00  0.00    -0.042 A 
ATOM     25  C   UNL     1       0.036  -1.284  -2.148  0.00  0.00    +0.004 A 
ATOM     26  C   UNL     1       0.683  -1.730  -3.286  0.00  0.00    +0.007 A 
ATOM     27  C   UNL     1       2.001  -1.381  -3.513  0.00  0.00    -0.010 A 
ATOM     28  C   UNL     1       2.672  -0.586  -2.603  0.00  0.00    +0.007 A 
ATOM     29  C   UNL     1       2.024  -0.137  -1.467  0.00  0.00    +0.004 A 
BRANCH  24  31
ATOM     30  C   UNL     1      -0.019   1.526   0.010  0.00  0.00    +0.015 C 
ATOM     31  C   UNL     1       0.002  -0.004   0.002  0.00  0.00    -0.013 C 
ATOM     32  C   UNL     1       0.742  -0.511   1.242  0.00  0.00    +0.015 C 
ATOM     33  C   UNL     1      -1.433  -0.534   0.013  0.00  0.00    +0.015 C 
ENDBRANCH  24  31
ENDBRANCH  23  27
ENDBRANCH  22  23
ENDBRANCH   1  22
TORSDOF 5
