REMARK  Name = ZINC49194428
REMARK  8 active torsions:
REMARK  status: ('A' for Active; 'I' for Inactive)
REMARK    1  A    between atoms: C_1  and  C_2
REMARK    2  A    between atoms: C_2  and  C_3
REMARK    3  A    between atoms: C_3  and  N_4
REMARK    4  A    between atoms: C_5  and  C_7
REMARK    5  A    between atoms: C_7  and  C_9
REMARK    6  A    between atoms: C_7  and  N_10
REMARK    7  A    between atoms: N_10  and  C_11
REMARK    8  A    between atoms: C_16  and  N_17
REMARK                            x       y       z     vdW  Elec       q    Type
REMARK                         _______ _______ _______ _____ _____    ______ ____
ROOT
ATOM      1  C   UNL     1       1.743  -5.873  -4.013  0.00  0.00    +0.050 A 
ATOM      2  C   UNL     1       0.808  -6.682  -3.386  0.00  0.00    +0.048 A 
ATOM      3  C   UNL     1       0.527  -7.941  -3.899  0.00  0.00    +0.038 A 
ATOM      4  C   UNL     1       1.182  -8.389  -5.039  0.00  0.00    -0.024 A 
ATOM      5  C   UNL     1       2.115  -7.584  -5.665  0.00  0.00    +0.030 A 
ATOM      6  C   UNL     1       2.395  -6.324  -5.160  0.00  0.00    +0.046 A 
ATOM      7  C   UNL     1       0.873  -9.756  -5.592  0.00  0.00    +0.046 C 
ATOM      8  C   UNL     1       0.560 -10.714  -4.442  0.00  0.00    +0.101 C 
ATOM      9  C   UNL     1      -0.438 -10.085  -3.508  0.00  0.00    +0.218 C 
ATOM     10  O   UNL     1      -1.271 -10.780  -2.964  0.00  0.00    -0.275 OA
ATOM     11  N   UNL     1      -0.417  -8.761  -3.269  0.00  0.00    -0.285 N 
ATOM     12  H   UNL     1      -1.059  -8.373  -2.655  0.00  0.00    +0.155 HD
ENDROOT
BRANCH   6  13
ATOM     13  N   UNL     1       3.337  -5.505  -5.800  0.00  0.00    -0.357 N 
ATOM     14  H   UNL     1       3.535  -4.624  -5.444  0.00  0.00    +0.142 HD
ATOM     15  H   UNL     1       3.790  -5.819  -6.598  0.00  0.00    +0.142 HD
ENDBRANCH   6  13
BRANCH   1  16
ATOM     16  N   UNL     1       2.027  -4.602  -3.498  0.00  0.00    -0.332 N 
ATOM     17  H   UNL     1       2.678  -4.035  -3.940  0.00  0.00    +0.147 HD
BRANCH  16  18
ATOM     18  C   UNL     1       1.341  -4.130  -2.293  0.00  0.00    +0.154 C 
ATOM     19  C   UNL     1       2.082  -4.636  -1.054  0.00  0.00    +0.038 C 
BRANCH  18  21
ATOM     20  N   UNL     1       0.738  -1.962  -1.265  0.00  0.00    -0.314 N 
ATOM     21  C   UNL     1       1.321  -2.623  -2.285  0.00  0.00    +0.233 C 
ATOM     22  O   UNL     1       1.829  -2.004  -3.196  0.00  0.00    -0.274 OA
ATOM     23  H   UNL     1       0.332  -2.457  -0.536  0.00  0.00    +0.149 HD
BRANCH  20  24
ATOM     24  C   UNL     1       0.718  -0.497  -1.257  0.00  0.00    +0.104 C 
BRANCH  24  26
ATOM     25  C   UNL     1      -0.019   1.526   0.010  0.00  0.00    +0.005 C 
ATOM     26  C   UNL     1       0.002  -0.004   0.002  0.00  0.00    +0.015 C 
ENDBRANCH  24  26
ENDBRANCH  20  24
ENDBRANCH  18  21
ENDBRANCH  16  18
ENDBRANCH   1  16
TORSDOF 6
