REMARK  Name = ZINC19581412
REMARK  6 active torsions:
REMARK  status: ('A' for Active; 'I' for Inactive)
REMARK    1  A    between atoms: C_1  and  C_2
REMARK    2  A    between atoms: C_3  and  C_13
REMARK    3  A    between atoms: C_13  and  C_15
REMARK    4  A    between atoms: C_13  and  O_34
REMARK    5  A    between atoms: C_15  and  N_16
REMARK    6  A    between atoms: C_23  and  O_33
REMARK                            x       y       z     vdW  Elec       q    Type
REMARK                         _______ _______ _______ _____ _____    ______ ____
ROOT
ATOM      1  N   UNL     1       0.906   0.651  -4.138  0.00  0.00    +0.382 N 
ATOM      2  C   UNL     1      -0.263   1.529  -4.276  0.00  0.00    -0.075 C 
ATOM      3  C   UNL     1      -0.610   1.689  -5.758  0.00  0.00    +0.029 C 
ATOM      4  C   UNL     1       0.591   2.280  -6.498  0.00  0.00    +0.110 C 
ATOM      5  C   UNL     1       1.810   1.379  -6.295  0.00  0.00    +0.029 C 
ATOM      6  C   UNL     1       2.084   1.228  -4.797  0.00  0.00    -0.075 C 
ATOM      7  C   UNL     1       0.272   2.377  -7.995  0.00  0.00    +0.084 C 
ATOM      8  C   UNL     1      -1.009   3.196  -8.164  0.00  0.00    +0.152 C 
ATOM      9  C   UNL     1      -0.916   4.459  -7.346  0.00  0.00    +0.024 A 
ATOM     10  C   UNL     1      -1.777   5.505  -7.636  0.00  0.00    +0.029 A 
ATOM     11  C   UNL     1      -1.728   6.673  -6.899  0.00  0.00    +0.042 A 
ATOM     12  C   UNL     1      -0.815   6.801  -5.867  0.00  0.00    +0.023 A 
ATOM     13  C   UNL     1       0.046   5.763  -5.576  0.00  0.00    +0.047 A 
ATOM     14  C   UNL     1       0.001   4.587  -6.318  0.00  0.00    +0.127 A 
ATOM     15  O   UNL     1       0.869   3.590  -6.005  0.00  0.00    -0.485 OA
ATOM     16 CL   UNL     1      -2.809   7.980  -7.270  0.00  0.00    -0.084 Cl
ATOM     17  H   UNL     1       0.673  -0.300  -4.640  0.00  0.00    -0.082 HD
ENDROOT
BRANCH   8  18
ATOM     18  O   UNL     1      -1.179   3.534  -9.543  0.00  0.00    -0.387 OA
ATOM     19  H   UNL     1      -2.050   4.125  -9.861  0.00  0.00    +0.210 HD
ENDBRANCH   8  18
BRANCH   1  20
ATOM     20  C   UNL     1       1.183   0.361  -2.724  0.00  0.00    -0.042 C 
BRANCH  20  21
ATOM     21  C   UNL     1       2.229  -0.751  -2.627  0.00  0.00    +0.130 C 
BRANCH  21  24
ATOM     22  C   UNL     1       4.785   0.112  -1.093  0.00  0.00    +0.063 C 
ATOM     23  C   UNL     1       3.634  -0.662  -0.506  0.00  0.00    +0.019 A 
ATOM     24  C   UNL     1       2.531  -1.031  -1.177  0.00  0.00    +0.007 A 
ATOM     25  C   UNL     1       1.679  -1.760  -0.235  0.00  0.00    +0.008 A 
ATOM     26  C   UNL     1       0.432  -2.380  -0.335  0.00  0.00    +0.048 A 
ATOM     27  C   UNL     1      -0.115  -2.993   0.772  0.00  0.00    +0.124 A 
ATOM     28  C   UNL     1       0.569  -2.996   1.982  0.00  0.00    +0.040 A 
ATOM     29  C   UNL     1       1.799  -2.388   2.095  0.00  0.00    +0.029 A 
ATOM     30  C   UNL     1       2.369  -1.764   0.991  0.00  0.00    +0.047 A 
ATOM     31  N   UNL     1       3.554  -1.088   0.792  0.00  0.00    -0.358 N 
ATOM     32  H   UNL     1       4.372  -0.870   1.494  0.00  0.00    +0.166 HD
ATOM     33  F   UNL     1      -1.322  -3.594   0.680  0.00  0.00    -0.205 F 
ENDBRANCH  21  24
BRANCH  21  34
ATOM     34  O   UNL     1       1.724  -1.936  -3.246  0.00  0.00    -0.389 OA
ATOM     35  H   UNL     1       1.446  -1.925  -4.310  0.00  0.00    +0.210 HD
ENDBRANCH  21  34
ENDBRANCH  20  21
ENDBRANCH   1  20
TORSDOF 5
