REMARK  Name = ZINC26477098
REMARK  13 active torsions:
REMARK  status: ('A' for Active; 'I' for Inactive)
REMARK    1  A    between atoms: C_1  and  C_2
REMARK    2  A    between atoms: C_2  and  O_3
REMARK    3  A    between atoms: O_3  and  C_4
REMARK    4  A    between atoms: C_4  and  C_6
REMARK    5  A    between atoms: C_7  and  C_26
REMARK    6  A    between atoms: C_9  and  C_25
REMARK    7  A    between atoms: C_10  and  C_21
REMARK    8  A    between atoms: C_11  and  C_13
REMARK    9  A    between atoms: C_21  and  O_23
REMARK   10  A    between atoms: O_23  and  C_24
REMARK   11  A    between atoms: C_26  and  O_27
REMARK   12  A    between atoms: O_27  and  C_28
REMARK   13  A    between atoms: C_28  and  C_29
REMARK                            x       y       z     vdW  Elec       q    Type
REMARK                         _______ _______ _______ _____ _____    ______ ____
ROOT
ATOM      1  C   UNL     1       1.571  -2.364   2.370  0.00  0.00    +0.068 C 
ATOM      2  C   UNL     1       1.489  -3.684   2.608  0.00  0.00    +0.045 C 
ATOM      3  N   UNL     1       2.023  -4.226   3.745  0.00  0.00    -0.319 N 
ATOM      4  C   UNL     1       2.322  -3.427   4.815  0.00  0.00    +0.016 C 
ATOM      5  C   UNL     1       2.438  -2.096   4.669  0.00  0.00    +0.065 C 
ATOM      6  C   UNL     1       2.260  -1.436   3.330  0.00  0.00    +0.097 C 
ATOM      7  C   UNL     1       2.523  -4.047   6.174  0.00  0.00    +0.061 C 
ATOM      8  H   UNL     1       2.190  -5.180   3.793  0.00  0.00    +0.152 HD
ENDROOT
BRANCH   6   9
ATOM      9  C   UNL     1       3.608  -1.058   2.773  0.00  0.00    -0.015 A 
ATOM     10  C   UNL     1       4.547  -2.038   2.511  0.00  0.00    +0.006 A 
ATOM     11  C   UNL     1       5.784  -1.692   2.001  0.00  0.00    +0.002 A 
ATOM     12  C   UNL     1       6.084  -0.366   1.753  0.00  0.00    +0.021 A 
ATOM     13  C   UNL     1       5.146   0.616   2.014  0.00  0.00    +0.060 A 
ATOM     14  C   UNL     1       3.904   0.269   2.520  0.00  0.00    +0.063 A 
ATOM     15 CL   UNL     1       2.723   1.499   2.842  0.00  0.00    -0.082 Cl
ATOM     16 CL   UNL     1       5.522   2.282   1.703  0.00  0.00    -0.082 Cl
ENDBRANCH   6   9
BRANCH   1  17
ATOM     17  C   UNL     1       1.001  -1.837   1.188  0.00  0.00    +0.338 C 
ATOM     18  O   UNL     1      -0.083  -1.284   1.228  0.00  0.00    -0.245 OA
BRANCH  17  19
ATOM     19  O   UNL     1       1.658  -1.948   0.014  0.00  0.00    -0.462 OA
BRANCH  19  21
ATOM     20  C   UNL     1       1.911  -1.615  -2.366  0.00  0.00    +0.048 C 
ATOM     21  C   UNL     1       1.023  -1.394  -1.140  0.00  0.00    +0.229 C 
ENDBRANCH  19  21
ENDBRANCH  17  19
ENDBRANCH   1  17
BRANCH   5  22
ATOM     22  C   UNL     1       2.739  -1.300   5.799  0.00  0.00    +0.337 C 
ATOM     23  O   UNL     1       2.890  -1.821   6.888  0.00  0.00    -0.245 OA
BRANCH  22  24
ATOM     24  O   UNL     1       2.859   0.038   5.669  0.00  0.00    -0.465 OA
ATOM     25  C   UNL     1       3.164   0.780   6.851  0.00  0.00    +0.280 C 
ENDBRANCH  22  24
ENDBRANCH   5  22
BRANCH   2  26
ATOM     26  C   UNL     1       0.801  -4.579   1.609  0.00  0.00    +0.211 C 
BRANCH  26  27
ATOM     27  O   UNL     1       1.756  -5.474   1.034  0.00  0.00    -0.368 OA
BRANCH  27  28
ATOM     28  C   UNL     1       1.204  -6.371   0.069  0.00  0.00    +0.215 C 
BRANCH  28  29
ATOM     29  C   UNL     1       2.293  -7.263  -0.469  0.00  0.00    +0.076 A 
ATOM     30  C   UNL     1       2.251  -8.607  -0.236  0.00  0.00    +0.095 A 
ATOM     31  C   UNL     1       3.279  -9.418  -0.748  0.00  0.00    +0.253 A 
ATOM     32  N   UNL     1       4.273  -8.838  -1.453  0.00  0.00    -0.295 N 
ATOM     33  C   UNL     1       4.263  -7.492  -1.653  0.00  0.00    +0.193 A 
ATOM     34  N   UNL     1       3.293  -6.739  -1.175  0.00  0.00    -0.219 NA
ATOM     35  N   UNL     1       5.275  -6.912  -2.369  0.00  0.00    -0.329 N 
ATOM     36  O   UNL     1       3.272 -10.624  -0.558  0.00  0.00    -0.268 OA
ATOM     37  H   UNL     1       5.991  -7.458  -2.728  0.00  0.00    +0.145 HD
ATOM     38  H   UNL     1       5.276  -5.953  -2.517  0.00  0.00    +0.145 HD
ATOM     39  H   UNL     1       4.992  -9.379  -1.815  0.00  0.00    +0.172 HD
ENDBRANCH  28  29
ENDBRANCH  27  28
ENDBRANCH  26  27
ENDBRANCH   2  26
TORSDOF 10
