REMARK  Name = ZINC63151989
REMARK  5 active torsions:
REMARK  status: ('A' for Active; 'I' for Inactive)
REMARK    1  A    between atoms: C_3  and  N_17
REMARK    2  A    between atoms: C_5  and  C_8
REMARK    3  A    between atoms: N_10  and  C_11
REMARK    4  A    between atoms: C_11  and  C_12
REMARK    5  A    between atoms: N_17  and  N_18
REMARK                            x       y       z     vdW  Elec       q    Type
REMARK                         _______ _______ _______ _____ _____    ______ ____
ROOT
ATOM      1  C   UNL     1      -0.017   1.385   0.010  0.00  0.00    +0.026 A 
ATOM      2  C   UNL     1       1.188   2.063   0.002  0.00  0.00    +0.046 A 
ATOM      3  C   UNL     1       2.380   1.337  -0.013  0.00  0.00    +0.133 A 
ATOM      4  N   UNL     1       2.366   0.017  -0.020  0.00  0.00    -0.225 NA
ATOM      5  C   UNL     1       1.227  -0.667  -0.013  0.00  0.00    +0.146 A 
ATOM      6  C   UNL     1       0.002  -0.004   0.002  0.00  0.00    +0.072 A 
ATOM      7 CL   UNL     1      -1.483  -0.903   0.012  0.00  0.00    -0.081 Cl
ENDROOT
BRANCH   5   8
ATOM      8  C   UNL     1       1.260  -2.147  -0.021  0.00  0.00    +0.264 C 
ATOM      9  O   UNL     1       0.221  -2.778  -0.015  0.00  0.00    -0.268 OA
ATOM     10  N   UNL     1       2.442  -2.795  -0.036  0.00  0.00    -0.306 N 
ATOM     11  H   UNL     1       3.271  -2.291  -0.042  0.00  0.00    +0.149 HD
BRANCH  10  12
ATOM     12  C   UNL     1       2.475  -4.259  -0.044  0.00  0.00    +0.140 C 
BRANCH  12  13
ATOM     13  C   UNL     1       3.906  -4.729  -0.061  0.00  0.00    -0.023 A 
ATOM     14  C   UNL     1       4.563  -4.937  -1.259  0.00  0.00    +0.013 A 
ATOM     15  C   UNL     1       5.850  -5.360  -1.238  0.00  0.00    +0.045 A 
ATOM     16  S   UNL     1       6.172  -5.478   0.513  0.00  0.00    -0.105 S 
ATOM     17  C   UNL     1       4.571  -4.950   1.100  0.00  0.00    +0.050 A 
ENDBRANCH  12  13
ENDBRANCH  10  12
ENDBRANCH   5   8
BRANCH   3  18
ATOM     18  N   UNL     1       3.595   2.013  -0.022  0.00  0.00    -0.268 N 
ATOM     19  H   UNL     1       3.611   2.982  -0.017  0.00  0.00    +0.167 HD
BRANCH  18  20
ATOM     20  N   UNL     1       4.766   1.310  -0.037  0.00  0.00    -0.255 NA
ATOM     21  H   UNL     1       4.798   0.677  -0.822  0.00  0.00    +0.140 HD
ATOM     22  H   UNL     1       5.561   1.932  -0.042  0.00  0.00    +0.140 HD
ENDBRANCH  18  20
ENDBRANCH   3  18
TORSDOF 5
