REMARK  Name = ZINC36906050
REMARK  5 active torsions:
REMARK  status: ('A' for Active; 'I' for Inactive)
REMARK    1  A    between atoms: C_1  and  C_2
REMARK    2  A    between atoms: C_2  and  N_3
REMARK    3  A    between atoms: N_3  and  C_4
REMARK    4  A    between atoms: C_13  and  C_15
REMARK    5  A    between atoms: C_15  and  C_17
REMARK                            x       y       z     vdW  Elec       q    Type
REMARK                         _______ _______ _______ _____ _____    ______ ____
ROOT
ATOM      1  N   UNL     1       0.711  -0.489   1.189  0.00  0.00    -0.283 N 
ATOM      2  C   UNL     1       2.042  -0.696   1.142  0.00  0.00    +0.309 C 
ATOM      3  O   UNL     1       2.630  -1.098   2.126  0.00  0.00    -0.252 OA
ATOM      4  N   UNL     1       2.721  -0.456   0.003  0.00  0.00    -0.239 N 
ATOM      5  C   UNL     1       4.052  -0.662  -0.045  0.00  0.00    +0.238 C 
ATOM      6  O   UNL     1       4.638  -1.063   0.938  0.00  0.00    -0.274 OA
ATOM      7  H   UNL     1       2.252  -0.134  -0.783  0.00  0.00    +0.159 HD
ENDROOT
BRANCH   1   8
ATOM      8  C   UNL     1      -0.028  -0.750   2.427  0.00  0.00    +0.078 C 
ATOM      9  C   UNL     1       0.524   0.136   3.546  0.00  0.00    +0.022 C 
ATOM     10  C   UNL     1      -0.247  -0.137   4.839  0.00  0.00    +0.002 C 
ATOM     11  C   UNL     1      -0.087  -1.608   5.228  0.00  0.00    +0.000 C 
ATOM     12  C   UNL     1      -0.639  -2.494   4.109  0.00  0.00    +0.002 C 
ATOM     13  C   UNL     1       0.132  -2.221   2.816  0.00  0.00    +0.022 C 
ENDBRANCH   1   8
BRANCH   5  14
ATOM     14  C   UNL     1       4.811  -0.393  -1.318  0.00  0.00    +0.163 C 
ATOM     15  C   UNL     1       5.775  -1.550  -1.591  0.00  0.00    +0.034 C 
ATOM     16 CL   UNL     1       5.745   1.140  -1.149  0.00  0.00    -0.112 Cl
ENDBRANCH   5  14
BRANCH   1  18
ATOM     17  C   UNL     1      -0.019   1.526   0.010  0.00  0.00    +0.024 C 
ATOM     18  C   UNL     1       0.002  -0.004   0.002  0.00  0.00    +0.106 C 
ENDBRANCH   1  18
TORSDOF 3
