REMARK  Name = ZINC08728639
REMARK  11 active torsions:
REMARK  status: ('A' for Active; 'I' for Inactive)
REMARK    1  A    between atoms: C_1  and  C_2
REMARK    2  A    between atoms: C_2  and  O_3
REMARK    3  A    between atoms: O_3  and  C_4
REMARK    4  A    between atoms: C_7  and  N_10
REMARK    5  A    between atoms: N_10  and  C_11
REMARK    6  A    between atoms: C_11  and  C_13
REMARK    7  A    between atoms: C_11  and  C_14
REMARK    8  A    between atoms: C_14  and  C_16
REMARK    9  A    between atoms: C_17  and  N_26
REMARK   10  A    between atoms: N_18  and  C_25
REMARK   11  A    between atoms: N_21  and  C_24
REMARK                            x       y       z     vdW  Elec       q    Type
REMARK                         _______ _______ _______ _____ _____    ______ ____
ROOT
ATOM      1  C   UNL     1       1.242  -1.947   0.843  0.00  0.00    +0.191 C 
ATOM      2  O   UNL     1       0.240  -2.631   0.781  0.00  0.00    -0.290 OA
ENDROOT
BRANCH   1   3
ATOM      3  C   UNL     1       1.206  -0.603   0.413  0.00  0.00    +0.122 A 
ATOM      4  C   UNL     1       0.051  -0.061  -0.177  0.00  0.00    +0.116 A 
ATOM      5  N   UNL     1       0.065   1.245  -0.576  0.00  0.00    -0.284 N 
ATOM      6  C   UNL     1       1.154   2.013  -0.416  0.00  0.00    +0.333 A 
ATOM      7  O   UNL     1       1.116   3.169  -0.788  0.00  0.00    -0.246 OA
ATOM      8  N   UNL     1       2.285   1.550   0.141  0.00  0.00    -0.263 N 
ATOM      9  C   UNL     1       2.374   0.274   0.569  0.00  0.00    +0.269 A 
ATOM     10  O   UNL     1       3.401  -0.143   1.073  0.00  0.00    -0.267 OA
ATOM     11  C   UNL     1       3.438   2.443   0.286  0.00  0.00    +0.157 C 
ATOM     12  C   UNL     1      -1.131   1.818  -1.198  0.00  0.00    +0.155 C 
BRANCH   4  13
ATOM     13  N   UNL     1      -1.062  -0.824  -0.347  0.00  0.00    -0.344 N 
ATOM     14  H   UNL     1      -1.935  -0.404  -0.397  0.00  0.00    +0.144 HD
ATOM     15  H   UNL     1      -0.982  -1.788  -0.419  0.00  0.00    +0.144 HD
ENDBRANCH   4  13
ENDBRANCH   1   3
BRANCH   1  16
ATOM     16  C   UNL     1       2.523  -2.533   1.378  0.00  0.00    +0.139 C 
ATOM     17  C   UNL     1       2.711  -2.103   2.834  0.00  0.00    +0.036 C 
BRANCH  16  18
ATOM     18  N   UNL     1       2.459  -3.995   1.305  0.00  0.00    -0.334 N 
ATOM     19  H   UNL     1       1.598  -4.443   1.307  0.00  0.00    +0.147 HD
BRANCH  18  23
ATOM     20  C   UNL     1       5.972  -6.227   1.092  0.00  0.00    +0.121 A 
ATOM     21  C   UNL     1       4.742  -6.869   1.094  0.00  0.00    +0.047 A 
ATOM     22  C   UNL     1       3.578  -6.130   1.164  0.00  0.00    +0.026 A 
ATOM     23  C   UNL     1       3.638  -4.745   1.233  0.00  0.00    +0.028 A 
ATOM     24  C   UNL     1       4.870  -4.103   1.225  0.00  0.00    +0.026 A 
ATOM     25  C   UNL     1       6.033  -4.843   1.161  0.00  0.00    +0.047 A 
BRANCH  20  26
ATOM     26  O   UNL     1       7.119  -6.956   1.022  0.00  0.00    -0.492 OA
BRANCH  26  28
ATOM     27  C   UNL     1       9.521  -7.211   0.941  0.00  0.00    +0.048 C 
ATOM     28  C   UNL     1       8.350  -6.230   1.025  0.00  0.00    +0.225 C 
ENDBRANCH  26  28
ENDBRANCH  20  26
ENDBRANCH  18  23
ENDBRANCH  16  18
ENDBRANCH   1  16
TORSDOF 7
