REMARK  Name = ZINC54479372
REMARK  11 active torsions:
REMARK  status: ('A' for Active; 'I' for Inactive)
REMARK    1  A    between atoms: C_1  and  C_2
REMARK    2  A    between atoms: C_2  and  C_3
REMARK    3  A    between atoms: C_3  and  C_5
REMARK    4  A    between atoms: C_3  and  N_6
REMARK    5  A    between atoms: C_7  and  C_9
REMARK    6  A    between atoms: C_12  and  N_15
REMARK    7  A    between atoms: N_18  and  C_19
REMARK    8  A    between atoms: C_19  and  C_20
REMARK    9  A    between atoms: C_25  and  N_26
REMARK   10  A    between atoms: N_26  and  C_27
REMARK   11  A    between atoms: N_26  and  C_28
REMARK                            x       y       z     vdW  Elec       q    Type
REMARK                         _______ _______ _______ _____ _____    ______ ____
ROOT
ATOM      1  N   UNL     1      -2.392   1.813  -8.096  0.00  0.00    -0.269 N 
ATOM      2  C   UNL     1      -1.784   1.912  -9.294  0.00  0.00    +0.304 C 
ATOM      3  O   UNL     1      -0.609   1.619  -9.406  0.00  0.00    -0.252 OA
ATOM      4  N   UNL     1      -2.477   2.337 -10.369  0.00  0.00    -0.295 N 
ATOM      5  H   UNL     1      -3.344   1.981  -8.020  0.00  0.00    +0.156 HD
ATOM      6  H   UNL     1      -3.414   2.571 -10.280  0.00  0.00    +0.151 HD
ENDROOT
BRANCH   1  10
ATOM      7  C   UNL     1      -0.182   0.785  -4.718  0.00  0.00    +0.037 A 
ATOM      8  C   UNL     1       0.131   0.221  -5.958  0.00  0.00    +0.015 A 
ATOM      9  C   UNL     1      -0.602   0.563  -7.072  0.00  0.00    +0.024 A 
ATOM     10  C   UNL     1      -1.652   1.469  -6.965  0.00  0.00    +0.035 A 
ATOM     11  C   UNL     1      -1.966   2.032  -5.732  0.00  0.00    +0.024 A 
ATOM     12  C   UNL     1      -1.242   1.690  -4.613  0.00  0.00    +0.015 A 
BRANCH   7  14
ATOM     13  N   UNL     1       1.622  -0.453  -3.624  0.00  0.00    -0.309 N 
ATOM     14  C   UNL     1       0.600   0.420  -3.521  0.00  0.00    +0.244 C 
ATOM     15  O   UNL     1       0.324   0.907  -2.442  0.00  0.00    -0.270 OA
ATOM     16  H   UNL     1       1.843  -0.842  -4.484  0.00  0.00    +0.149 HD
BRANCH  13  17
ATOM     17  C   UNL     1       2.398  -0.815  -2.436  0.00  0.00    +0.070 C 
ATOM     18  C   UNL     1       3.501   0.222  -2.211  0.00  0.00    +0.028 C 
BRANCH  17  20
ATOM     19  C   UNL     1       1.927  -3.250  -2.739  0.00  0.00    +0.005 C 
ATOM     20  C   UNL     1       3.030  -2.194  -2.639  0.00  0.00    +0.018 C 
ENDBRANCH  17  20
ENDBRANCH  13  17
ENDBRANCH   7  14
ENDBRANCH   1  10
BRANCH   4  21
ATOM     21  C   UNL     1      -1.816   2.445 -11.672  0.00  0.00    +0.144 C 
BRANCH  21  22
ATOM     22  C   UNL     1      -2.804   2.938 -12.697  0.00  0.00    +0.008 A 
ATOM     23  C   UNL     1      -3.405   2.053 -13.574  0.00  0.00    +0.010 A 
ATOM     24  C   UNL     1      -4.309   2.551 -14.503  0.00  0.00    +0.018 A 
ATOM     25  C   UNL     1      -4.580   3.905 -14.523  0.00  0.00    +0.084 A 
ATOM     26  N   UNL     1      -3.992   4.726 -13.675  0.00  0.00    -0.349 N 
ATOM     27  C   UNL     1      -3.129   4.288 -12.771  0.00  0.00    +0.103 A 
ATOM     28  H   UNL     1      -4.200   5.673 -13.711  0.00  0.00    +0.167 HD
BRANCH  27  29
ATOM     29  N   UNL     1      -2.537   5.188 -11.891  0.00  0.00    -0.323 N 
ATOM     30  C   UNL     1      -1.230   5.770 -12.208  0.00  0.00    +0.130 C 
ATOM     31  C   UNL     1      -3.220   5.554 -10.648  0.00  0.00    +0.130 C 
ENDBRANCH  27  29
ENDBRANCH  21  22
ENDBRANCH   4  21
TORSDOF 7
