REMARK  Name = ZINC51173212
REMARK  7 active torsions:
REMARK  status: ('A' for Active; 'I' for Inactive)
REMARK    1  A    between atoms: C_1  and  C_2
REMARK    2  A    between atoms: C_2  and  C_3
REMARK    3  A    between atoms: C_3  and  C_4
REMARK    4  A    between atoms: C_3  and  C_5
REMARK    5  A    between atoms: C_3  and  N_9
REMARK    6  A    between atoms: N_6  and  O_7
REMARK    7  A    between atoms: C_10  and  C_12
REMARK                            x       y       z     vdW  Elec       q    Type
REMARK                         _______ _______ _______ _____ _____    ______ ____
ROOT
ATOM      1  C   UNL     1      -1.395  -0.634  -0.054  0.00  0.00    +0.090 C 
ATOM      2  C   UNL     1      -1.116  -2.131   0.096  0.00  0.00    +0.040 C 
ENDROOT
BRANCH   1   3
ATOM      3  C   UNL     1      -2.205  -0.153   1.122  0.00  0.00    +0.155 C 
ATOM      4  N   UNL     1      -2.504  -0.969   2.077  0.00  0.00    -0.075 NA
ATOM      5  N   UNL     1      -2.628   1.157   1.177  0.00  0.00    -0.342 N 
ATOM      6  H   UNL     1      -2.342   1.788   0.499  0.00  0.00    +0.144 HD
ATOM      7  H   UNL     1      -3.212   1.448   1.895  0.00  0.00    +0.144 HD
BRANCH   4   8
ATOM      8  O   UNL     1      -3.266  -0.518   3.182  0.00  0.00    -0.408 OA
ATOM      9  H   UNL     1      -3.439  -1.199   3.846  0.00  0.00    +0.328 HD
ENDBRANCH   4   8
ENDBRANCH   1   3
BRANCH   1  10
ATOM     10  N   UNL     1      -2.143  -0.398  -1.292  0.00  0.00    -0.299 N 
ATOM     11  C   UNL     1      -1.610  -0.751  -2.478  0.00  0.00    +0.251 C 
ATOM     12  O   UNL     1      -0.507  -1.266  -2.522  0.00  0.00    -0.270 OA
ATOM     13  H   UNL     1      -3.021   0.011  -1.257  0.00  0.00    +0.150 HD
BRANCH  11  14
ATOM     14  C   UNL     1      -2.357  -0.516  -3.716  0.00  0.00    +0.075 A 
ATOM     15  C   UNL     1      -1.997  -0.806  -5.023  0.00  0.00    +0.022 A 
ATOM     16  C   UNL     1      -2.916  -0.465  -5.986  0.00  0.00    +0.028 A 
ATOM     17  C   UNL     1      -4.083   0.116  -5.606  0.00  0.00    +0.079 A 
ATOM     18  S   UNL     1      -3.971   0.211  -3.933  0.00  0.00    -0.072 S 
ATOM     19 CL   UNL     1      -5.394   0.637  -6.619  0.00  0.00    -0.076 Cl
ENDBRANCH  11  14
ENDBRANCH   1  10
BRANCH   1  21
ATOM     20  C   UNL     1       0.652  -0.011   1.235  0.00  0.00    +0.006 C 
ATOM     21  C   UNL     1      -0.070   0.129  -0.106  0.00  0.00    +0.030 C 
ENDBRANCH   1  21
TORSDOF 5
