REMARK  Name = ZINC35523106
REMARK  7 active torsions:
REMARK  status: ('A' for Active; 'I' for Inactive)
REMARK    1  A    between atoms: C_1  and  C_2
REMARK    2  A    between atoms: C_5  and  C_8
REMARK    3  A    between atoms: N_17  and  C_18
REMARK    4  A    between atoms: C_18  and  C_19
REMARK    5  A    between atoms: N_21  and  C_22
REMARK    6  A    between atoms: C_22  and  C_23
REMARK    7  A    between atoms: C_22  and  C_29
REMARK                            x       y       z     vdW  Elec       q    Type
REMARK                         _______ _______ _______ _____ _____    ______ ____
ROOT
ATOM      1  C   UNL     1       2.343  -4.441   0.702  0.00  0.00    +0.020 C 
ENDROOT
BRANCH   1  10
ATOM      2  C   UNL     1       0.059  -4.275  -0.021  0.00  0.00    +0.011 C 
ATOM      3  C   UNL     1      -1.329  -4.804   0.245  0.00  0.00    +0.009 A 
ATOM      4  C   UNL     1      -2.492  -4.383  -0.271  0.00  0.00    +0.021 A 
ATOM      5  C   UNL     1      -3.513  -5.184   0.284  0.00  0.00    +0.019 A 
ATOM      6  C   UNL     1      -2.926  -6.067   1.120  0.00  0.00    +0.086 A 
ATOM      7  N   UNL     1      -1.588  -5.843   1.100  0.00  0.00    -0.353 N 
ATOM      8  C   UNL     1      -0.536  -6.555   1.837  0.00  0.00    +0.103 C 
ATOM      9  C   UNL     1       0.810  -6.222   1.183  0.00  0.00    -0.055 C 
ATOM     10  N   UNL     1       0.951  -4.767   1.043  0.00  0.00    +0.395 N 
ATOM     11  H   UNL     1       0.709  -4.322   1.915  0.00  0.00    -0.080 HD
BRANCH   2  16
ATOM     12  C   UNL     1      -0.018   1.503   0.010  0.00  0.00    +0.044 C 
ATOM     13  C   UNL     1       0.002  -0.004   0.002  0.00  0.00    -0.050 A 
ATOM     14  C   UNL     1       0.006  -0.689  -1.199  0.00  0.00    +0.003 A 
ATOM     15  C   UNL     1       0.025  -2.071  -1.206  0.00  0.00    +0.002 A 
ATOM     16  C   UNL     1       0.040  -2.768  -0.013  0.00  0.00    -0.055 A 
ATOM     17  C   UNL     1       0.037  -2.084   1.188  0.00  0.00    +0.002 A 
ATOM     18  C   UNL     1       0.023  -0.702   1.195  0.00  0.00    +0.003 A 
ENDBRANCH   2  16
ENDBRANCH   1  10
BRANCH   1  19
ATOM     19  C   UNL     1       3.244  -4.833   1.844  0.00  0.00    +0.197 C 
ATOM     20  O   UNL     1       2.774  -5.334   2.844  0.00  0.00    -0.278 OA
ATOM     21  N   UNL     1       4.573  -4.626   1.755  0.00  0.00    -0.306 N 
ATOM     22  H   UNL     1       4.949  -4.226   0.956  0.00  0.00    +0.150 HD
BRANCH  21  23
ATOM     23  C   UNL     1       5.450  -5.007   2.866  0.00  0.00    +0.133 C 
BRANCH  23  24
ATOM     24  C   UNL     1       6.840  -5.262   2.343  0.00  0.00    -0.023 A 
ATOM     25  C   UNL     1       7.375  -4.438   1.371  0.00  0.00    +0.006 A 
ATOM     26  C   UNL     1       8.651  -4.671   0.892  0.00  0.00    +0.000 A 
ATOM     27  C   UNL     1       9.391  -5.729   1.386  0.00  0.00    +0.000 A 
ATOM     28  C   UNL     1       8.856  -6.553   2.358  0.00  0.00    +0.000 A 
ATOM     29  C   UNL     1       7.582  -6.317   2.841  0.00  0.00    +0.006 A 
ENDBRANCH  23  24
BRANCH  23  30
ATOM     30  C   UNL     1       5.490  -3.892   3.878  0.00  0.00    -0.023 A 
ATOM     31  C   UNL     1       5.530  -2.576   3.457  0.00  0.00    +0.006 A 
ATOM     32  C   UNL     1       5.567  -1.553   4.386  0.00  0.00    +0.000 A 
ATOM     33  C   UNL     1       5.564  -1.846   5.737  0.00  0.00    +0.000 A 
ATOM     34  C   UNL     1       5.523  -3.162   6.159  0.00  0.00    +0.000 A 
ATOM     35  C   UNL     1       5.482  -4.184   5.229  0.00  0.00    +0.006 A 
ENDBRANCH  23  30
ENDBRANCH  21  23
ENDBRANCH   1  19
TORSDOF 6
