REMARK  Name = ZINC02857485
REMARK  8 active torsions:
REMARK  status: ('A' for Active; 'I' for Inactive)
REMARK    1  A    between atoms: C_1  and  C_2
REMARK    2  A    between atoms: C_3  and  N_9
REMARK    3  A    between atoms: N_9  and  C_10
REMARK    4  A    between atoms: C_10  and  N_12
REMARK    5  A    between atoms: N_12  and  N_13
REMARK    6  A    between atoms: N_13  and  S_14
REMARK    7  A    between atoms: S_14  and  C_17
REMARK    8  A    between atoms: C_20  and  N_23
REMARK                            x       y       z     vdW  Elec       q    Type
REMARK                         _______ _______ _______ _____ _____    ______ ____
ROOT
ATOM      1  N   UNL     1       0.181   0.030  -4.739  0.00  0.00    -0.243 N 
ATOM      2  H   UNL     1       0.257  -0.448  -5.580  0.00  0.00    +0.170 HD
ENDROOT
BRANCH   1   3
ATOM      3  C   UNL     1       0.095  -0.653  -3.581  0.00  0.00    +0.150 C 
ATOM      4  S   UNL     1       0.120  -2.365  -3.593  0.00  0.00    -0.017 S 
BRANCH   3   5
ATOM      5  N   UNL     1      -0.010   0.011  -2.413  0.00  0.00    -0.296 N 
ATOM      6  H   UNL     1      -0.104   0.976  -2.411  0.00  0.00    +0.154 HD
BRANCH   5   9
ATOM      7  C   UNL     1      -1.912   0.706  -0.414  0.00  0.00    +0.047 C 
ATOM      8  C   UNL     1      -0.895  -0.385  -0.201  0.00  0.00    -0.011 A 
ATOM      9  C   UNL     1       0.016  -0.692  -1.204  0.00  0.00    +0.037 A 
ATOM     10  C   UNL     1       0.952  -1.698  -1.004  0.00  0.00    +0.023 A 
ATOM     11  C   UNL     1       0.975  -2.391   0.191  0.00  0.00    +0.003 A 
ATOM     12  C   UNL     1       0.068  -2.084   1.188  0.00  0.00    +0.020 A 
ATOM     13  C   UNL     1      -0.863  -1.078   0.994  0.00  0.00    +0.046 A 
ATOM     14 CL   UNL     1      -1.996  -0.691   2.252  0.00  0.00    -0.083 Cl
ENDBRANCH   5   9
ENDBRANCH   3   5
ENDBRANCH   1   3
BRANCH   1  15
ATOM     15  N   UNL     1       0.161   1.431  -4.730  0.00  0.00    -0.109 NA
ATOM     16  H   UNL     1      -0.571   1.902  -4.303  0.00  0.00    +0.172 HD
BRANCH  15  17
ATOM     17  S   UNL     1       1.387   2.281  -5.447  0.00  0.00    +0.074 S 
ATOM     18  O   UNL     1       1.013   3.651  -5.399  0.00  0.00    -0.152 OA
ATOM     19  O   UNL     1       2.599   1.802  -4.881  0.00  0.00    -0.152 OA
BRANCH  17  20
ATOM     20  C   UNL     1       1.411   1.825  -7.149  0.00  0.00    +0.107 A 
ATOM     21  C   UNL     1       2.179   0.754  -7.567  0.00  0.00    +0.031 A 
ATOM     22  C   UNL     1       2.198   0.396  -8.902  0.00  0.00    +0.034 A 
ATOM     23  C   UNL     1       1.449   1.109  -9.819  0.00  0.00    +0.126 A 
ATOM     24  C   UNL     1       0.681   2.180  -9.401  0.00  0.00    +0.034 A 
ATOM     25  C   UNL     1       0.658   2.535  -8.066  0.00  0.00    +0.031 A 
BRANCH  23  26
ATOM     26  N   UNL     1       1.470   0.726 -11.249  0.00  0.00    +0.056 N 
ATOM     27  O   UNL     1       2.142  -0.210 -11.614  0.00  0.00    -0.126 OA
ATOM     28  O   UNL     1       0.815   1.350 -12.051  0.00  0.00    -0.126 OA
ENDBRANCH  23  26
ENDBRANCH  17  20
ENDBRANCH  15  17
ENDBRANCH   1  15
TORSDOF 7
