REMARK  Name = ZINC55258531
REMARK  11 active torsions:
REMARK  status: ('A' for Active; 'I' for Inactive)
REMARK    1  A    between atoms: C_1  and  C_2
REMARK    2  A    between atoms: C_2  and  C_4
REMARK    3  A    between atoms: C_2  and  N_14
REMARK    4  A    between atoms: C_8  and  O_10
REMARK    5  A    between atoms: O_10  and  C_11
REMARK    6  A    between atoms: C_11  and  C_12
REMARK    7  A    between atoms: C_11  and  C_13
REMARK    8  A    between atoms: C_15  and  C_17
REMARK    9  A    between atoms: C_19  and  N_24
REMARK   10  A    between atoms: C_22  and  O_23
REMARK   11  A    between atoms: C_25  and  C_27
REMARK                            x       y       z     vdW  Elec       q    Type
REMARK                         _______ _______ _______ _____ _____    ______ ____
ROOT
ATOM      1  N   UNL     1       1.074   1.118  -2.049  0.00  0.00    -0.305 N 
ATOM      2  C   UNL     1       0.309   0.952  -0.952  0.00  0.00    +0.248 C 
ATOM      3  O   UNL     1      -0.899   1.061  -1.032  0.00  0.00    -0.270 OA
ATOM      4  H   UNL     1       2.038   1.031  -1.986  0.00  0.00    +0.150 HD
ENDROOT
BRANCH   2   5
ATOM      5  C   UNL     1       0.938   0.639   0.345  0.00  0.00    +0.080 A 
ATOM      6  C   UNL     1       2.326   0.519   0.442  0.00  0.00    +0.040 A 
ATOM      7  C   UNL     1       2.909   0.225   1.662  0.00  0.00    +0.034 A 
ATOM      8  C   UNL     1       2.115   0.050   2.791  0.00  0.00    +0.027 A 
ATOM      9  C   UNL     1       0.743   0.166   2.703  0.00  0.00    +0.048 A 
ATOM     10  C   UNL     1       0.145   0.467   1.488  0.00  0.00    +0.129 A 
BRANCH   7  11
ATOM     11  N   UNL     1       4.301   0.104   1.760  0.00  0.00    -0.286 N 
ATOM     12  C   UNL     1       4.933   0.483   2.889  0.00  0.00    +0.214 C 
ATOM     13  O   UNL     1       4.309   1.012   3.785  0.00  0.00    -0.276 OA
ATOM     14  C   UNL     1       6.413   0.248   3.040  0.00  0.00    +0.109 C 
ATOM     15  H   UNL     1       4.811  -0.252   1.016  0.00  0.00    +0.155 HD
ENDBRANCH   7  11
BRANCH  10  16
ATOM     16  O   UNL     1      -1.204   0.587   1.405  0.00  0.00    -0.506 OA
ATOM     17  H   UNL     1      -1.661  -0.241   1.205  0.00  0.00    +0.292 HD
ENDBRANCH  10  16
ENDBRANCH   2   5
BRANCH   1  19
ATOM     18  C   UNL     1       0.226   2.938  -3.445  0.00  0.00    +0.033 C 
ATOM     19  C   UNL     1       0.450   1.429  -3.337  0.00  0.00    +0.101 C 
BRANCH  19  20
ATOM     20  C   UNL     1       1.351   0.973  -4.456  0.00  0.00    -0.024 A 
ATOM     21  C   UNL     1       2.720   1.143  -4.352  0.00  0.00    +0.006 A 
ATOM     22  C   UNL     1       3.550   0.727  -5.376  0.00  0.00    +0.004 A 
ATOM     23  C   UNL     1       3.014   0.140  -6.506  0.00  0.00    +0.045 A 
ATOM     24  C   UNL     1       1.641  -0.032  -6.613  0.00  0.00    +0.121 A 
ATOM     25  C   UNL     1       0.811   0.382  -5.581  0.00  0.00    +0.051 A 
BRANCH  24  26
ATOM     26  O   UNL     1       1.112  -0.609  -7.723  0.00  0.00    -0.489 OA
BRANCH  26  27
ATOM     27  C   UNL     1      -0.294  -0.865  -7.713  0.00  0.00    +0.167 C 
ATOM     28  C   UNL     1      -1.046   0.394  -8.150  0.00  0.00    +0.051 C 
ATOM     29  C   UNL     1      -0.611  -2.010  -8.678  0.00  0.00    +0.051 C 
ENDBRANCH  26  27
ENDBRANCH  24  26
ENDBRANCH  19  20
ENDBRANCH   1  19
TORSDOF 7
