REMARK  Name = ZINC15645563
REMARK  10 active torsions:
REMARK  status: ('A' for Active; 'I' for Inactive)
REMARK    1  A    between atoms: C_1  and  C_2
REMARK    2  A    between atoms: C_2  and  C_4
REMARK    3  A    between atoms: C_2  and  O_14
REMARK    4  A    between atoms: N_9  and  C_10
REMARK    5  A    between atoms: C_10  and  C_11
REMARK    6  A    between atoms: C_10  and  C_12
REMARK    7  A    between atoms: C_10  and  C_13
REMARK    8  A    between atoms: O_14  and  C_15
REMARK    9  A    between atoms: C_15  and  C_17
REMARK   10  A    between atoms: C_19  and  C_27
REMARK                            x       y       z     vdW  Elec       q    Type
REMARK                         _______ _______ _______ _____ _____    ______ ____
ROOT
ATOM      1  C   UNL     1       2.002  -0.651  -1.087  0.00  0.00    +0.341 C 
ATOM      2  O   UNL     1       2.578  -0.440  -0.038  0.00  0.00    -0.245 OA
ENDROOT
BRANCH   1   3
ATOM      3  C   UNL     1       2.760  -1.127  -2.263  0.00  0.00    +0.070 A 
ATOM      4  C   UNL     1       2.117  -1.487  -3.439  0.00  0.00    +0.044 A 
ATOM      5  C   UNL     1       2.877  -1.933  -4.531  0.00  0.00    +0.072 A 
ATOM      6  N   UNL     1       4.190  -2.023  -4.484  0.00  0.00    -0.247 NA
ATOM      7  C   UNL     1       4.889  -1.698  -3.396  0.00  0.00    +0.072 A 
ATOM      8  C   UNL     1       4.220  -1.230  -2.237  0.00  0.00    +0.014 A 
ATOM      9  C   UNL     1       4.957  -0.884  -1.099  0.00  0.00    +0.011 A 
ATOM     10  C   UNL     1       6.316  -0.996  -1.118  0.00  0.00    +0.001 A 
ATOM     11  C   UNL     1       6.979  -1.450  -2.256  0.00  0.00    +0.002 A 
ATOM     12  C   UNL     1       6.292  -1.805  -3.376  0.00  0.00    +0.028 A 
BRANCH   5  13
ATOM     13  C   UNL     1       2.178  -2.315  -5.781  0.00  0.00    +0.000 A 
ATOM     14  C   UNL     1       0.789  -2.225  -5.862  0.00  0.00    +0.010 A 
ATOM     15  C   UNL     1       0.144  -2.582  -7.028  0.00  0.00    +0.001 A 
ATOM     16  C   UNL     1       0.872  -3.030  -8.115  0.00  0.00    +0.000 A 
ATOM     17  C   UNL     1       2.250  -3.122  -8.041  0.00  0.00    +0.001 A 
ATOM     18  C   UNL     1       2.907  -2.761  -6.883  0.00  0.00    +0.010 A 
ENDBRANCH   5  13
ENDBRANCH   1   3
BRANCH   1  19
ATOM     19  O   UNL     1       0.673  -0.452  -1.177  0.00  0.00    -0.449 OA
BRANCH  19  21
ATOM     20  C   UNL     1      -0.003   1.538   0.016  0.00  0.00    +0.062 C 
ATOM     21  C   UNL     1       0.004   0.008  -0.002  0.00  0.00    +0.259 C 
BRANCH  21  22
ATOM     22  C   UNL     1      -1.415  -0.500   0.001  0.00  0.00    +0.261 C 
ATOM     23  O   UNL     1      -1.841  -1.112  -0.956  0.00  0.00    -0.271 OA
ATOM     24  N   UNL     1      -2.209  -0.276   1.066  0.00  0.00    -0.237 N 
ATOM     25  C   UNL     1      -3.478  -0.730   1.068  0.00  0.00    +0.306 C 
ATOM     26  O   UNL     1      -3.905  -1.343   0.109  0.00  0.00    -0.252 OA
ATOM     27  N   UNL     1      -4.273  -0.505   2.133  0.00  0.00    -0.294 N 
ATOM     28  H   UNL     1      -1.868   0.213   1.831  0.00  0.00    +0.159 HD
ATOM     29  H   UNL     1      -3.932  -0.016   2.898  0.00  0.00    +0.151 HD
BRANCH  27  30
ATOM     30  C   UNL     1      -5.652  -1.000   2.135  0.00  0.00    +0.028 C 
ATOM     31  C   UNL     1      -5.648  -2.523   1.992  0.00  0.00    +0.031 C 
ATOM     32  C   UNL     1      -6.330  -0.613   3.451  0.00  0.00    +0.031 C 
ATOM     33  C   UNL     1      -6.418  -0.380   0.965  0.00  0.00    +0.031 C 
ENDBRANCH  27  30
ENDBRANCH  21  22
ENDBRANCH  19  21
ENDBRANCH   1  19
TORSDOF 6
