REMARK  Name = ZINC13050207
REMARK  8 active torsions:
REMARK  status: ('A' for Active; 'I' for Inactive)
REMARK    1  A    between atoms: C_1  and  C_2
REMARK    2  A    between atoms: C_2  and  C_4
REMARK    3  A    between atoms: C_2  and  O_20
REMARK    4  A    between atoms: N_6  and  C_7
REMARK    5  A    between atoms: C_7  and  C_8
REMARK    6  A    between atoms: N_10  and  C_11
REMARK    7  A    between atoms: O_20  and  C_21
REMARK    8  A    between atoms: C_30  and  C_31
REMARK                            x       y       z     vdW  Elec       q    Type
REMARK                         _______ _______ _______ _____ _____    ______ ____
ROOT
ATOM      1  C   UNL     1       3.868   7.526   0.454  0.00  0.00    +0.254 C 
ATOM      2  O   UNL     1       2.947   8.310   0.546  0.00  0.00    -0.272 OA
ATOM      3  N   UNL     1       3.619   6.207   0.323  0.00  0.00    -0.304 N 
ATOM      4  H   UNL     1       4.356   5.580   0.250  0.00  0.00    +0.149 HD
ENDROOT
BRANCH   1   6
ATOM      5  C   UNL     1       5.989   7.490   1.737  0.00  0.00    +0.062 C 
ATOM      6  C   UNL     1       5.289   8.025   0.486  0.00  0.00    +0.255 C 
BRANCH   6   7
ATOM      7  O   UNL     1       5.292   9.454   0.514  0.00  0.00    -0.479 OA
BRANCH   7   8
ATOM      8  C   UNL     1       6.317  10.081  -0.117  0.00  0.00    +0.136 A 
ATOM      9  C   UNL     1       7.350   9.346  -0.619  0.00  0.00    +0.055 A 
ATOM     10  C   UNL     1       8.413   9.986  -1.278  0.00  0.00    -0.014 A 
ATOM     11  C   UNL     1       9.486   9.249  -1.808  0.00  0.00    +0.008 A 
ATOM     12  C   UNL     1      10.505   9.896  -2.436  0.00  0.00    +0.001 A 
ATOM     13  C   UNL     1      10.504  11.285  -2.563  0.00  0.00    +0.001 A 
ATOM     14  C   UNL     1       9.483  12.033  -2.063  0.00  0.00    +0.008 A 
ATOM     15  C   UNL     1       8.412  11.400  -1.407  0.00  0.00    -0.017 A 
ATOM     16  C   UNL     1       7.346  12.143  -0.880  0.00  0.00    +0.027 A 
ATOM     17  C   UNL     1       6.306  11.486  -0.240  0.00  0.00    +0.105 A 
BRANCH  17  18
ATOM     18  C   UNL     1       5.182  12.262   0.316  0.00  0.00    +0.390 C 
ATOM     19  O   UNL     1       4.269  11.691   0.878  0.00  0.00    -0.240 OA
ATOM     20  O   UNL     1       5.168  13.605   0.200  0.00  0.00    -0.240 OA
ENDBRANCH  17  18
ENDBRANCH   7   8
ENDBRANCH   6   7
ENDBRANCH   1   6
BRANCH   3  21
ATOM     21  C   UNL     1       2.238   5.722   0.292  0.00  0.00    +0.200 C 
BRANCH  21  22
ATOM     22  C   UNL     1       2.236   4.223   0.139  0.00  0.00    +0.234 C 
ATOM     23  O   UNL     1       3.285   3.619   0.064  0.00  0.00    -0.274 OA
ATOM     24  N   UNL     1       1.067   3.553   0.086  0.00  0.00    -0.282 N 
ATOM     25  H   UNL     1       0.229   4.040   0.065  0.00  0.00    +0.155 HD
BRANCH  24  26
ATOM     26  C   UNL     1       1.064   2.151   0.061  0.00  0.00    +0.072 A 
ATOM     27  C   UNL     1       2.141   1.444   0.579  0.00  0.00    +0.029 A 
ATOM     28  C   UNL     1       2.137   0.063   0.554  0.00  0.00    +0.043 A 
ATOM     29  C   UNL     1       1.060  -0.619   0.012  0.00  0.00    +0.161 A 
ATOM     30  C   UNL     1      -0.017   0.083  -0.506  0.00  0.00    +0.195 A 
ATOM     31  C   UNL     1      -0.017   1.468  -0.483  0.00  0.00    +0.182 A 
ATOM     32  F   UNL     1      -1.064   2.153  -0.993  0.00  0.00    -0.200 F 
ATOM     33  F   UNL     1      -1.067  -0.584  -1.035  0.00  0.00    -0.199 F 
ATOM     34  F   UNL     1       1.060  -1.970  -0.011  0.00  0.00    -0.202 F 
ENDBRANCH  24  26
ENDBRANCH  21  22
ENDBRANCH   3  21
TORSDOF 7
