REMARK  Name = ZINC00187774
REMARK  5 active torsions:
REMARK  status: ('A' for Active; 'I' for Inactive)
REMARK    1  A    between atoms: C_1  and  O_2
REMARK    2  A    between atoms: O_2  and  C_3
REMARK    3  A    between atoms: C_6  and  C_10
REMARK    4  A    between atoms: C_8  and  O_9
REMARK    5  A    between atoms: CA_23  and  C_25
REMARK                            x       y       z     vdW  Elec       q    Type
REMARK                         _______ _______ _______ _____ _____    ______ ____
ROOT
ATOM      1  C   UNL     1      -1.118   7.126   1.854  0.00  0.00    +0.008 C 
ATOM      2  C   UNL     1       0.148   7.662   2.481  0.00  0.00    +0.010 A 
ATOM      3  C   UNL     1       1.102   8.311   1.775  0.00  0.00    -0.021 A 
ATOM      4  C   UNL     1       2.149   8.672   2.705  0.00  0.00    +0.003 A 
ATOM      5  C   UNL     1       3.365   9.347   2.553  0.00  0.00    +0.010 A 
ATOM      6  C   UNL     1       4.126   9.517   3.683  0.00  0.00    +0.001 A 
ATOM      7  C   UNL     1       3.721   9.047   4.921  0.00  0.00    +0.002 A 
ATOM      8  C   UNL     1       2.523   8.376   5.101  0.00  0.00    +0.026 A 
ATOM      9  C   UNL     1       1.730   8.188   3.971  0.00  0.00    +0.047 A 
ATOM     10  N   UNL     1       0.518   7.583   3.796  0.00  0.00    -0.359 N 
ATOM     11  H   UNL     1      -0.003   7.162   4.497  0.00  0.00    +0.166 HD
ATOM     12  C   UNL     1       1.010   8.567   0.292  0.00  0.00    +0.033 C 
ATOM     13  CA  UNL     1      -0.082   7.653  -0.281  0.00  0.00    +0.049 C 
ATOM     14  N   UNL     1      -1.307   7.774   0.537  0.00  0.00    +0.396 N 
ATOM     15  H1  UNL     1      -1.523   8.768   0.678  0.00  0.00    -0.083 HD
ATOM     16  H2  UNL     1      -2.087   7.320   0.047  0.00  0.00    -0.083 HD
ENDROOT
BRANCH   1  20
ATOM     17  C   UNL     1      -0.788   2.891   1.357  0.00  0.00    +0.161 A 
ATOM     18  C   UNL     1      -0.085   3.530   2.365  0.00  0.00    +0.049 A 
ATOM     19  C   UNL     1      -0.193   4.899   2.523  0.00  0.00    +0.006 A 
ATOM     20  C   UNL     1      -1.003   5.634   1.677  0.00  0.00    -0.052 A 
ATOM     21  C   UNL     1      -1.707   5.003   0.668  0.00  0.00    +0.051 A 
ATOM     22  C   UNL     1      -1.598   3.632   0.501  0.00  0.00    +0.159 A 
BRANCH  17  24
ATOM     23  C   UNL     1       0.172   0.851   2.111  0.00  0.00    +0.277 C 
ATOM     24  O   UNL     1      -0.682   1.545   1.200  0.00  0.00    -0.491 OA
ENDBRANCH  17  24
BRANCH  22  25
ATOM     25  O   UNL     1      -2.286   3.010  -0.494  0.00  0.00    -0.503 OA
ATOM     26  H   UNL     1      -3.169   2.713  -0.235  0.00  0.00    +0.292 HD
ENDBRANCH  22  25
ENDBRANCH   1  20
BRANCH  13  27
ATOM     27  C   UNL     1      -0.393   8.068  -1.696  0.00  0.00    +0.343 C 
ATOM     28  O   UNL     1      -1.364   8.749  -1.927  0.00  0.00    -0.248 OA
ATOM     29  OXT UNL     1       0.409   7.680  -2.700  0.00  0.00    -0.248 OA
ENDBRANCH  13  27
TORSDOF 4
