REMARK  Name = ZINC03442481
REMARK  9 active torsions:
REMARK  status: ('A' for Active; 'I' for Inactive)
REMARK    1  A    between atoms: C_1  and  C_2
REMARK    2  A    between atoms: C_5  and  N_9
REMARK    3  A    between atoms: C_10  and  C_12
REMARK    4  A    between atoms: C_12  and  O_13
REMARK    5  A    between atoms: O_13  and  C_14
REMARK    6  A    between atoms: C_14  and  C_16
REMARK    7  A    between atoms: C_19  and  O_25
REMARK    8  A    between atoms: C_20  and  N_22
REMARK    9  A    between atoms: O_25  and  C_26
REMARK                            x       y       z     vdW  Elec       q    Type
REMARK                         _______ _______ _______ _____ _____    ______ ____
ROOT
ATOM      1  O   UNL     1      -4.793   1.175  -0.280  0.00  0.00    -0.452 OA
ENDROOT
BRANCH   1   2
ATOM      2  C   UNL     1      -6.039   1.679  -0.380  0.00  0.00    +0.340 C 
ATOM      3  O   UNL     1      -6.208   2.883  -0.386  0.00  0.00    -0.245 OA
BRANCH   2   4
ATOM      4  C   UNL     1      -7.196   0.771  -0.481  0.00  0.00    +0.061 A 
ATOM      5  C   UNL     1      -7.003  -0.613  -0.480  0.00  0.00    +0.019 A 
ATOM      6  C   UNL     1      -8.087  -1.458  -0.570  0.00  0.00    +0.049 A 
ATOM      7  C   UNL     1      -9.371  -0.935  -0.673  0.00  0.00    +0.150 A 
ATOM      8  C   UNL     1      -9.567   0.441  -0.680  0.00  0.00    +0.168 A 
ATOM      9  C   UNL     1      -8.489   1.292  -0.585  0.00  0.00    +0.051 A 
BRANCH   8  10
ATOM     10  N   UNL     1     -10.937   0.992  -0.789  0.00  0.00    +0.060 N 
ATOM     11  O   UNL     1     -11.110   2.197  -0.795  0.00  0.00    -0.126 OA
ATOM     12  O   UNL     1     -11.891   0.239  -0.873  0.00  0.00    -0.126 OA
ENDBRANCH   8  10
BRANCH   7  13
ATOM     13  O   UNL     1     -10.436  -1.771  -0.766  0.00  0.00    -0.493 OA
ATOM     14  C   UNL     1     -10.163  -3.173  -0.753  0.00  0.00    +0.277 C 
ENDBRANCH   7  13
ENDBRANCH   2   4
ENDBRANCH   1   2
BRANCH   1  15
ATOM     15  C   UNL     1      -3.702   2.128  -0.184  0.00  0.00    +0.328 C 
BRANCH  15  17
ATOM     16  N   UNL     1      -1.238   2.069   0.019  0.00  0.00    -0.281 N 
ATOM     17  C   UNL     1      -2.395   1.385  -0.081  0.00  0.00    +0.255 C 
ATOM     18  O   UNL     1      -2.384   0.173  -0.088  0.00  0.00    -0.272 OA
ATOM     19  H   UNL     1      -1.251   3.035   0.105  0.00  0.00    +0.155 HD
BRANCH  16  24
ATOM     20  C   UNL     1       3.716  -0.696  -0.080  0.00  0.00    +0.044 C 
ATOM     21  C   UNL     1       2.401   0.038  -0.052  0.00  0.00    -0.049 A 
ATOM     22  C   UNL     1       1.283  -0.526  -0.640  0.00  0.00    +0.005 A 
ATOM     23  C   UNL     1       0.076   0.144  -0.617  0.00  0.00    +0.025 A 
ATOM     24  C   UNL     1      -0.016   1.385  -0.001  0.00  0.00    +0.052 A 
ATOM     25  C   UNL     1       1.108   1.950   0.589  0.00  0.00    +0.062 A 
ATOM     26  C   UNL     1       2.313   1.274   0.561  0.00  0.00    +0.025 A 
ATOM     27 CL   UNL     1       0.999   3.502   1.359  0.00  0.00    -0.082 Cl
ENDBRANCH  16  24
ENDBRANCH  15  17
ENDBRANCH   1  15
TORSDOF 7
