REMARK  Name = ZINC53219810
REMARK  6 active torsions:
REMARK  status: ('A' for Active; 'I' for Inactive)
REMARK    1  A    between atoms: C_1  and  N_2
REMARK    2  A    between atoms: C_6  and  C_7
REMARK    3  A    between atoms: C_7  and  C_9
REMARK    4  A    between atoms: C_7  and  N_16
REMARK    5  A    between atoms: C_17  and  C_19
REMARK    6  A    between atoms: N_29  and  C_30
REMARK                            x       y       z     vdW  Elec       q    Type
REMARK                         _______ _______ _______ _____ _____    ______ ____
ROOT
ATOM      1  N   UNL     1      -0.929  -1.151   3.291  0.00  0.00    -0.298 N 
ATOM      2  C   UNL     1      -2.229  -0.798   3.320  0.00  0.00    +0.245 C 
ATOM      3  O   UNL     1      -2.607   0.182   2.706  0.00  0.00    -0.270 OA
ATOM      4  H   UNL     1      -0.627  -1.932   3.780  0.00  0.00    +0.150 HD
ENDROOT
BRANCH   2   5
ATOM      5  C   UNL     1      -3.194  -1.600   4.095  0.00  0.00    +0.039 A 
ATOM      6  C   UNL     1      -2.759  -2.722   4.804  0.00  0.00    +0.015 A 
ATOM      7  C   UNL     1      -3.659  -3.472   5.531  0.00  0.00    +0.026 A 
ATOM      8  C   UNL     1      -4.998  -3.111   5.557  0.00  0.00    +0.051 A 
ATOM      9  C   UNL     1      -5.444  -1.990   4.847  0.00  0.00    +0.055 A 
ATOM     10  C   UNL     1      -4.543  -1.233   4.125  0.00  0.00    +0.038 A 
ATOM     11  N   UNL     1      -6.802  -1.649   4.877  0.00  0.00    -0.283 N 
ATOM     12  C   UNL     1      -7.626  -2.196   5.791  0.00  0.00    +0.235 C 
ATOM     13  O   UNL     1      -8.807  -1.920   5.775  0.00  0.00    -0.274 OA
ATOM     14  C   UNL     1      -7.096  -3.146   6.834  0.00  0.00    +0.200 C 
ATOM     15  N   UNL     1      -5.926  -3.852   6.290  0.00  0.00    -0.323 N 
ATOM     16  C   UNL     1      -5.741  -5.288   6.511  0.00  0.00    +0.130 C 
ATOM     17  H   UNL     1      -7.152  -1.013   4.233  0.00  0.00    +0.155 HD
ENDBRANCH   2   5
BRANCH   1  18
ATOM     18  C   UNL     1       0.030  -0.354   2.521  0.00  0.00    +0.170 C 
BRANCH  18  19
ATOM     19  C   UNL     1       1.410  -0.533   3.098  0.00  0.00    -0.017 A 
ATOM     20  C   UNL     1       1.825  -1.782   3.524  0.00  0.00    +0.006 A 
ATOM     21  C   UNL     1       3.091  -1.947   4.054  0.00  0.00    +0.003 A 
ATOM     22  C   UNL     1       3.943  -0.864   4.160  0.00  0.00    +0.038 A 
ATOM     23  C   UNL     1       3.529   0.386   3.734  0.00  0.00    +0.124 A 
ATOM     24  C   UNL     1       2.263   0.549   3.197  0.00  0.00    +0.044 A 
ATOM     25  F   UNL     1       4.362   1.445   3.837  0.00  0.00    -0.205 F 
ENDBRANCH  18  19
BRANCH  18  31
ATOM     26  C   UNL     1      -0.018   1.461   0.010  0.00  0.00    +0.150 C 
ATOM     27  N   UNL     1       0.002  -0.004   0.002  0.00  0.00    -0.336 N 
ATOM     28  C   UNL     1       0.009  -0.810  -1.104  0.00  0.00    +0.106 A 
ATOM     29  C   UNL     1       0.029  -2.081  -0.660  0.00  0.00    +0.130 A 
ATOM     30  N   UNL     1       0.034  -2.052   0.681  0.00  0.00    -0.238 NA
ATOM     31  C   UNL     1       0.023  -0.811   1.085  0.00  0.00    +0.134 A 
ENDBRANCH  18  31
ENDBRANCH   1  18
TORSDOF 4
