REMARK  Name = ZINC50833651
REMARK  5 active torsions:
REMARK  status: ('A' for Active; 'I' for Inactive)
REMARK    1  A    between atoms: C_3  and  S_6
REMARK    2  A    between atoms: S_6  and  C_7
REMARK    3  A    between atoms: C_7  and  C_8
REMARK    4  A    between atoms: C_11  and  N_17
REMARK    5  A    between atoms: C_12  and  N_14
REMARK                            x       y       z     vdW  Elec       q    Type
REMARK                         _______ _______ _______ _____ _____    ______ ____
ROOT
ATOM      1  C   UNL     1       6.571   0.508  -0.012  0.00  0.00    -0.035 A 
ATOM      2  C   UNL     1       7.050   0.992  -1.216  0.00  0.00    +0.006 A 
ATOM      3  C   UNL     1       8.289   1.598  -1.276  0.00  0.00    +0.025 A 
ATOM      4  C   UNL     1       9.055   1.722  -0.124  0.00  0.00    +0.055 A 
ATOM      5  C   UNL     1       8.572   1.236   1.084  0.00  0.00    +0.147 A 
ATOM      6  C   UNL     1       7.330   0.635   1.137  0.00  0.00    +0.039 A 
ENDROOT
BRANCH   5   7
ATOM      7  N   UNL     1       9.386   1.365   2.314  0.00  0.00    +0.058 N 
ATOM      8  O   UNL     1      10.585   1.224   2.263  0.00  0.00    -0.126 OA
ATOM      9  O   UNL     1       8.851   1.613   3.369  0.00  0.00    -0.126 OA
ENDBRANCH   5   7
BRANCH   4  10
ATOM     10  N   UNL     1      10.309   2.335  -0.180  0.00  0.00    -0.356 N 
ATOM     11  H   UNL     1      10.700   2.562  -1.039  0.00  0.00    +0.142 HD
ATOM     12  H   UNL     1      10.790   2.533   0.639  0.00  0.00    +0.142 HD
ENDBRANCH   4  10
BRANCH   1  13
ATOM     13  C   UNL     1       5.218  -0.152   0.049  0.00  0.00    +0.110 C 
BRANCH  13  14
ATOM     14  S   UNL     1       3.949   1.099   0.386  0.00  0.00    -0.113 S 
BRANCH  14  17
ATOM     15  C   UNL     1       0.139  -0.293   0.628  0.00  0.00    +0.009 A 
ATOM     16  C   UNL     1       1.175   0.624   0.643  0.00  0.00    +0.022 A 
ATOM     17  C   UNL     1       2.446   0.181   0.427  0.00  0.00    +0.045 A 
ATOM     18  S   UNL     1       2.191  -1.570   0.195  0.00  0.00    -0.090 S 
ATOM     19  C   UNL     1       0.418  -1.598   0.400  0.00  0.00    +0.046 A 
ENDBRANCH  14  17
ENDBRANCH  13  14
ENDBRANCH   1  13
TORSDOF 5
