REMARK  Name = ZINC00318502
REMARK  8 active torsions:
REMARK  status: ('A' for Active; 'I' for Inactive)
REMARK    1  A    between atoms: C_1  and  C_2
REMARK    2  A    between atoms: C_3  and  C_23
REMARK    3  A    between atoms: C_5  and  C_6
REMARK    4  A    between atoms: C_11  and  O_12
REMARK    5  A    between atoms: N_15  and  C_16
REMARK    6  A    between atoms: C_16  and  C_17
REMARK    7  A    between atoms: C_23  and  O_25
REMARK    8  A    between atoms: O_25  and  C_26
REMARK                            x       y       z     vdW  Elec       q    Type
REMARK                         _______ _______ _______ _____ _____    ______ ____
ROOT
ATOM      1  C   UNL     1      -3.531   8.966  -0.346  0.00  0.00    +0.062 C 
ATOM      2  C   UNL     1      -2.851   7.626  -0.229  0.00  0.00    +0.025 C 
ATOM      3  C   UNL     1      -1.505   7.448  -0.163  0.00  0.00    +0.088 C 
ATOM      4  C   UNL     1      -1.285   5.983  -0.059  0.00  0.00    +0.053 C 
ATOM      5  C   UNL     1      -0.085   5.315   0.030  0.00  0.00    +0.025 C 
ATOM      6  C   UNL     1      -2.640   5.406  -0.066  0.00  0.00    +0.252 C 
ATOM      7  O   UNL     1      -2.925   4.224   0.006  0.00  0.00    -0.270 OA
ATOM      8  N   UNL     1      -3.502   6.434  -0.168  0.00  0.00    -0.268 N 
ENDROOT
BRANCH   5   9
ATOM      9  C   UNL     1      -0.055   3.852  -0.032  0.00  0.00    +0.017 A 
ATOM     10  C   UNL     1      -0.871   3.167  -0.942  0.00  0.00    +0.011 A 
ATOM     11  C   UNL     1      -0.833   1.792  -0.998  0.00  0.00    +0.001 A 
ATOM     12  C   UNL     1       0.002   1.080  -0.151  0.00  0.00    +0.004 A 
ATOM     13  C   UNL     1       0.813   1.740   0.751  0.00  0.00    +0.046 A 
ATOM     14  C   UNL     1       0.794   3.124   0.821  0.00  0.00    +0.124 A 
BRANCH  14  15
ATOM     15  O   UNL     1       1.590   3.773   1.707  0.00  0.00    -0.506 OA
ATOM     16  H   UNL     1       2.463   4.001   1.359  0.00  0.00    +0.292 HD
ENDBRANCH  14  15
ENDBRANCH   5   9
BRANCH   3  17
ATOM     17  C   UNL     1      -0.476   8.493  -0.193  0.00  0.00    +0.341 C 
ATOM     18  O   UNL     1      -0.799   9.662  -0.281  0.00  0.00    -0.245 OA
BRANCH  17  19
ATOM     19  O   UNL     1       0.829   8.157  -0.122  0.00  0.00    -0.464 OA
ATOM     20  C   UNL     1       1.792   9.243  -0.157  0.00  0.00    +0.280 C 
ENDBRANCH  17  19
ENDBRANCH   3  17
BRANCH   8  21
ATOM     21  C   UNL     1      -4.959   6.287  -0.210  0.00  0.00    +0.145 C 
BRANCH  21  22
ATOM     22  C   UNL     1      -5.517   6.336   1.214  0.00  0.00    +0.136 C 
ATOM     23  C   UNL     1      -7.037   6.067   1.190  0.00  0.00    +0.035 C 
ATOM     24  C   UNL     1      -7.565   7.063   2.259  0.00  0.00    +0.031 C 
ATOM     25  C   UNL     1      -6.585   8.248   2.066  0.00  0.00    +0.160 C 
ATOM     26  O   UNL     1      -5.318   7.641   1.769  0.00  0.00    -0.375 OA
ENDBRANCH  21  22
ENDBRANCH   8  21
TORSDOF 6
