REMARK  Name = ZINC63768320
REMARK  10 active torsions:
REMARK  status: ('A' for Active; 'I' for Inactive)
REMARK    1  A    between atoms: C_1  and  C_2
REMARK    2  A    between atoms: C_4  and  C_27
REMARK    3  A    between atoms: C_5  and  S_9
REMARK    4  A    between atoms: C_6  and  C_8
REMARK    5  A    between atoms: S_9  and  N_12
REMARK    6  A    between atoms: N_12  and  C_13
REMARK    7  A    between atoms: C_13  and  C_14
REMARK    8  A    between atoms: C_14  and  C_15
REMARK    9  A    between atoms: C_19  and  C_24
REMARK   10  A    between atoms: C_22  and  C_23
REMARK                            x       y       z     vdW  Elec       q    Type
REMARK                         _______ _______ _______ _____ _____    ______ ____
ROOT
ATOM      1  C   UNL     1       1.757  -5.519   1.540  0.00  0.00    +0.115 C 
ENDROOT
BRANCH   1   2
ATOM      2  N   UNL     1       0.747  -5.640   0.486  0.00  0.00    -0.189 NA
ATOM      3  H   UNL     1       0.844  -6.316  -0.204  0.00  0.00    +0.148 HD
BRANCH   2   4
ATOM      4  S   UNL     1      -0.560  -4.624   0.472  0.00  0.00    +0.059 S 
ATOM      5  O   UNL     1      -1.099  -4.637   1.786  0.00  0.00    -0.153 OA
ATOM      6  O   UNL     1      -1.331  -4.969  -0.671  0.00  0.00    -0.153 OA
BRANCH   4  11
ATOM      7  C   UNL     1       1.532   0.955  -0.479  0.00  0.00    +0.044 C 
ATOM      8  C   UNL     1       1.009  -0.438  -0.241  0.00  0.00    -0.050 A 
ATOM      9  C   UNL     1       0.839  -0.902   1.050  0.00  0.00    +0.008 A 
ATOM     10  C   UNL     1       0.359  -2.180   1.267  0.00  0.00    -0.024 A 
ATOM     11  C   UNL     1       0.050  -2.994   0.194  0.00  0.00    +0.111 A 
ATOM     12  C   UNL     1       0.219  -2.530  -1.097  0.00  0.00    -0.024 A 
ATOM     13  C   UNL     1       0.695  -1.251  -1.315  0.00  0.00    +0.008 A 
ATOM     14  C   UNL     1      -0.118  -3.418  -2.267  0.00  0.00    +0.046 C 
ATOM     15  C   UNL     1       0.175  -2.686   2.675  0.00  0.00    +0.046 C 
ENDBRANCH   4  11
ENDBRANCH   2   4
ENDBRANCH   1   2
BRANCH   1  16
ATOM     16  C   UNL     1       2.634  -6.774   1.552  0.00  0.00    +0.113 C 
BRANCH  16  17
ATOM     17  C   UNL     1       3.673  -6.649   2.636  0.00  0.00    +0.217 C 
ATOM     18  O   UNL     1       3.710  -5.655   3.330  0.00  0.00    -0.276 OA
ATOM     19  N   UNL     1       4.562  -7.642   2.834  0.00  0.00    -0.298 N 
ATOM     20  C   UNL     1       4.470  -8.893   2.069  0.00  0.00    +0.120 C 
ATOM     21  C   UNL     1       5.821  -9.163   1.399  0.00  0.00    +0.092 C 
ATOM     22  C   UNL     1       6.923  -9.156   2.461  0.00  0.00    +0.016 C 
ATOM     23  C   UNL     1       6.981  -7.780   3.129  0.00  0.00    +0.023 C 
ATOM     24  C   UNL     1       5.647  -7.492   3.814  0.00  0.00    +0.073 C 
ATOM     25  C   UNL     1       5.650  -6.063   4.360  0.00  0.00    +0.028 C 
BRANCH  21  26
ATOM     26  C   UNL     1       5.786 -10.508   0.720  0.00  0.00    +0.215 C 
ATOM     27  O   UNL     1       6.568 -11.374   1.050  0.00  0.00    -0.276 OA
ATOM     28  N   UNL     1       4.887 -10.748  -0.254  0.00  0.00    -0.329 N 
ATOM     29  H   UNL     1       4.261 -10.055  -0.518  0.00  0.00    +0.145 HD
ATOM     30  H   UNL     1       4.864 -11.613  -0.692  0.00  0.00    +0.145 HD
ENDBRANCH  21  26
ENDBRANCH  16  17
ENDBRANCH   1  16
TORSDOF 6
