REMARK  Name = ZINC39991461
REMARK  4 active torsions:
REMARK  status: ('A' for Active; 'I' for Inactive)
REMARK    1  A    between atoms: N_11  and  C_12
REMARK    2  A    between atoms: C_18  and  C_20
REMARK    3  A    between atoms: C_20  and  N_21
REMARK    4  A    between atoms: C_24  and  C_26
REMARK                            x       y       z     vdW  Elec       q    Type
REMARK                         _______ _______ _______ _____ _____    ______ ____
ROOT
ATOM      1  C   UNL     1       4.875  -0.586  -0.046  0.00  0.00    +0.095 C 
ATOM      2  C   UNL     1       5.536  -1.190   1.195  0.00  0.00    +0.044 C 
ATOM      3  C   UNL     1       7.027  -0.839   1.197  0.00  0.00    +0.110 C 
ATOM      4  N   UNL     1       7.618  -1.278  -0.074  0.00  0.00    -0.300 N 
ATOM      5  C   UNL     1       7.004  -0.828  -1.331  0.00  0.00    +0.110 C 
ATOM      6  C   UNL     1       5.513  -1.179  -1.305  0.00  0.00    +0.044 C 
ATOM      7  C   UNL     1       8.703  -2.078  -0.088  0.00  0.00    +0.236 C 
ATOM      8  O   UNL     1       9.200  -2.442   0.957  0.00  0.00    -0.274 OA
ENDROOT
BRANCH   1  19
ATOM      9  C   UNL     1      -0.017   1.377   0.010  0.00  0.00    +0.002 A 
ATOM     10  C   UNL     1       1.169   2.091   0.002  0.00  0.00    +0.002 A 
ATOM     11  C   UNL     1       2.381   1.429  -0.013  0.00  0.00    +0.028 A 
ATOM     12  C   UNL     1       2.410   0.043  -0.021  0.00  0.00    +0.070 A 
ATOM     13  C   UNL     1       1.214  -0.678  -0.013  0.00  0.00    +0.067 A 
ATOM     14  C   UNL     1       0.002  -0.004   0.002  0.00  0.00    +0.028 A 
ATOM     15  N   UNL     1       1.557  -2.028  -0.023  0.00  0.00    -0.306 N 
ATOM     16  H   UNL     1       0.934  -2.772  -0.021  0.00  0.00    +0.170 HD
ATOM     17  C   UNL     1       2.900  -2.124  -0.036  0.00  0.00    +0.328 A 
ATOM     18  O   UNL     1       3.528  -3.166  -0.047  0.00  0.00    -0.247 OA
ATOM     19  N   UNL     1       3.443  -0.892  -0.035  0.00  0.00    -0.289 N 
ENDBRANCH   1  19
BRANCH   7  20
ATOM     20  C   UNL     1       9.297  -2.519  -1.400  0.00  0.00    +0.243 C 
BRANCH  20  21
ATOM     21  N   UNL     1      10.459  -3.375  -1.147  0.00  0.00    -0.162 N 
ATOM     22  N   UNL     1      11.754  -2.958  -1.004  0.00  0.00    -0.143 NA
ATOM     23  N   UNL     1      12.513  -4.072  -0.781  0.00  0.00    -0.245 N 
ATOM     24  C   UNL     1      11.662  -5.178  -0.790  0.00  0.00    +0.167 C 
ATOM     25  N   UNL     1      10.444  -4.768  -1.001  0.00  0.00    -0.150 NA
ATOM     26  H   UNL     1      11.840  -2.303  -0.241  0.00  0.00    +0.169 HD
ATOM     27  H   UNL     1      13.473  -4.092  -0.642  0.00  0.00    +0.169 HD
BRANCH  24  28
ATOM     28  C   UNL     1      12.072  -6.577  -0.589  0.00  0.00    +0.055 A 
ATOM     29  C   UNL     1      11.302  -7.712  -0.589  0.00  0.00    +0.019 A 
ATOM     30  C   UNL     1      11.915  -8.927  -0.377  0.00  0.00    +0.008 A 
ATOM     31  C   UNL     1      13.258  -8.964  -0.175  0.00  0.00    +0.046 A 
ATOM     32  S   UNL     1      13.703  -7.239  -0.289  0.00  0.00    -0.094 S 
ENDBRANCH  24  28
ENDBRANCH  20  21
ENDBRANCH   7  20
TORSDOF 4
