REMARK  Name = ZINC50453664
REMARK  6 active torsions:
REMARK  status: ('A' for Active; 'I' for Inactive)
REMARK    1  A    between atoms: C_1  and  C_2
REMARK    2  A    between atoms: C_2  and  N_3
REMARK    3  A    between atoms: N_3  and  C_4
REMARK    4  A    between atoms: C_9  and  N_10
REMARK    5  A    between atoms: C_11  and  C_13
REMARK    6  A    between atoms: C_18  and  O_19
REMARK                            x       y       z     vdW  Elec       q    Type
REMARK                         _______ _______ _______ _____ _____    ______ ____
ROOT
ATOM      1  N   UNL     1       0.677  -0.698   1.102  0.00  0.00    -0.266 N 
ATOM      2  C   UNL     1       2.022  -0.792   1.114  0.00  0.00    +0.254 C 
ATOM      3  O   UNL     1       2.668  -0.388   0.166  0.00  0.00    -0.270 OA
ENDROOT
BRANCH   2   4
ATOM      4  C   UNL     1       2.709  -1.384   2.277  0.00  0.00    +0.079 A 
ATOM      5  C   UNL     1       2.349  -2.654   2.734  0.00  0.00    +0.018 A 
ATOM      6  C   UNL     1       2.995  -3.202   3.820  0.00  0.00    +0.016 A 
ATOM      7  C   UNL     1       4.002  -2.498   4.463  0.00  0.00    +0.021 A 
ATOM      8  C   UNL     1       4.367  -1.241   4.022  0.00  0.00    +0.061 A 
ATOM      9  C   UNL     1       3.732  -0.678   2.926  0.00  0.00    +0.130 A 
ATOM     10 BR   UNL     1       4.880  -3.263   5.954  0.00  0.00    -0.050 Br
BRANCH   9  11
ATOM     11  O   UNL     1       4.094   0.554   2.487  0.00  0.00    -0.506 OA
ATOM     12  H   UNL     1       3.603   1.278   2.899  0.00  0.00    +0.292 HD
ENDBRANCH   9  11
ENDBRANCH   2   4
BRANCH   1  13
ATOM     13  C   UNL     1      -0.060  -1.058   2.238  0.00  0.00    +0.057 A 
ATOM     14  C   UNL     1      -0.496  -2.365   2.398  0.00  0.00    +0.025 A 
ATOM     15  C   UNL     1      -1.224  -2.718   3.519  0.00  0.00    +0.002 A 
ATOM     16  C   UNL     1      -1.519  -1.771   4.483  0.00  0.00    +0.002 A 
ATOM     17  C   UNL     1      -1.088  -0.467   4.332  0.00  0.00    +0.024 A 
ATOM     18  C   UNL     1      -0.352  -0.105   3.213  0.00  0.00    +0.046 A 
BRANCH  18  19
ATOM     19  N   UNL     1       0.089   1.214   3.060  0.00  0.00    -0.357 N 
ATOM     20  H   UNL     1       0.600   1.466   2.275  0.00  0.00    +0.142 HD
ATOM     21  H   UNL     1      -0.115   1.876   3.740  0.00  0.00    +0.142 HD
ENDBRANCH  18  19
ENDBRANCH   1  13
BRANCH   1  23
ATOM     22  C   UNL     1      -0.257   1.287   0.021  0.00  0.00    +0.025 C 
ATOM     23  C   UNL     1      -0.013  -0.219  -0.098  0.00  0.00    +0.111 C 
ENDBRANCH   1  23
TORSDOF 5
