REMARK  Name = ZINC15947401
REMARK  10 active torsions:
REMARK  status: ('A' for Active; 'I' for Inactive)
REMARK    1  A    between atoms: C_1  and  C_2
REMARK    2  A    between atoms: C_2  and  C_3
REMARK    3  A    between atoms: C_3  and  N_4
REMARK    4  A    between atoms: C_13  and  C_15
REMARK    5  A    between atoms: N_17  and  N_18
REMARK    6  A    between atoms: C_19  and  C_21
REMARK    7  A    between atoms: C_21  and  N_22
REMARK    8  A    between atoms: N_22  and  C_23
REMARK    9  A    between atoms: N_22  and  S_24
REMARK   10  A    between atoms: S_24  and  C_27
REMARK                            x       y       z     vdW  Elec       q    Type
REMARK                         _______ _______ _______ _____ _____    ______ ____
ROOT
ATOM      1  C   UNL     1       0.976  -3.941  -5.227  0.00  0.00    +0.281 C 
ATOM      2  O   UNL     1       1.676  -4.934  -5.278  0.00  0.00    -0.267 OA
ATOM      3  N   UNL     1       1.369  -2.876  -4.501  0.00  0.00    -0.229 N 
ATOM      4  H   UNL     1       0.810  -2.084  -4.460  0.00  0.00    +0.173 HD
ENDROOT
BRANCH   1  14
ATOM      5  N   UNL     1      -2.188  -2.724  -6.514  0.00  0.00    -0.228 N 
ATOM      6  C   UNL     1      -2.723  -3.697  -7.279  0.00  0.00    +0.275 A 
ATOM      7  O   UNL     1      -3.796  -3.536  -7.832  0.00  0.00    -0.266 OA
ATOM      8  C   UNL     1      -1.981  -4.957  -7.430  0.00  0.00    +0.050 A 
ATOM      9  C   UNL     1      -2.446  -6.020  -8.197  0.00  0.00    +0.014 A 
ATOM     10  C   UNL     1      -1.689  -7.169  -8.288  0.00  0.00    +0.001 A 
ATOM     11  C   UNL     1      -0.473  -7.272  -7.625  0.00  0.00    +0.001 A 
ATOM     12  C   UNL     1       0.005  -6.229  -6.860  0.00  0.00    +0.011 A 
ATOM     13  C   UNL     1      -0.741  -5.059  -6.759  0.00  0.00    +0.020 A 
ATOM     14  C   UNL     1      -0.306  -3.903  -5.959  0.00  0.00    +0.155 A 
ATOM     15  N   UNL     1      -1.067  -2.837  -5.909  0.00  0.00    -0.163 NA
BRANCH   5  16
ATOM     16  C   UNL     1      -2.932  -1.470  -6.367  0.00  0.00    +0.147 C 
BRANCH  16  18
ATOM     17  C   UNL     1      -4.644  -0.261  -5.007  0.00  0.00    +0.005 C 
ATOM     18  C   UNL     1      -3.867  -1.570  -5.160  0.00  0.00    +0.020 C 
ENDBRANCH  16  18
ENDBRANCH   5  16
ENDBRANCH   1  14
BRANCH   3  19
ATOM     19  N   UNL     1       2.585  -2.912  -3.806  0.00  0.00    -0.233 N 
ATOM     20  C   UNL     1       2.978  -1.847  -3.080  0.00  0.00    +0.245 C 
ATOM     21  O   UNL     1       2.280  -0.857  -3.029  0.00  0.00    -0.273 OA
ATOM     22  H   UNL     1       3.143  -3.704  -3.847  0.00  0.00    +0.173 HD
BRANCH  20  23
ATOM     23  C   UNL     1       4.286  -1.886  -2.333  0.00  0.00    +0.206 C 
BRANCH  23  24
ATOM     24  N   UNL     1       4.483  -0.617  -1.627  0.00  0.00    -0.170 NA
ATOM     25  C   UNL     1       5.078   0.525  -2.326  0.00  0.00    +0.132 C 
BRANCH  24  26
ATOM     26  S   UNL     1       4.034  -0.473  -0.040  0.00  0.00    +0.067 S 
ATOM     27  O   UNL     1       4.814   0.580   0.509  0.00  0.00    -0.152 OA
ATOM     28  O   UNL     1       4.036  -1.786   0.503  0.00  0.00    -0.152 OA
BRANCH  26  29
ATOM     29  C   UNL     1       2.360   0.077  -0.020  0.00  0.00    +0.144 A 
ATOM     30  C   UNL     1       1.221  -0.657  -0.013  0.00  0.00    +0.038 A 
ATOM     31  C   UNL     1       0.002  -0.004   0.002  0.00  0.00    +0.030 A 
ATOM     32  C   UNL     1      -0.016   1.352   0.009  0.00  0.00    +0.080 A 
ATOM     33  S   UNL     1       1.725   1.745  -0.005  0.00  0.00    -0.057 S 
ATOM     34 CL   UNL     1      -1.379   2.427   0.022  0.00  0.00    -0.076 Cl
ENDBRANCH  26  29
ENDBRANCH  24  26
ENDBRANCH  23  24
ENDBRANCH  20  23
ENDBRANCH   3  19
TORSDOF 8
