REMARK  Name = ZINC06643533
REMARK  10 active torsions:
REMARK  status: ('A' for Active; 'I' for Inactive)
REMARK    1  A    between atoms: C_1  and  C_2
REMARK    2  A    between atoms: C_6  and  C_21
REMARK    3  A    between atoms: C_7  and  N_8
REMARK    4  A    between atoms: C_9  and  C_11
REMARK    5  A    between atoms: C_11  and  C_13
REMARK    6  A    between atoms: C_11  and  S_14
REMARK    7  A    between atoms: S_14  and  C_15
REMARK    8  A    between atoms: N_19  and  C_20
REMARK    9  A    between atoms: C_21  and  C_22
REMARK   10  A    between atoms: C_21  and  C_23
REMARK                            x       y       z     vdW  Elec       q    Type
REMARK                         _______ _______ _______ _____ _____    ______ ____
ROOT
ATOM      1  N   UNL     1       3.183   4.047   0.418  0.00  0.00    -0.284 N 
ATOM      2  C   UNL     1       2.397   3.426   1.320  0.00  0.00    +0.230 C 
ATOM      3  O   UNL     1       1.911   4.054   2.236  0.00  0.00    -0.274 OA
ATOM      4  H   UNL     1       3.614   3.535  -0.284  0.00  0.00    +0.155 HD
ENDROOT
BRANCH   1  11
ATOM      5  C   UNL     1       0.886   5.722   0.542  0.00  0.00    +0.045 C 
ATOM      6  C   UNL     1       2.284   6.284   0.557  0.00  0.00    -0.029 A 
ATOM      7  C   UNL     1       2.479   7.650   0.633  0.00  0.00    +0.005 A 
ATOM      8  C   UNL     1       3.762   8.166   0.647  0.00  0.00    +0.001 A 
ATOM      9  C   UNL     1       4.853   7.319   0.585  0.00  0.00    +0.006 A 
ATOM     10  C   UNL     1       4.664   5.952   0.515  0.00  0.00    -0.023 A 
ATOM     11  C   UNL     1       3.377   5.431   0.495  0.00  0.00    +0.040 A 
BRANCH  10  12
ATOM     12  C   UNL     1       5.854   5.029   0.455  0.00  0.00    +0.015 C 
ATOM     13  C   UNL     1       6.690   5.355  -0.784  0.00  0.00    +0.012 C 
ATOM     14  C   UNL     1       6.708   5.215   1.710  0.00  0.00    +0.012 C 
ENDBRANCH  10  12
ENDBRANCH   1  11
BRANCH   2  15
ATOM     15  C   UNL     1       2.120   1.950   1.188  0.00  0.00    +0.137 C 
ATOM     16  C   UNL     1       1.029   1.727   0.140  0.00  0.00    +0.029 C 
BRANCH  15  17
ATOM     17  S   UNL     1       1.568   1.296   2.783  0.00  0.00    -0.072 S 
BRANCH  17  18
ATOM     18  C   UNL     1       1.468  -0.419   2.392  0.00  0.00    +0.210 A 
ATOM     19  N   UNL     1       1.742  -0.973   1.231  0.00  0.00    -0.102 NA
ATOM     20  N   UNL     1       1.567  -2.244   1.286  0.00  0.00    -0.022 NA
ATOM     21  N   UNL     1       1.175  -2.592   2.464  0.00  0.00    -0.043 NA
ATOM     22  N   UNL     1       1.101  -1.416   3.232  0.00  0.00    -0.223 N 
ATOM     23  C   UNL     1       0.709  -1.295   4.638  0.00  0.00    +0.177 C 
ENDBRANCH  17  18
ENDBRANCH  15  17
ENDBRANCH   2  15
TORSDOF 5
