REMARK  Name = ZINC48866684
REMARK  6 active torsions:
REMARK  status: ('A' for Active; 'I' for Inactive)
REMARK    1  A    between atoms: C_1  and  C_2
REMARK    2  A    between atoms: C_4  and  C_20
REMARK    3  A    between atoms: C_7  and  C_8
REMARK    4  A    between atoms: C_8  and  N_10
REMARK    5  A    between atoms: N_11  and  C_12
REMARK    6  A    between atoms: C_12  and  C_13
REMARK                            x       y       z     vdW  Elec       q    Type
REMARK                         _______ _______ _______ _____ _____    ______ ____
ROOT
ATOM      1  C   UNL     1      -0.021   1.500   0.042  0.00  0.00    +0.044 C 
ATOM      2  C   UNL     1       0.000  -0.006   0.018  0.00  0.00    -0.036 A 
ATOM      3  C   UNL     1      -0.106  -0.697  -1.177  0.00  0.00    +0.025 A 
ATOM      4  C   UNL     1      -0.084  -2.080  -1.168  0.00  0.00    +0.015 A 
ATOM      5  N   UNL     1       0.036  -2.755  -0.041  0.00  0.00    -0.347 N 
ATOM      6  C   UNL     1       0.142  -2.145   1.129  0.00  0.00    +0.106 A 
ATOM      7  C   UNL     1       0.134  -0.741   1.202  0.00  0.00    +0.044 A 
ATOM      8  N   UNL     1       0.266  -2.893   2.286  0.00  0.00    -0.326 N 
ATOM      9  C   UNL     1      -0.200  -2.830  -2.470  0.00  0.00    +0.063 C 
ATOM     10  H   UNL     1       0.267  -2.453   3.151  0.00  0.00    +0.148 HD
ATOM     11  H   UNL     1       0.048  -3.725  -0.070  0.00  0.00    +0.167 HD
ENDROOT
BRANCH   7  12
ATOM     12  C   UNL     1       0.257  -0.056   2.499  0.00  0.00    +0.080 C 
ATOM     13  S   UNL     1       1.790   0.473   3.046  0.00  0.00    -0.035 S 
BRANCH  12  14
ATOM     14  N   UNL     1      -0.838   0.154   3.257  0.00  0.00    -0.352 N 
ATOM     15  H   UNL     1      -1.716  -0.080   2.916  0.00  0.00    +0.143 HD
ATOM     16  H   UNL     1      -0.748   0.539   4.143  0.00  0.00    +0.143 HD
ENDBRANCH  12  14
ENDBRANCH   7  12
BRANCH   8  17
ATOM     17  C   UNL     1       0.397  -4.350   2.206  0.00  0.00    +0.138 C 
BRANCH  17  18
ATOM     18  C   UNL     1       0.517  -4.921   3.596  0.00  0.00    -0.029 A 
ATOM     19  C   UNL     1       1.762  -5.067   4.178  0.00  0.00    +0.005 A 
ATOM     20  C   UNL     1       1.872  -5.590   5.453  0.00  0.00    +0.001 A 
ATOM     21  C   UNL     1       0.737  -5.968   6.146  0.00  0.00    +0.015 A 
ATOM     22  C   UNL     1      -0.509  -5.822   5.563  0.00  0.00    +0.018 A 
ATOM     23  C   UNL     1      -0.619  -5.293   4.290  0.00  0.00    +0.020 A 
ATOM     24 BR   UNL     1      -2.062  -6.338   6.510  0.00  0.00    -0.050 Br
ENDBRANCH  17  18
ENDBRANCH   8  17
TORSDOF 4
