REMARK  Name = ZINC04905865
REMARK  4 active torsions:
REMARK  status: ('A' for Active; 'I' for Inactive)
REMARK    1  A    between atoms: N_9  and  C_10
REMARK    2  A    between atoms: C_10  and  C_12
REMARK    3  A    between atoms: C_10  and  N_19
REMARK    4  A    between atoms: N_19  and  C_20
REMARK                            x       y       z     vdW  Elec       q    Type
REMARK                         _______ _______ _______ _____ _____    ______ ____
ROOT
ATOM      1  C   UNL     1       2.490   1.047  -0.016  0.00  0.00    +0.225 C 
ENDROOT
BRANCH   1  10
ATOM      2  C   UNL     1       3.364  -1.765  -4.382  0.00  0.00    +0.002 A 
ATOM      3  C   UNL     1       2.770  -2.212  -3.209  0.00  0.00    +0.002 A 
ATOM      4  C   UNL     1       2.606  -1.367  -2.147  0.00  0.00    +0.030 A 
ATOM      5  C   UNL     1       3.037  -0.048  -2.240  0.00  0.00    +0.091 A 
ATOM      6  C   UNL     1       3.636   0.411  -3.426  0.00  0.00    +0.113 A 
ATOM      7  C   UNL     1       3.789  -0.474  -4.502  0.00  0.00    +0.032 A 
ATOM      8  N   UNL     1       3.961   1.706  -3.245  0.00  0.00    -0.129 NA
ATOM      9  N   UNL     1       3.617   2.093  -2.068  0.00  0.00    -0.063 NA
ATOM     10  N   UNL     1       3.020   1.025  -1.382  0.00  0.00    -0.219 N 
ENDBRANCH   1  10
BRANCH   1  11
ATOM     11  C   UNL     1       1.175   1.783   0.000  0.00  0.00    -0.005 A 
ATOM     12  C   UNL     1      -0.013   1.076   0.008  0.00  0.00    +0.009 A 
ATOM     13  C   UNL     1      -1.219   1.750   0.017  0.00  0.00    +0.020 A 
ATOM     14  C   UNL     1      -1.237   3.134   0.030  0.00  0.00    +0.041 A 
ATOM     15  C   UNL     1      -0.048   3.841   0.023  0.00  0.00    +0.020 A 
ATOM     16  C   UNL     1       1.157   3.165   0.009  0.00  0.00    +0.009 A 
ATOM     17 CL   UNL     1      -2.752   3.982   0.048  0.00  0.00    -0.084 Cl
ENDBRANCH   1  11
BRANCH   1  18
ATOM     18  N   UNL     1       3.442   1.727   0.866  0.00  0.00    -0.305 N 
ATOM     19  H   UNL     1       4.064   2.375   0.501  0.00  0.00    +0.150 HD
BRANCH  18  20
ATOM     20  C   UNL     1       3.452   1.443   2.228  0.00  0.00    +0.098 A 
ATOM     21  C   UNL     1       2.553   0.517   2.746  0.00  0.00    +0.043 A 
ATOM     22  C   UNL     1       2.577   0.240   4.101  0.00  0.00    +0.025 A 
ATOM     23  C   UNL     1       3.498   0.910   4.897  0.00  0.00    +0.057 A 
ATOM     24  C   UNL     1       4.358   1.822   4.317  0.00  0.00    +0.104 A 
ATOM     25 CL   UNL     1       3.566   0.604   6.605  0.00  0.00    -0.082 Cl
ATOM     26  N   UNL     1       4.365   2.114   2.989  0.00  0.00    -0.348 N 
ATOM     27  H   UNL     1       5.016   2.797   2.583  0.00  0.00    +0.167 HD
ENDBRANCH  18  20
ENDBRANCH   1  18
TORSDOF 4
