REMARK  Name = ZINC21981333
REMARK  14 active torsions:
REMARK  status: ('A' for Active; 'I' for Inactive)
REMARK    1  A    between atoms: C_1  and  C_2
REMARK    2  A    between atoms: C_2  and  C_3
REMARK    3  A    between atoms: C_2  and  N_4
REMARK    4  A    between atoms: N_4  and  C_5
REMARK    5  A    between atoms: C_5  and  C_6
REMARK    6  A    between atoms: C_6  and  C_8
REMARK    7  A    between atoms: C_6  and  O_20
REMARK    8  A    between atoms: C_8  and  O_9
REMARK    9  A    between atoms: O_9  and  C_10
REMARK   10  A    between atoms: O_20  and  C_21
REMARK   11  A    between atoms: C_23  and  O_37
REMARK   12  A    between atoms: C_25  and  O_36
REMARK   13  A    between atoms: C_27  and  O_35
REMARK   14  A    between atoms: C_29  and  C_32
REMARK                            x       y       z     vdW  Elec       q    Type
REMARK                         _______ _______ _______ _____ _____    ______ ____
ROOT
ATOM      1  C   UNL     1      -1.409  -0.458   0.143  0.00  0.00    +0.142 C 
ENDROOT
BRANCH   1   2
ATOM      2  C   UNL     1       0.000   0.112  -0.029  0.00  0.00    -0.047 C 
BRANCH   2   3
ATOM      3  N   UNL     1      -0.083   1.560  -0.263  0.00  0.00    +0.382 N 
ATOM      4  H   UNL     1      -0.665   2.016   0.551  0.00  0.00    -0.085 HD
ATOM      5  H   UNL     1      -0.593   1.734  -1.222  0.00  0.00    -0.085 HD
BRANCH   3   7
ATOM      6  C   UNL     1       1.830   2.035  -1.717  0.00  0.00    -0.014 C 
ATOM      7  C   UNL     1       1.256   2.164  -0.304  0.00  0.00    -0.078 C 
ATOM      8  C   UNL     1       1.160   3.643   0.074  0.00  0.00    -0.014 C 
ENDBRANCH   3   7
ENDBRANCH   2   3
ENDBRANCH   1   2
BRANCH   1   9
ATOM      9  C   UNL     1      -1.320  -1.955   0.449  0.00  0.00    +0.258 C 
BRANCH   9  10
ATOM     10  O   UNL     1      -0.563  -2.606  -0.573  0.00  0.00    -0.489 OA
BRANCH  10  11
ATOM     11  C   UNL     1      -0.388  -3.947  -0.451  0.00  0.00    +0.128 A 
ATOM     12  C   UNL     1      -0.924  -4.617   0.612  0.00  0.00    +0.046 A 
ATOM     13  C   UNL     1      -0.754  -5.991   0.751  0.00  0.00    +0.004 A 
ATOM     14  C   UNL     1      -0.049  -6.708  -0.167  0.00  0.00    +0.009 A 
ATOM     15  C   UNL     1       0.518  -6.057  -1.275  0.00  0.00    -0.014 A 
ATOM     16  C   UNL     1       0.343  -4.659  -1.424  0.00  0.00    +0.024 A 
ATOM     17  C   UNL     1       0.915  -4.006  -2.528  0.00  0.00    +0.012 A 
ATOM     18  C   UNL     1       1.619  -4.726  -3.445  0.00  0.00    +0.001 A 
ATOM     19  C   UNL     1       1.788  -6.102  -3.301  0.00  0.00    +0.001 A 
ATOM     20  C   UNL     1       1.252  -6.766  -2.241  0.00  0.00    +0.008 A 
ENDBRANCH  10  11
ENDBRANCH   9  10
ENDBRANCH   1   9
BRANCH   1  21
ATOM     21  O   UNL     1      -2.152  -0.262  -1.062  0.00  0.00    -0.344 OA
BRANCH  21  22
ATOM     22  C   UNL     1      -3.533   0.043  -0.850  0.00  0.00    +0.283 C 
ATOM     23  C   UNL     1      -4.148   0.557  -2.154  0.00  0.00    +0.201 C 
ATOM     24  C   UNL     1      -4.073  -0.546  -3.215  0.00  0.00    +0.179 C 
ATOM     25  C   UNL     1      -4.786  -1.795  -2.688  0.00  0.00    +0.185 C 
ATOM     26  C   UNL     1      -4.146  -2.218  -1.363  0.00  0.00    +0.265 C 
ATOM     27  O   UNL     1      -4.222  -1.137  -0.432  0.00  0.00    -0.331 OA
BRANCH  26  28
ATOM     28  C   UNL     1      -4.880  -3.412  -0.808  0.00  0.00    +0.387 C 
ATOM     29  O   UNL     1      -5.490  -3.317   0.231  0.00  0.00    -0.243 OA
ATOM     30  O   UNL     1      -4.858  -4.580  -1.468  0.00  0.00    -0.243 OA
ENDBRANCH  26  28
BRANCH  25  31
ATOM     31  O   UNL     1      -4.661  -2.854  -3.639  0.00  0.00    -0.386 OA
ATOM     32  H   UNL     1      -5.113  -3.835  -3.433  0.00  0.00    +0.210 HD
ENDBRANCH  25  31
BRANCH  24  33
ATOM     33  O   UNL     1      -4.711  -0.102  -4.413  0.00  0.00    -0.386 OA
ATOM     34  H   UNL     1      -4.756  -0.764  -5.290  0.00  0.00    +0.210 HD
ENDBRANCH  24  33
BRANCH  23  35
ATOM     35  O   UNL     1      -3.424   1.704  -2.605  0.00  0.00    -0.384 OA
ATOM     36  H   UNL     1      -3.723   2.213  -3.533  0.00  0.00    +0.210 HD
ENDBRANCH  23  35
ENDBRANCH  21  22
ENDBRANCH   1  21
TORSDOF 12
