REMARK  Name = ZINC52357699
REMARK  5 active torsions:
REMARK  status: ('A' for Active; 'I' for Inactive)
REMARK    1  A    between atoms: C_3  and  C_22
REMARK    2  A    between atoms: C_6  and  C_7
REMARK    3  A    between atoms: C_7  and  N_8
REMARK    4  A    between atoms: N_24  and  C_25
REMARK    5  A    between atoms: C_25  and  C_26
REMARK                            x       y       z     vdW  Elec       q    Type
REMARK                         _______ _______ _______ _____ _____    ______ ____
ROOT
ATOM      1  C   UNL     1       0.045   1.203   0.212  0.00  0.00    +0.006 A 
ATOM      2  C   UNL     1       1.204   1.951   0.211  0.00  0.00    +0.013 A 
ATOM      3  C   UNL     1       2.432   1.330  -0.022  0.00  0.00    +0.037 A 
ATOM      4  C   UNL     1       2.479  -0.046  -0.253  0.00  0.00    +0.013 A 
ATOM      5  C   UNL     1       1.313  -0.783  -0.248  0.00  0.00    +0.006 A 
ATOM      6  C   UNL     1       0.099  -0.161  -0.017  0.00  0.00    -0.030 A 
ENDROOT
BRANCH   3   7
ATOM      7  C   UNL     1       3.678   2.126  -0.026  0.00  0.00    +0.244 C 
ATOM      8  O   UNL     1       3.634   3.324   0.174  0.00  0.00    -0.270 OA
ATOM      9  N   UNL     1       4.862   1.523  -0.251  0.00  0.00    -0.303 N 
ATOM     10  H   UNL     1       4.897   0.567  -0.411  0.00  0.00    +0.150 HD
BRANCH   9  11
ATOM     11  C   UNL     1       6.097   2.312  -0.255  0.00  0.00    +0.200 C 
BRANCH  11  12
ATOM     12  C   UNL     1       7.270   1.407  -0.528  0.00  0.00    +0.228 C 
ATOM     13  O   UNL     1       7.093   0.220  -0.703  0.00  0.00    -0.274 OA
ATOM     14  N   UNL     1       8.517   1.917  -0.579  0.00  0.00    -0.328 N 
ATOM     15  H   UNL     1       8.659   2.866  -0.439  0.00  0.00    +0.145 HD
ATOM     16  H   UNL     1       9.272   1.335  -0.755  0.00  0.00    +0.145 HD
ENDBRANCH  11  12
ENDBRANCH   9  11
ENDBRANCH   3   7
BRANCH   6  17
ATOM     17  C   UNL     1      -1.171  -0.972  -0.014  0.00  0.00    +0.138 C 
BRANCH  17  18
ATOM     18  N   UNL     1      -1.728  -1.013  -1.368  0.00  0.00    -0.324 N 
ATOM     19  C   UNL     1      -2.901  -1.705  -1.613  0.00  0.00    +0.131 A 
ATOM     20  C   UNL     1      -3.385  -1.853  -2.943  0.00  0.00    +0.051 A 
ATOM     21  C   UNL     1      -2.805  -1.355  -4.191  0.00  0.00    -0.025 A 
ATOM     22  C   UNL     1      -3.471  -1.636  -5.330  0.00  0.00    -0.004 A 
ATOM     23  S   UNL     1      -4.890  -2.568  -4.818  0.00  0.00    -0.073 S 
ATOM     24  C   UNL     1      -4.588  -2.577  -3.071  0.00  0.00    +0.114 A 
ATOM     25  N   UNL     1      -5.208  -3.075  -2.019  0.00  0.00    -0.228 NA
ATOM     26  C   UNL     1      -4.710  -2.904  -0.810  0.00  0.00    +0.224 A 
ATOM     27  N   UNL     1      -3.583  -2.242  -0.616  0.00  0.00    -0.220 NA
ATOM     28  C   UNL     1      -3.090  -1.242  -6.724  0.00  0.00    +0.043 C 
ATOM     29  C   UNL     1      -2.017  -0.147  -6.643  0.00  0.00    +0.005 C 
ATOM     30  C   UNL     1      -0.942  -0.586  -5.645  0.00  0.00    +0.005 C 
ATOM     31  C   UNL     1      -1.508  -0.552  -4.224  0.00  0.00    +0.037 C 
ATOM     32  H   UNL     1      -1.274  -0.556  -2.093  0.00  0.00    +0.148 HD
ENDBRANCH  17  18
ENDBRANCH   6  17
TORSDOF 5
