REMARK  Name = ZINC46768463
REMARK  6 active torsions:
REMARK  status: ('A' for Active; 'I' for Inactive)
REMARK    1  A    between atoms: C_3  and  C_8
REMARK    2  A    between atoms: C_10  and  C_13
REMARK    3  A    between atoms: N_15  and  C_16
REMARK    4  A    between atoms: C_19  and  N_22
REMARK    5  A    between atoms: N_25  and  C_26
REMARK    6  A    between atoms: C_26  and  C_27
REMARK                            x       y       z     vdW  Elec       q    Type
REMARK                         _______ _______ _______ _____ _____    ______ ____
ROOT
ATOM      1  C   UNL     1       8.905   0.403   0.006  0.00  0.00    +0.034 A 
ATOM      2  C   UNL     1       9.897   1.371   0.095  0.00  0.00    +0.025 A 
ATOM      3  C   UNL     1      11.224   0.996   0.159  0.00  0.00    +0.025 A 
ATOM      4  C   UNL     1      11.567  -0.349   0.134  0.00  0.00    +0.035 A 
ATOM      5  C   UNL     1      10.576  -1.317   0.045  0.00  0.00    +0.025 A 
ATOM      6  C   UNL     1       9.248  -0.942  -0.013  0.00  0.00    +0.025 A 
ENDROOT
BRANCH   4   7
ATOM      7  N   UNL     1      12.914  -0.730   0.198  0.00  0.00    -0.269 N 
ATOM      8  C   UNL     1      13.343  -1.809  -0.485  0.00  0.00    +0.304 C 
ATOM      9  O   UNL     1      12.547  -2.501  -1.090  0.00  0.00    -0.253 OA
ATOM     10  N   UNL     1      14.654  -2.122  -0.499  0.00  0.00    -0.297 N 
ATOM     11  H   UNL     1      13.538  -0.216   0.735  0.00  0.00    +0.156 HD
ATOM     12  H   UNL     1      15.289  -1.569  -0.016  0.00  0.00    +0.150 HD
BRANCH  10  13
ATOM     13  C   UNL     1      15.120  -3.295  -1.242  0.00  0.00    +0.137 C 
BRANCH  13  14
ATOM     14  C   UNL     1      16.637  -3.422  -1.095  0.00  0.00    +0.135 C 
ATOM     15  C   UNL     1      17.156  -4.638  -1.903  0.00  0.00    +0.035 C 
ATOM     16  C   UNL     1      18.630  -4.218  -2.156  0.00  0.00    +0.031 C 
ATOM     17  C   UNL     1      18.512  -2.685  -2.305  0.00  0.00    +0.160 C 
ATOM     18  O   UNL     1      17.292  -2.280  -1.670  0.00  0.00    -0.375 OA
ENDBRANCH  13  14
ENDBRANCH  10  13
ENDBRANCH   4   7
BRANCH   1  21
ATOM     19  C   UNL     1       6.616   0.029   0.541  0.00  0.00    +0.267 C 
ATOM     20  O   UNL     1       6.923  -1.026   1.064  0.00  0.00    -0.268 OA
ATOM     21  N   UNL     1       7.559   0.784  -0.058  0.00  0.00    -0.280 N 
ATOM     22  H   UNL     1       7.305   1.591  -0.532  0.00  0.00    +0.155 HD
BRANCH  19  25
ATOM     23  C   UNL     1       3.602   1.995   0.034  0.00  0.00    +0.109 A 
ATOM     24  N   UNL     1       4.870   1.628  -0.007  0.00  0.00    -0.234 NA
ATOM     25  C   UNL     1       5.215   0.481   0.561  0.00  0.00    +0.133 A 
ATOM     26  C   UNL     1       4.249  -0.279   1.167  0.00  0.00    +0.080 A 
ATOM     27  S   UNL     1       2.861   0.644   0.932  0.00  0.00    -0.075 S 
BRANCH  23  30
ATOM     28  C   UNL     1       1.004   4.553  -0.871  0.00  0.00    +0.002 A 
ATOM     29  C   UNL     1       1.594   3.416  -0.357  0.00  0.00    +0.010 A 
ATOM     30  C   UNL     1       2.965   3.212  -0.515  0.00  0.00    +0.009 A 
ATOM     31  C   UNL     1       3.732   4.160  -1.192  0.00  0.00    +0.030 A 
ATOM     32  C   UNL     1       3.131   5.293  -1.702  0.00  0.00    +0.042 A 
ATOM     33  C   UNL     1       1.770   5.490  -1.542  0.00  0.00    +0.020 A 
ATOM     34 CL   UNL     1       4.083   6.474  -2.546  0.00  0.00    -0.084 Cl
ENDBRANCH  23  30
ENDBRANCH  19  25
ENDBRANCH   1  21
TORSDOF 6
