REMARK  Name = ZINC40701640
REMARK  9 active torsions:
REMARK  status: ('A' for Active; 'I' for Inactive)
REMARK    1  A    between atoms: C_1  and  C_2
REMARK    2  A    between atoms: C_3  and  N_9
REMARK    3  A    between atoms: C_11  and  N_28
REMARK    4  A    between atoms: C_12  and  N_16
REMARK    5  A    between atoms: N_16  and  C_17
REMARK    6  A    between atoms: C_20  and  O_25
REMARK    7  A    between atoms: C_22  and  O_23
REMARK    8  A    between atoms: O_23  and  C_24
REMARK    9  A    between atoms: O_25  and  C_26
REMARK                            x       y       z     vdW  Elec       q    Type
REMARK                         _______ _______ _______ _____ _____    ______ ____
ROOT
ATOM      1  N   UNL     1      -0.062   0.012  -2.417  0.00  0.00    -0.298 N 
ATOM      2  C   UNL     1       0.065  -0.674  -3.620  0.00  0.00    +0.149 A 
ATOM      3  C   UNL     1       0.168   0.022  -4.825  0.00  0.00    +0.106 A 
ATOM      4  C   UNL     1       0.293  -0.716  -6.004  0.00  0.00    +0.149 A 
ATOM      5  N   UNL     1       0.311  -2.045  -5.934  0.00  0.00    -0.219 NA
ATOM      6  C   UNL     1       0.211  -2.663  -4.774  0.00  0.00    +0.225 A 
ATOM      7  N   UNL     1       0.097  -2.005  -3.639  0.00  0.00    -0.219 NA
ATOM      8  H   UNL     1      -0.169   0.976  -2.417  0.00  0.00    +0.154 HD
ENDROOT
BRANCH   1  11
ATOM      9  C   UNL     1      -1.343   1.181  -0.161  0.00  0.00    +0.047 C 
ATOM     10  C   UNL     1      -0.649  -0.154  -0.081  0.00  0.00    -0.011 A 
ATOM     11  C   UNL     1      -0.036  -0.688  -1.207  0.00  0.00    +0.037 A 
ATOM     12  C   UNL     1       0.603  -1.919  -1.129  0.00  0.00    +0.023 A 
ATOM     13  C   UNL     1       0.627  -2.609   0.068  0.00  0.00    +0.003 A 
ATOM     14  C   UNL     1       0.016  -2.075   1.187  0.00  0.00    +0.020 A 
ATOM     15  C   UNL     1      -0.617  -0.846   1.115  0.00  0.00    +0.046 A 
ATOM     16 CL   UNL     1      -1.377  -0.177   2.525  0.00  0.00    -0.083 Cl
ENDBRANCH   1  11
BRANCH   3  17
ATOM     17  N   UNL     1       0.144   1.425  -4.852  0.00  0.00    -0.353 N 
ATOM     18  H   UNL     1       0.056   1.925  -4.025  0.00  0.00    +0.143 HD
ATOM     19  H   UNL     1       0.216   1.896  -5.697  0.00  0.00    +0.143 HD
ENDBRANCH   3  17
BRANCH   4  20
ATOM     20  N   UNL     1       0.398  -0.072  -7.231  0.00  0.00    -0.295 N 
ATOM     21  H   UNL     1       0.471   0.894  -7.268  0.00  0.00    +0.154 HD
BRANCH  20  22
ATOM     22  C   UNL     1       0.400  -0.821  -8.417  0.00  0.00    +0.076 A 
ATOM     23  C   UNL     1      -0.193  -2.075  -8.448  0.00  0.00    +0.050 A 
ATOM     24  C   UNL     1      -0.191  -2.813  -9.617  0.00  0.00    +0.084 A 
ATOM     25  C   UNL     1       0.404  -2.301 -10.762  0.00  0.00    +0.142 A 
ATOM     26  C   UNL     1       0.997  -1.048 -10.736  0.00  0.00    +0.094 A 
ATOM     27  C   UNL     1       0.991  -0.303  -9.567  0.00  0.00    +0.145 A 
ATOM     28 CL   UNL     1      -0.933  -4.382  -9.653  0.00  0.00    -0.080 Cl
BRANCH  27  29
ATOM     29  O   UNL     1       1.568   0.928  -9.542  0.00  0.00    -0.493 OA
ATOM     30  C   UNL     1       2.155   1.395 -10.758  0.00  0.00    +0.277 C 
ENDBRANCH  27  29
BRANCH  25  31
ATOM     31  O   UNL     1       0.405  -3.029 -11.911  0.00  0.00    -0.494 OA
ATOM     32  C   UNL     1       1.034  -2.441 -13.051  0.00  0.00    +0.277 C 
ENDBRANCH  25  31
ENDBRANCH  20  22
ENDBRANCH   4  20
TORSDOF 6
