REMARK  Name = ZINC20328929
REMARK  4 active torsions:
REMARK  status: ('A' for Active; 'I' for Inactive)
REMARK    1  A    between atoms: C_3  and  C_6
REMARK    2  A    between atoms: C_8  and  C_18
REMARK    3  A    between atoms: C_12  and  N_17
REMARK    4  A    between atoms: C_13  and  C_15
REMARK                            x       y       z     vdW  Elec       q    Type
REMARK                         _______ _______ _______ _____ _____    ______ ____
ROOT
ATOM      1  C   UNL     1      -1.230   1.772  -0.563  0.00  0.00    +0.031 A 
ATOM      2  C   UNL     1      -0.014   1.093  -0.571  0.00  0.00    +0.044 A 
ATOM      3  C   UNL     1       1.174   1.795  -0.523  0.00  0.00    +0.146 A 
ATOM      4  N   UNL     1       1.175   3.114  -0.466  0.00  0.00    -0.235 NA
ATOM      5  C   UNL     1       0.057   3.809  -0.450  0.00  0.00    +0.112 A 
ATOM      6  C   UNL     1      -1.217   3.200  -0.494  0.00  0.00    +0.040 A 
ATOM      7  C   UNL     1      -2.341   4.117  -0.469  0.00  0.00    +0.059 A 
ATOM      8  C   UNL     1      -2.083   5.470  -0.406  0.00  0.00    +0.112 A 
ATOM      9  S   UNL     1      -0.302   5.546  -0.378  0.00  0.00    -0.056 S 
ENDROOT
BRANCH   1  12
ATOM     10  C   UNL     1      -4.156  -0.315  -1.244  0.00  0.00    +0.042 A 
ATOM     11  C   UNL     1      -2.873   0.150  -1.589  0.00  0.00    +0.050 A 
ATOM     12  C   UNL     1      -2.503   1.034  -0.620  0.00  0.00    +0.136 A 
ATOM     13  O   UNL     1      -3.508   1.119   0.274  0.00  0.00    -0.463 OA
ATOM     14  C   UNL     1      -4.508   0.306  -0.099  0.00  0.00    +0.196 A 
ENDBRANCH   1  12
BRANCH   3  15
ATOM     15  C   UNL     1       2.483   1.048  -0.539  0.00  0.00    +0.434 C 
ATOM     16  F   UNL     1       2.906   0.875  -1.861  0.00  0.00    -0.164 F 
ATOM     17  F   UNL     1       3.445   1.779   0.167  0.00  0.00    -0.164 F 
ATOM     18  F   UNL     1       2.313  -0.203   0.064  0.00  0.00    -0.164 F 
ENDBRANCH   3  15
BRANCH   7  19
ATOM     19  N   UNL     1      -3.649   3.642  -0.508  0.00  0.00    -0.356 N 
ATOM     20  H   UNL     1      -4.492   4.349  -0.488  0.00  0.00    +0.142 HD
ATOM     21  H   UNL     1      -3.840   2.560  -0.558  0.00  0.00    +0.142 HD
ENDBRANCH   7  19
BRANCH   8  22
ATOM     22  C   UNL     1      -3.019   6.553  -0.369  0.00  0.00    +0.108 C 
ATOM     23  N   UNL     1      -3.762   7.412  -0.341  0.00  0.00    -0.190 NA
ENDBRANCH   8  22
TORSDOF 4
