REMARK  Name = ZINC08995694
REMARK  6 active torsions:
REMARK  status: ('A' for Active; 'I' for Inactive)
REMARK    1  A    between atoms: C_1  and  O_2
REMARK    2  A    between atoms: O_2  and  C_3
REMARK    3  A    between atoms: C_3  and  C_4
REMARK    4  A    between atoms: C_4  and  N_5
REMARK    5  A    between atoms: C_10  and  C_27
REMARK    6  A    between atoms: C_27  and  C_28
REMARK                            x       y       z     vdW  Elec       q    Type
REMARK                         _______ _______ _______ _____ _____    ______ ____
ROOT
ATOM      1  N   UNL     1      -0.017   1.370   0.010  0.00  0.00    -0.240 N 
ATOM      2  C   UNL     1       1.242   1.913   0.001  0.00  0.00    +0.224 C 
ATOM      3  O   UNL     1       1.568   3.033   0.328  0.00  0.00    -0.275 OA
ATOM      4  C   UNL     1       2.134   0.806  -0.508  0.00  0.00    +0.073 C 
ATOM      5  C   UNL     1       3.527   0.634   0.089  0.00  0.00    -0.053 C 
ATOM      6  C   UNL     1       2.340  -1.450   0.204  0.00  0.00    +0.050 C 
ATOM      7  C   UNL     1       1.377  -0.351   0.260  0.00  0.00    +0.088 C 
ATOM      8  C   UNL     1       0.002  -0.004   0.002  0.00  0.00    +0.225 C 
ATOM      9  O   UNL     1      -0.930  -0.757  -0.181  0.00  0.00    -0.275 OA
ATOM     10  C   UNL     1       2.538  -2.083  -1.144  0.00  0.00    -0.026 A 
ATOM     11  C   UNL     1       2.821  -1.585  -2.396  0.00  0.00    +0.004 A 
ATOM     12  C   UNL     1       2.949  -2.443  -3.474  0.00  0.00    +0.002 A 
ATOM     13  C   UNL     1       2.793  -3.805  -3.292  0.00  0.00    +0.022 A 
ATOM     14  C   UNL     1       2.509  -4.311  -2.039  0.00  0.00    +0.062 A 
ATOM     15  C   UNL     1       2.378  -3.452  -0.949  0.00  0.00    +0.054 A 
ATOM     16  N   UNL     1       2.099  -3.720   0.394  0.00  0.00    -0.285 N 
ATOM     17  C   UNL     1       2.059  -2.598   1.137  0.00  0.00    +0.211 C 
ATOM     18  O   UNL     1       1.839  -2.527   2.328  0.00  0.00    -0.277 OA
ATOM     19 CL   UNL     1       2.316  -6.022  -1.820  0.00  0.00    -0.082 Cl
ATOM     20  H   UNL     1       1.952  -4.610   0.749  0.00  0.00    +0.155 HD
ATOM     21  N   UNL     1       3.583  -0.746   0.624  0.00  0.00    +0.394 N 
ATOM     22  H   UNL     1       3.641  -0.722   1.649  0.00  0.00    -0.083 HD
ATOM     23  H   UNL     1       4.404  -1.234   0.247  0.00  0.00    -0.083 HD
ENDROOT
BRANCH   1  24
ATOM     24  C   UNL     1      -1.246   2.167   0.020  0.00  0.00    +0.144 C 
BRANCH  24  25
ATOM     25  C   UNL     1      -1.667   2.437   1.466  0.00  0.00    +0.179 C 
BRANCH  25  27
ATOM     26  C   UNL     1      -0.980   3.565   3.467  0.00  0.00    +0.194 C 
ATOM     27  O   UNL     1      -0.682   3.252   2.104  0.00  0.00    -0.381 OA
ENDBRANCH  25  27
ENDBRANCH  24  25
ENDBRANCH   1  24
BRANCH   5  28
ATOM     28  C   UNL     1       3.743   1.649   1.213  0.00  0.00    +0.022 C 
BRANCH  28  29
ATOM     29  C   UNL     1       5.154   1.535   1.730  0.00  0.00    -0.024 A 
ATOM     30  C   UNL     1       5.562   0.813   2.785  0.00  0.00    +0.087 A 
ATOM     31  N   UNL     1       6.913   0.953   2.952  0.00  0.00    -0.360 N 
ATOM     32  H   UNL     1       7.436   0.525   3.648  0.00  0.00    +0.165 HD
ATOM     33  C   UNL     1       7.420   1.788   1.982  0.00  0.00    +0.047 A 
ATOM     34  C   UNL     1       6.342   2.185   1.171  0.00  0.00    +0.003 A 
ATOM     35  C   UNL     1       6.561   3.041   0.089  0.00  0.00    +0.010 A 
ATOM     36  C   UNL     1       7.825   3.486  -0.177  0.00  0.00    +0.001 A 
ATOM     37  C   UNL     1       8.893   3.095   0.618  0.00  0.00    +0.002 A 
ATOM     38  C   UNL     1       8.698   2.257   1.695  0.00  0.00    +0.026 A 
ENDBRANCH  28  29
ENDBRANCH   5  28
TORSDOF 5
