REMARK  Name = ZINC63404350
REMARK  7 active torsions:
REMARK  status: ('A' for Active; 'I' for Inactive)
REMARK    1  A    between atoms: C_4  and  O_7
REMARK    2  A    between atoms: O_7  and  C_8
REMARK    3  A    between atoms: C_13  and  C_14
REMARK    4  A    between atoms: C_14  and  N_15
REMARK    5  A    between atoms: N_18  and  N_19
REMARK    6  A    between atoms: C_20  and  C_22
REMARK    7  A    between atoms: N_24  and  C_25
REMARK                            x       y       z     vdW  Elec       q    Type
REMARK                         _______ _______ _______ _____ _____    ______ ____
ROOT
ATOM      1  N   UNL     1       6.331  -1.426   1.483  0.00  0.00    -0.294 N 
ATOM      2  C   UNL     1       7.461  -0.731   1.716  0.00  0.00    +0.316 C 
ATOM      3  O   UNL     1       8.262  -0.554   0.818  0.00  0.00    -0.251 OA
ATOM      4  N   UNL     1       7.704  -0.231   2.943  0.00  0.00    -0.218 N 
ATOM      5  H   UNL     1       5.692  -1.567   2.199  0.00  0.00    +0.151 HD
ATOM      6  H   UNL     1       8.518   0.270   3.111  0.00  0.00    +0.174 HD
ENDROOT
BRANCH   4   7
ATOM      7  N   UNL     1       6.782  -0.434   3.978  0.00  0.00    -0.225 N 
ATOM      8  C   UNL     1       7.024   0.066   5.206  0.00  0.00    +0.315 C 
ATOM      9  O   UNL     1       8.042   0.692   5.415  0.00  0.00    -0.264 OA
ATOM     10  H   UNL     1       5.968  -0.935   3.810  0.00  0.00    +0.173 HD
BRANCH   8  11
ATOM     11  C   UNL     1       6.040  -0.151   6.309  0.00  0.00    +0.301 C 
ATOM     12  O   UNL     1       5.022  -0.778   6.099  0.00  0.00    -0.265 OA
ATOM     13  N   UNL     1       6.283   0.349   7.537  0.00  0.00    -0.305 N 
ATOM     14  H   UNL     1       7.097   0.849   7.704  0.00  0.00    +0.149 HD
BRANCH  13  15
ATOM     15  C   UNL     1       5.318   0.136   8.618  0.00  0.00    +0.073 C 
ATOM     16  C   UNL     1       4.992   1.329   9.519  0.00  0.00    +0.024 C 
ATOM     17  C   UNL     1       5.846   0.178  10.054  0.00  0.00    +0.024 C 
ENDBRANCH  13  15
ENDBRANCH   8  11
ENDBRANCH   4   7
BRANCH   1  18
ATOM     18  C   UNL     1       6.067  -1.970   0.148  0.00  0.00    +0.144 C 
BRANCH  18  24
ATOM     19  C   UNL     1       3.561  -1.987   0.061  0.00  0.00    +0.133 A 
ATOM     20  C   UNL     1       2.348  -2.662   0.062  0.00  0.00    +0.046 A 
ATOM     21  C   UNL     1       2.325  -4.039   0.161  0.00  0.00    +0.004 A 
ATOM     22  C   UNL     1       3.510  -4.746   0.260  0.00  0.00    +0.001 A 
ATOM     23  C   UNL     1       4.720  -4.076   0.259  0.00  0.00    +0.009 A 
ATOM     24  C   UNL     1       4.748  -2.699   0.155  0.00  0.00    +0.012 A 
BRANCH  19  25
ATOM     25  O   UNL     1       3.586  -0.632  -0.036  0.00  0.00    -0.456 OA
BRANCH  25  29
ATOM     26  C   UNL     1      -0.012   1.385   0.070  0.00  0.00    +0.000 A 
ATOM     27  C   UNL     1       0.445   0.729   1.198  0.00  0.00    +0.004 A 
ATOM     28  C   UNL     1       1.649   0.053   1.165  0.00  0.00    +0.046 A 
ATOM     29  C   UNL     1       2.400   0.032  -0.001  0.00  0.00    +0.128 A 
ATOM     30  C   UNL     1       1.939   0.691  -1.132  0.00  0.00    +0.046 A 
ATOM     31  C   UNL     1       0.735   1.366  -1.093  0.00  0.00    +0.004 A 
ENDBRANCH  25  29
ENDBRANCH  19  25
ENDBRANCH  18  24
ENDBRANCH   1  18
TORSDOF 7
