REMARK  Name = ZINC48996847
REMARK  7 active torsions:
REMARK  status: ('A' for Active; 'I' for Inactive)
REMARK    1  A    between atoms: N_9  and  C_11
REMARK    2  A    between atoms: C_11  and  C_12
REMARK    3  A    between atoms: C_12  and  C_13
REMARK    4  A    between atoms: C_13  and  N_14
REMARK    5  A    between atoms: N_17  and  C_18
REMARK    6  A    between atoms: C_18  and  C_19
REMARK    7  A    between atoms: C_24  and  N_25
REMARK                            x       y       z     vdW  Elec       q    Type
REMARK                         _______ _______ _______ _____ _____    ______ ____
ROOT
ATOM      1  N   UNL     1       8.238  -2.333   1.887  0.00  0.00    -0.299 N 
ATOM      2  C   UNL     1       9.494  -2.821   1.903  0.00  0.00    +0.300 C 
ATOM      3  O   UNL     1       9.800  -3.738   1.167  0.00  0.00    -0.253 OA
ATOM      4  N   UNL     1      10.412  -2.291   2.737  0.00  0.00    -0.295 N 
ATOM      5  H   UNL     1       7.994  -1.601   2.474  0.00  0.00    +0.150 HD
ATOM      6  H   UNL     1      10.168  -1.559   3.325  0.00  0.00    +0.151 HD
ENDROOT
BRANCH   1   7
ATOM      7  C   UNL     1       7.241  -2.908   0.981  0.00  0.00    +0.104 C 
BRANCH   7   8
ATOM      8  C   UNL     1       5.908  -2.179   1.160  0.00  0.00    +0.000 C 
BRANCH   8   9
ATOM      9  C   UNL     1       4.866  -2.780   0.214  0.00  0.00    -0.077 C 
BRANCH   9  18
ATOM     10  C   UNL     1      -0.017   1.376   0.010  0.00  0.00    +0.000 A 
ATOM     11  C   UNL     1       1.173   2.080   0.002  0.00  0.00    +0.000 A 
ATOM     12  C   UNL     1       2.375   1.401  -0.015  0.00  0.00    +0.002 A 
ATOM     13  C   UNL     1       2.395   0.014  -0.023  0.00  0.00    -0.061 A 
ATOM     14  C   UNL     1       1.208  -0.687  -0.013  0.00  0.00    -0.048 A 
ATOM     15  C   UNL     1       0.002  -0.004   0.002  0.00  0.00    +0.004 A 
ATOM     16  C   UNL     1       1.186  -2.194  -0.014  0.00  0.00    +0.017 C 
ATOM     17  C   UNL     1       2.554  -2.732  -0.434  0.00  0.00    -0.074 C 
ATOM     18  N   UNL     1       3.587  -2.079   0.386  0.00  0.00    +0.383 N 
ATOM     19  C   UNL     1       3.728  -0.686  -0.046  0.00  0.00    -0.043 C 
ATOM     20  H   UNL     1       3.313  -2.106   1.357  0.00  0.00    -0.081 HD
ENDBRANCH   9  18
ENDBRANCH   8   9
ENDBRANCH   7   8
ENDBRANCH   1   7
BRANCH   4  21
ATOM     21  C   UNL     1      11.777  -2.821   2.755  0.00  0.00    +0.144 C 
BRANCH  21  22
ATOM     22  C   UNL     1      12.598  -2.062   3.765  0.00  0.00    +0.014 A 
ATOM     23  C   UNL     1      13.451  -1.050   3.359  0.00  0.00    +0.010 A 
ATOM     24  C   UNL     1      14.187  -0.377   4.323  0.00  0.00    +0.020 A 
ATOM     25  C   UNL     1      14.048  -0.735   5.651  0.00  0.00    +0.113 A 
ATOM     26  N   UNL     1      13.227  -1.703   6.008  0.00  0.00    -0.236 NA
ATOM     27  C   UNL     1      12.504  -2.364   5.118  0.00  0.00    +0.159 A 
BRANCH  27  28
ATOM     28  N   UNL     1      11.642  -3.379   5.543  0.00  0.00    -0.222 N 
ATOM     29  C   UNL     1      11.760  -4.103   6.686  0.00  0.00    +0.116 A 
ATOM     30  C   UNL     1      10.729  -4.979   6.724  0.00  0.00    +0.041 A 
ATOM     31  C   UNL     1       9.956  -4.787   5.573  0.00  0.00    +0.135 A 
ATOM     32  N   UNL     1      10.498  -3.827   4.868  0.00  0.00    -0.173 NA
ENDBRANCH  27  28
ENDBRANCH  21  22
ENDBRANCH   4  21
TORSDOF 7
