REMARK  Name = ZINC38966155
REMARK  9 active torsions:
REMARK  status: ('A' for Active; 'I' for Inactive)
REMARK    1  A    between atoms: C_1  and  C_2
REMARK    2  A    between atoms: C_2  and  C_3
REMARK    3  A    between atoms: C_2  and  O_4
REMARK    4  A    between atoms: O_4  and  C_5
REMARK    5  A    between atoms: C_9  and  C_11
REMARK    6  A    between atoms: N_17  and  N_18
REMARK    7  A    between atoms: C_19  and  C_20
REMARK    8  A    between atoms: C_23  and  O_27
REMARK    9  A    between atoms: C_25  and  O_26
REMARK                            x       y       z     vdW  Elec       q    Type
REMARK                         _______ _______ _______ _____ _____    ______ ____
ROOT
ATOM      1  C   UNL     1      -4.594  -4.275  -1.001  0.00  0.00    +0.264 C 
ATOM      2  N   UNL     1      -5.790  -3.421  -1.070  0.00  0.00    -0.189 NA
ATOM      3  N   UNL     1      -6.443  -3.755  -2.062  0.00  0.00    -0.219 N 
ATOM      4  C   UNL     1      -5.877  -4.774  -2.763  0.00  0.00    +0.174 C 
ATOM      5  S   UNL     1      -6.530  -5.467  -4.186  0.00  0.00    -0.015 S 
ATOM      6  N   UNL     1      -4.721  -5.162  -2.173  0.00  0.00    -0.172 N 
ATOM      7  H   UNL     1      -7.278  -3.333  -2.317  0.00  0.00    +0.176 HD
ENDROOT
BRANCH   1  12
ATOM      8  C   UNL     1      -2.164  -1.400  -0.663  0.00  0.00    +0.121 A 
ATOM      9  C   UNL     1      -1.041  -1.915  -1.293  0.00  0.00    +0.045 A 
ATOM     10  C   UNL     1      -1.072  -3.189  -1.825  0.00  0.00    +0.004 A 
ATOM     11  C   UNL     1      -2.221  -3.952  -1.730  0.00  0.00    +0.007 A 
ATOM     12  C   UNL     1      -3.342  -3.441  -1.103  0.00  0.00    +0.001 A 
ATOM     13  C   UNL     1      -3.315  -2.169  -0.564  0.00  0.00    +0.053 A 
BRANCH   8  14
ATOM     14  O   UNL     1      -2.136  -0.147  -0.138  0.00  0.00    -0.489 OA
BRANCH  14  16
ATOM     15  C   UNL     1      -2.893   1.407   1.551  0.00  0.00    +0.051 C 
ATOM     16  C   UNL     1      -3.285   0.272   0.602  0.00  0.00    +0.167 C 
ATOM     17  C   UNL     1      -4.363   0.766  -0.365  0.00  0.00    +0.051 C 
ENDBRANCH  14  16
ENDBRANCH   8  14
ENDBRANCH   1  12
BRANCH   6  18
ATOM     18  N   UNL     1      -3.844  -6.175  -2.580  0.00  0.00    -0.183 NA
ATOM     19  C   UNL     1      -4.038  -6.786  -3.710  0.00  0.00    +0.142 C 
BRANCH  19  20
ATOM     20  C   UNL     1      -3.209  -7.949  -4.070  0.00  0.00    +0.036 A 
ATOM     21  C   UNL     1      -3.411  -8.606  -5.287  0.00  0.00    +0.016 A 
ATOM     22  C   UNL     1      -2.634  -9.693  -5.620  0.00  0.00    +0.046 A 
ATOM     23  C   UNL     1      -1.648 -10.142  -4.748  0.00  0.00    +0.120 A 
ATOM     24  C   UNL     1      -1.440  -9.498  -3.537  0.00  0.00    +0.091 A 
ATOM     25  C   UNL     1      -2.210  -8.400  -3.195  0.00  0.00    +0.129 A 
BRANCH  25  26
ATOM     26  O   UNL     1      -2.003  -7.765  -2.012  0.00  0.00    -0.506 OA
ATOM     27  H   UNL     1      -2.527  -8.117  -1.280  0.00  0.00    +0.292 HD
ENDBRANCH  25  26
BRANCH  23  28
ATOM     28  O   UNL     1      -0.886 -11.215  -5.083  0.00  0.00    -0.507 OA
ATOM     29  H   UNL     1      -0.080 -10.989  -5.567  0.00  0.00    +0.292 HD
ENDBRANCH  23  28
ENDBRANCH  19  20
ENDBRANCH   6  18
TORSDOF 7
