REMARK  Name = ZINC40687791
REMARK  5 active torsions:
REMARK  status: ('A' for Active; 'I' for Inactive)
REMARK    1  A    between atoms: C_6  and  O_11
REMARK    2  A    between atoms: O_11  and  C_12
REMARK    3  A    between atoms: C_13  and  N_29
REMARK    4  A    between atoms: C_14  and  N_18
REMARK    5  A    between atoms: N_18  and  C_19
REMARK                            x       y       z     vdW  Elec       q    Type
REMARK                         _______ _______ _______ _____ _____    ______ ____
ROOT
ATOM      1  C   UNL     1       4.892  -3.995   0.866  0.00  0.00    +0.246 A 
ATOM      2  C   UNL     1       6.075  -4.709   0.677  0.00  0.00    +0.128 A 
ATOM      3  C   UNL     1       5.993  -6.096   0.531  0.00  0.00    +0.151 A 
ATOM      4  N   UNL     1       4.797  -6.679   0.578  0.00  0.00    -0.218 NA
ATOM      5  C   UNL     1       3.704  -5.966   0.758  0.00  0.00    +0.227 A 
ATOM      6  N   UNL     1       3.740  -4.657   0.905  0.00  0.00    -0.199 NA
ENDROOT
BRANCH   2   7
ATOM      7  N   UNL     1       7.314  -4.053   0.635  0.00  0.00    -0.351 N 
ATOM      8  H   UNL     1       7.356  -3.089   0.737  0.00  0.00    +0.143 HD
ATOM      9  H   UNL     1       8.129  -4.562   0.503  0.00  0.00    +0.143 HD
ENDBRANCH   2   7
BRANCH   3  10
ATOM     10  N   UNL     1       7.141  -6.856   0.340  0.00  0.00    -0.296 N 
ATOM     11  H   UNL     1       7.997  -6.417   0.212  0.00  0.00    +0.154 HD
BRANCH  10  12
ATOM     12  C   UNL     1       7.063  -8.248   0.333  0.00  0.00    +0.059 A 
ATOM     13  C   UNL     1       5.994  -8.887   0.923  0.00  0.00    +0.025 A 
ATOM     14  C   UNL     1       5.905 -10.276   0.923  0.00  0.00    +0.003 A 
ATOM     15  C   UNL     1       6.869 -11.040   0.340  0.00  0.00    +0.010 A 
ATOM     16  C   UNL     1       7.974 -10.427  -0.273  0.00  0.00    +0.002 A 
ATOM     17  C   UNL     1       8.076  -9.015  -0.285  0.00  0.00    +0.092 A 
ATOM     18  N   UNL     1       9.123  -8.428  -0.871  0.00  0.00    -0.253 NA
ATOM     19  C   UNL     1      10.066  -9.133  -1.446  0.00  0.00    +0.111 A 
ATOM     20  C   UNL     1      10.025 -10.526  -1.476  0.00  0.00    +0.020 A 
ATOM     21  C   UNL     1       8.988 -11.189  -0.884  0.00  0.00    +0.011 A 
ENDBRANCH  10  12
ENDBRANCH   3  10
BRANCH   1  22
ATOM     22  O   UNL     1       4.918  -2.647   1.013  0.00  0.00    -0.436 OA
BRANCH  22  28
ATOM     23  C   UNL     1      -0.529   0.543   1.200  0.00  0.00    +0.001 A 
ATOM     24  C   UNL     1      -0.050   0.537  -0.109  0.00  0.00    +0.001 A 
ATOM     25  C   UNL     1       1.116  -0.088  -0.426  0.00  0.00    +0.008 A 
ATOM     26  C   UNL     1       1.852  -0.738   0.580  0.00  0.00    -0.014 A 
ATOM     27  C   UNL     1       3.061  -1.393   0.291  0.00  0.00    +0.054 A 
ATOM     28  C   UNL     1       3.749  -2.014   1.294  0.00  0.00    +0.131 A 
ATOM     29  C   UNL     1       3.266  -2.007   2.607  0.00  0.00    +0.047 A 
ATOM     30  C   UNL     1       2.100  -1.382   2.919  0.00  0.00    +0.012 A 
ATOM     31  C   UNL     1       1.365  -0.732   1.911  0.00  0.00    -0.018 A 
ATOM     32  C   UNL     1       0.156  -0.076   2.199  0.00  0.00    +0.008 A 
ENDBRANCH  22  28
ENDBRANCH   1  22
TORSDOF 5
