REMARK  Name = ZINC06083974
REMARK  4 active torsions:
REMARK  status: ('A' for Active; 'I' for Inactive)
REMARK    1  A    between atoms: C_6  and  N_7
REMARK    2  A    between atoms: C_8  and  C_10
REMARK    3  A    between atoms: C_10  and  N_11
REMARK    4  A    between atoms: C_16  and  N_22
REMARK                            x       y       z     vdW  Elec       q    Type
REMARK                         _______ _______ _______ _____ _____    ______ ____
ROOT
ATOM      1  N   UNL     1      -6.120   3.231   0.047  0.00  0.00    -0.290 N 
ATOM      2  C   UNL     1      -6.024   1.876   0.030  0.00  0.00    +0.203 A 
ATOM      3  N   UNL     1      -4.892   1.240   0.022  0.00  0.00    -0.237 NA
ATOM      4  C   UNL     1      -3.706   1.900   0.028  0.00  0.00    +0.080 A 
ATOM      5  C   UNL     1      -2.488   1.217   0.018  0.00  0.00    +0.061 A 
ATOM      6  C   UNL     1      -1.308   1.927   0.024  0.00  0.00    +0.128 A 
ATOM      7  C   UNL     1      -1.314   3.315   0.046  0.00  0.00    +0.033 A 
ATOM      8  C   UNL     1      -2.502   4.011   0.052  0.00  0.00    +0.017 A 
ATOM      9  C   UNL     1      -3.708   3.312   0.045  0.00  0.00    +0.065 A 
ATOM     10  C   UNL     1      -5.007   4.001   0.054  0.00  0.00    +0.262 A 
ATOM     11  O   UNL     1      -5.078   5.216   0.069  0.00  0.00    -0.267 OA
ENDROOT
BRANCH   6  12
ATOM     12  N   UNL     1      -0.019   1.201   0.013  0.00  0.00    +0.056 N 
ATOM     13  O   UNL     1      -0.005  -0.017  -0.001  0.00  0.00    -0.126 OA
ATOM     14  O   UNL     1       1.030   1.821   0.013  0.00  0.00    -0.126 OA
ENDBRANCH   6  12
BRANCH   1  15
ATOM     15  C   UNL     1      -7.441   3.865   0.056  0.00  0.00    +0.222 C 
BRANCH  15  17
ATOM     16  N   UNL     1      -9.086   4.635   1.734  0.00  0.00    -0.284 N 
ATOM     17  C   UNL     1      -7.892   4.065   1.480  0.00  0.00    +0.237 C 
ATOM     18  O   UNL     1      -7.180   3.713   2.397  0.00  0.00    -0.274 OA
ATOM     19  H   UNL     1      -9.626   4.978   1.005  0.00  0.00    +0.155 HD
BRANCH  16  25
ATOM     20  C   UNL     1     -10.905   4.613   3.324  0.00  0.00    +0.026 A 
ATOM     21  C   UNL     1     -11.358   4.705   4.626  0.00  0.00    +0.041 A 
ATOM     22  C   UNL     1     -10.464   4.928   5.658  0.00  0.00    +0.142 A 
ATOM     23  C   UNL     1      -9.110   5.054   5.389  0.00  0.00    +0.078 A 
ATOM     24  C   UNL     1      -8.652   4.957   4.089  0.00  0.00    +0.046 A 
ATOM     25  C   UNL     1      -9.548   4.734   3.053  0.00  0.00    +0.035 A 
ATOM     26 CL   UNL     1      -7.990   5.334   6.685  0.00  0.00    -0.081 Cl
ATOM     27  F   UNL     1     -10.910   5.023   6.930  0.00  0.00    -0.204 F 
ENDBRANCH  16  25
ENDBRANCH  15  17
ENDBRANCH   1  15
TORSDOF 4
