REMARK  Name = ZINC52903990
REMARK  4 active torsions:
REMARK  status: ('A' for Active; 'I' for Inactive)
REMARK    1  A    between atoms: C_1  and  C_2
REMARK    2  A    between atoms: N_7  and  C_9
REMARK    3  A    between atoms: C_14  and  C_15
REMARK    4  A    between atoms: N_16  and  O_17
REMARK                            x       y       z     vdW  Elec       q    Type
REMARK                         _______ _______ _______ _____ _____    ______ ____
ROOT
ATOM      1  C   UNL     1       0.433  -2.787   2.194  0.00  0.00    +0.042 A 
ATOM      2  C   UNL     1       1.300  -3.128   3.223  0.00  0.00    +0.024 A 
ATOM      3  C   UNL     1       0.866  -3.936   4.256  0.00  0.00    +0.003 A 
ATOM      4  C   UNL     1      -0.435  -4.411   4.274  0.00  0.00    +0.021 A 
ATOM      5  C   UNL     1      -1.311  -4.081   3.260  0.00  0.00    +0.053 A 
ATOM      6  C   UNL     1      -0.886  -3.261   2.212  0.00  0.00    +0.057 A 
ATOM      7 CL   UNL     1      -2.940  -4.681   3.289  0.00  0.00    -0.083 Cl
ENDROOT
BRANCH   1  13
ATOM      8  C   UNL     1      -0.019   1.526   0.010  0.00  0.00    +0.009 C 
ATOM      9  C   UNL     1       0.002  -0.004   0.002  0.00  0.00    +0.003 C 
ATOM     10  C   UNL     1       0.720  -0.498  -1.256  0.00  0.00    +0.006 C 
ATOM     11  C   UNL     1       0.712  -2.028  -1.282  0.00  0.00    +0.019 C 
ATOM     12  C   UNL     1       1.463  -2.559  -0.057  0.00  0.00    +0.105 C 
ATOM     13  N   UNL     1       0.869  -1.973   1.153  0.00  0.00    -0.329 N 
ATOM     14  C   UNL     1       0.744  -0.512   1.242  0.00  0.00    +0.108 C 
ENDBRANCH   1  13
BRANCH   6  15
ATOM     15  C   UNL     1      -1.820  -2.900   1.125  0.00  0.00    +0.166 C 
ATOM     16  N   UNL     1      -1.911  -3.654   0.068  0.00  0.00    -0.071 NA
ATOM     17  N   UNL     1      -2.599  -1.760   1.232  0.00  0.00    -0.340 N 
ATOM     18  H   UNL     1      -2.531  -1.198   2.019  0.00  0.00    +0.144 HD
ATOM     19  H   UNL     1      -3.212  -1.523   0.518  0.00  0.00    +0.144 HD
BRANCH  16  20
ATOM     20  O   UNL     1      -2.807  -3.309  -0.973  0.00  0.00    -0.408 OA
ATOM     21  H   UNL     1      -2.804  -3.928  -1.716  0.00  0.00    +0.328 HD
ENDBRANCH  16  20
ENDBRANCH   6  15
TORSDOF 3
