REMARK  Name = ZINC01609351
REMARK  4 active torsions:
REMARK  status: ('A' for Active; 'I' for Inactive)
REMARK    1  A    between atoms: C_1  and  C_2
REMARK    2  A    between atoms: C_3  and  C_22
REMARK    3  A    between atoms: C_6  and  C_16
REMARK    4  A    between atoms: C_9  and  C_13
REMARK                            x       y       z     vdW  Elec       q    Type
REMARK                         _______ _______ _______ _____ _____    ______ ____
ROOT
ATOM      1  C   UNL     1      -4.661   4.242   1.084  0.00  0.00    +0.062 C 
ATOM      2  C   UNL     1      -3.397   3.385   1.184  0.00  0.00    +0.144 C 
ATOM      3  C   UNL     1      -2.430   3.758   0.065  0.00  0.00    +0.071 C 
ATOM      4  C   UNL     1      -3.159   3.542  -1.268  0.00  0.00    +0.048 C 
ATOM      5  C   UNL     1      -3.736   2.160  -1.370  0.00  0.00    -0.039 C 
ATOM      6  C   UNL     1      -4.020   1.393  -0.282  0.00  0.00    +0.012 C 
ATOM      7  C   UNL     1      -3.750   1.919   0.983  0.00  0.00    +0.015 C 
ATOM      8  C   UNL     1      -3.756   1.366   2.242  0.00  0.00    +0.127 C 
ATOM      9  C   UNL     1      -3.162   2.337   3.170  0.00  0.00    +0.345 C 
ATOM     10  O   UNL     1      -2.979   2.145   4.356  0.00  0.00    -0.245 OA
ATOM     11  O   UNL     1      -2.848   3.476   2.513  0.00  0.00    -0.449 OA
ENDROOT
BRANCH   5  12
ATOM     12  C   UNL     1      -4.007   1.611  -2.705  0.00  0.00    -0.022 A 
ATOM     13  C   UNL     1      -2.957   1.408  -3.609  0.00  0.00    +0.008 A 
ATOM     14  C   UNL     1      -3.219   0.887  -4.858  0.00  0.00    +0.001 A 
ATOM     15  C   UNL     1      -4.517   0.574  -5.223  0.00  0.00    +0.000 A 
ATOM     16  C   UNL     1      -5.562   0.776  -4.337  0.00  0.00    +0.001 A 
ATOM     17  C   UNL     1      -5.317   1.291  -3.083  0.00  0.00    +0.008 A 
ENDBRANCH   5  12
BRANCH   3  18
ATOM     18  C   UNL     1      -1.209   2.877   0.129  0.00  0.00    -0.040 A 
ATOM     19  C   UNL     1      -1.054   1.845  -0.778  0.00  0.00    +0.004 A 
ATOM     20  C   UNL     1       0.064   1.034  -0.716  0.00  0.00    +0.000 A 
ATOM     21  C   UNL     1       1.031   1.261   0.245  0.00  0.00    +0.000 A 
ATOM     22  C   UNL     1       0.877   2.296   1.149  0.00  0.00    +0.000 A 
ATOM     23  C   UNL     1      -0.243   3.104   1.090  0.00  0.00    +0.004 A 
ENDBRANCH   3  18
BRANCH   8  24
ATOM     24  C   UNL     1      -4.267   0.035   2.597  0.00  0.00    +0.249 C 
ATOM     25  O   UNL     1      -4.739  -0.684   1.737  0.00  0.00    -0.270 OA
ATOM     26  N   UNL     1      -4.213  -0.388   3.876  0.00  0.00    -0.325 N 
ATOM     27  H   UNL     1      -3.837   0.186   4.561  0.00  0.00    +0.145 HD
ATOM     28  H   UNL     1      -4.551  -1.267   4.110  0.00  0.00    +0.145 HD
ENDBRANCH   8  24
TORSDOF 3
