REMARK  Name = ZINC02228067
REMARK  8 active torsions:
REMARK  status: ('A' for Active; 'I' for Inactive)
REMARK    1  A    between atoms: C_1  and  C_2
REMARK    2  A    between atoms: C_2  and  C_3
REMARK    3  A    between atoms: C_2  and  C_4
REMARK    4  A    between atoms: C_4  and  C_5
REMARK    5  A    between atoms: C_14  and  C_17
REMARK    6  A    between atoms: C_17  and  C_18
REMARK    7  A    between atoms: C_17  and  C_19
REMARK    8  A    between atoms: N_22  and  N_23
REMARK                            x       y       z     vdW  Elec       q    Type
REMARK                         _______ _______ _______ _____ _____    ______ ____
ROOT
ATOM      1  C   UNL     1      -1.416  -2.035  -0.119  0.00  0.00    +0.131 A 
ATOM      2  N   UNL     1      -0.272  -2.657  -0.214  0.00  0.00    -0.225 NA
ATOM      3  C   UNL     1      -0.221  -3.981  -0.331  0.00  0.00    +0.116 A 
ATOM      4  C   UNL     1      -1.382  -4.771  -0.359  0.00  0.00    +0.077 A 
ATOM      5  C   UNL     1      -1.169  -6.209  -0.493  0.00  0.00    -0.018 A 
ATOM      6  C   UNL     1       0.110  -6.637  -0.576  0.00  0.00    +0.021 A 
ATOM      7  S   UNL     1       1.092  -5.167  -0.482  0.00  0.00    -0.071 S 
ATOM      8  C   UNL     1       0.562  -8.058  -0.716  0.00  0.00    +0.203 C 
ATOM      9  O   UNL     1      -0.560  -8.908  -0.430  0.00  0.00    -0.371 OA
ATOM     10  C   UNL     1      -1.753  -8.530  -1.123  0.00  0.00    +0.126 C 
ATOM     11  C   UNL     1      -2.308  -7.225  -0.544  0.00  0.00    +0.068 C 
ATOM     12  C   UNL     1      -2.620  -4.057  -0.253  0.00  0.00    +0.279 A 
ATOM     13  O   UNL     1      -3.683  -4.654  -0.267  0.00  0.00    -0.265 OA
ATOM     14  N   UNL     1      -2.590  -2.717  -0.132  0.00  0.00    -0.218 N 
ENDROOT
BRANCH  10  15
ATOM     15  C   UNL     1      -2.800  -9.635  -0.969  0.00  0.00    +0.012 C 
ATOM     16  C   UNL     1      -2.257 -10.938  -1.559  0.00  0.00    +0.010 C 
ATOM     17  C   UNL     1      -3.113  -9.839   0.515  0.00  0.00    +0.010 C 
ENDBRANCH  10  15
BRANCH  14  18
ATOM     18  N   UNL     1      -3.765  -2.028  -0.025  0.00  0.00    -0.294 N 
ATOM     19  H   UNL     1      -4.555  -2.655  -0.048  0.00  0.00    +0.163 HD
ATOM     20  H   UNL     1      -3.777  -1.462   0.810  0.00  0.00    +0.163 HD
ENDBRANCH  14  18
BRANCH   1  21
ATOM     21  C   UNL     1      -1.433  -0.534   0.013  0.00  0.00    +0.079 C 
BRANCH  21  23
ATOM     22  C   UNL     1      -0.019   1.526   0.010  0.00  0.00    +0.007 C 
ATOM     23  C   UNL     1       0.002  -0.004   0.002  0.00  0.00    -0.010 C 
ATOM     24  C   UNL     1       0.742  -0.511   1.242  0.00  0.00    +0.007 C 
ENDBRANCH  21  23
ENDBRANCH   1  21
TORSDOF 4
