REMARK  Name = ZINC21337201
REMARK  8 active torsions:
REMARK  status: ('A' for Active; 'I' for Inactive)
REMARK    1  A    between atoms: C_1  and  C_2
REMARK    2  A    between atoms: C_9  and  C_11
REMARK    3  A    between atoms: N_13  and  C_14
REMARK    4  A    between atoms: N_13  and  C_20
REMARK    5  A    between atoms: C_14  and  C_15
REMARK    6  A    between atoms: C_21  and  N_36
REMARK    7  A    between atoms: N_22  and  C_29
REMARK    8  A    between atoms: C_29  and  C_30
REMARK                            x       y       z     vdW  Elec       q    Type
REMARK                         _______ _______ _______ _____ _____    ______ ____
ROOT
ATOM      1  C   UNL     1      -1.086  -1.008   0.241  0.00  0.00    +0.258 C 
ATOM      2  O   UNL     1      -0.897  -2.211   0.279  0.00  0.00    -0.269 OA
ATOM      3  N   UNL     1      -2.342  -0.526   0.163  0.00  0.00    -0.252 N 
ENDROOT
BRANCH   1  11
ATOM      4  C   UNL     1       6.000   1.656   0.515  0.00  0.00    +0.008 C 
ATOM      5  C   UNL     1       4.515   1.751   0.160  0.00  0.00    -0.009 C 
ATOM      6  C   UNL     1       3.918   3.006   0.802  0.00  0.00    +0.009 C 
ATOM      7  C   UNL     1       2.514   3.237   0.224  0.00  0.00    +0.043 C 
ATOM      8  C   UNL     1       1.766   1.941   0.271  0.00  0.00    -0.006 A 
ATOM      9  C   UNL     1       2.288   0.695   0.470  0.00  0.00    -0.036 A 
ATOM     10  C   UNL     1       1.393  -0.363   0.475  0.00  0.00    +0.024 A 
ATOM     11  C   UNL     1       0.053  -0.086   0.281  0.00  0.00    +0.075 A 
ATOM     12  S   UNL     1       0.071   1.688   0.090  0.00  0.00    -0.088 S 
ATOM     13  C   UNL     1       3.789   0.507   0.673  0.00  0.00    +0.039 C 
ENDBRANCH   1  11
BRANCH   3  14
ATOM     14  C   UNL     1      -3.442  -1.405   0.242  0.00  0.00    +0.140 A 
ATOM     15  C   UNL     1      -3.593  -2.425  -0.676  0.00  0.00    +0.128 A 
ATOM     16  N   UNL     1      -4.674  -3.269  -0.571  0.00  0.00    -0.276 N 
ATOM     17  C   UNL     1      -5.578  -3.097   0.410  0.00  0.00    +0.331 A 
ATOM     18  O   UNL     1      -6.530  -3.851   0.483  0.00  0.00    -0.246 OA
ATOM     19  N   UNL     1      -5.450  -2.106   1.311  0.00  0.00    -0.273 N 
ATOM     20  H   UNL     1      -6.201  -1.984   2.105  0.00  0.00    +0.173 HD
ATOM     21  C   UNL     1      -4.407  -1.255   1.255  0.00  0.00    +0.277 A 
ATOM     22  O   UNL     1      -4.301  -0.360   2.076  0.00  0.00    -0.266 OA
BRANCH  15  23
ATOM     23  N   UNL     1      -2.671  -2.597  -1.681  0.00  0.00    -0.343 N 
ATOM     24  H   UNL     1      -2.798  -3.412  -2.410  0.00  0.00    +0.144 HD
ATOM     25  H   UNL     1      -1.807  -1.921  -1.758  0.00  0.00    +0.144 HD
ENDBRANCH  15  23
BRANCH  16  26
ATOM     26  C   UNL     1      -4.844  -4.358  -1.535  0.00  0.00    +0.163 C 
BRANCH  26  27
ATOM     27  C   UNL     1      -5.652  -3.868  -2.709  0.00  0.00    -0.028 A 
ATOM     28  C   UNL     1      -7.029  -3.982  -2.696  0.00  0.00    +0.005 A 
ATOM     29  C   UNL     1      -7.771  -3.528  -3.770  0.00  0.00    +0.000 A 
ATOM     30  C   UNL     1      -7.134  -2.970  -4.863  0.00  0.00    +0.000 A 
ATOM     31  C   UNL     1      -5.756  -2.861  -4.879  0.00  0.00    +0.000 A 
ATOM     32  C   UNL     1      -5.015  -3.310  -3.802  0.00  0.00    +0.005 A 
ENDBRANCH  26  27
ENDBRANCH  16  26
ENDBRANCH   3  14
BRANCH   3  33
ATOM     33  C   UNL     1      -2.564   0.913  -0.004  0.00  0.00    +0.188 C 
BRANCH  33  34
ATOM     34  C   UNL     1      -2.489   1.266  -1.467  0.00  0.00    +0.122 A 
ATOM     35  C   UNL     1      -3.522   1.273  -2.329  0.00  0.00    +0.046 A 
ATOM     36  C   UNL     1      -3.004   1.661  -3.586  0.00  0.00    +0.041 A 
ATOM     37  C   UNL     1      -1.685   1.868  -3.417  0.00  0.00    +0.195 A 
ATOM     38  O   UNL     1      -1.380   1.633  -2.131  0.00  0.00    -0.466 OA
ENDBRANCH  33  34
ENDBRANCH   3  33
TORSDOF 7
