REMARK  Name = ZINC15797039
REMARK  5 active torsions:
REMARK  status: ('A' for Active; 'I' for Inactive)
REMARK    1  A    between atoms: C_1  and  C_2
REMARK    2  A    between atoms: C_8  and  N_10
REMARK    3  A    between atoms: C_11  and  C_13
REMARK    4  A    between atoms: C_14  and  C_15
REMARK    5  A    between atoms: C_18  and  C_21
REMARK                            x       y       z     vdW  Elec       q    Type
REMARK                         _______ _______ _______ _____ _____    ______ ____
ROOT
ATOM      1  N   UNL     1       0.031  -0.392   2.498  0.00  0.00    -0.309 N 
ATOM      2  C   UNL     1       1.002  -1.057   3.155  0.00  0.00    +0.237 C 
ATOM      3  O   UNL     1       1.863  -0.440   3.755  0.00  0.00    -0.271 OA
ATOM      4  H   UNL     1      -0.655  -0.884   2.020  0.00  0.00    +0.149 HD
ENDROOT
BRANCH   1  11
ATOM      5  C   UNL     1      -0.013   1.086   0.008  0.00  0.00    +0.009 C 
ATOM      6  C   UNL     1      -0.729   1.579   1.267  0.00  0.00    +0.006 C 
ATOM      7  C   UNL     1      -2.164   1.050   1.278  0.00  0.00    +0.005 C 
ATOM      8  C   UNL     1      -2.880   1.543   2.537  0.00  0.00    +0.000 C 
ATOM      9  C   UNL     1      -2.140   1.036   3.776  0.00  0.00    +0.002 C 
ATOM     10  C   UNL     1      -0.705   1.566   3.765  0.00  0.00    +0.022 C 
ATOM     11  C   UNL     1       0.011   1.072   2.506  0.00  0.00    +0.076 C 
ENDBRANCH   1  11
BRANCH   2  12
ATOM     12  C   UNL     1       1.022  -2.522   3.147  0.00  0.00    +0.068 C 
ATOM     13  C   UNL     1       1.994  -3.187   3.804  0.00  0.00    +0.013 C 
BRANCH  13  14
ATOM     14  C   UNL     1       2.014  -4.658   3.796  0.00  0.00    -0.025 A 
ATOM     15  C   UNL     1       1.021  -5.368   3.111  0.00  0.00    +0.009 A 
ATOM     16  C   UNL     1       1.044  -6.739   3.100  0.00  0.00    +0.019 A 
ATOM     17  C   UNL     1       2.051  -7.427   3.781  0.00  0.00    +0.052 A 
ATOM     18  C   UNL     1       3.041  -6.719   4.469  0.00  0.00    +0.019 A 
ATOM     19  C   UNL     1       3.023  -5.348   4.477  0.00  0.00    +0.009 A 
BRANCH  17  20
ATOM     20  C   UNL     1       2.070  -8.859   3.774  0.00  0.00    +0.099 C 
ATOM     21  N   UNL     1       2.085  -9.995   3.768  0.00  0.00    -0.191 NA
ENDBRANCH  17  20
ENDBRANCH  13  14
ENDBRANCH   2  12
TORSDOF 4
