REMARK  Name = ZINC49847859
REMARK  4 active torsions:
REMARK  status: ('A' for Active; 'I' for Inactive)
REMARK    1  A    between atoms: C_1  and  C_2
REMARK    2  A    between atoms: C_5  and  C_8
REMARK    3  A    between atoms: C_8  and  N_9
REMARK    4  A    between atoms: C_16  and  C_18
REMARK                            x       y       z     vdW  Elec       q    Type
REMARK                         _______ _______ _______ _____ _____    ______ ____
ROOT
ATOM      1  N   UNL     1       0.663  -5.525   0.342  0.00  0.00    +0.382 N 
ATOM      2  C   UNL     1       1.337  -4.943   1.508  0.00  0.00    -0.078 C 
ATOM      3  C   UNL     1       2.846  -4.875   1.246  0.00  0.00    -0.011 C 
ATOM      4  C   UNL     1       3.347  -6.283   0.910  0.00  0.00    -0.019 C 
ATOM      5  C   UNL     1       2.547  -7.003  -0.181  0.00  0.00    -0.011 C 
ATOM      6  C   UNL     1       1.058  -6.929   0.175  0.00  0.00    -0.078 C 
ATOM      7  C   UNL     1       4.850  -6.542   0.981  0.00  0.00    +0.023 C 
ATOM      8  C   UNL     1       3.920  -7.127   2.047  0.00  0.00    +0.109 C 
ATOM      9  H   UNL     1       0.920  -5.006  -0.484  0.00  0.00    -0.081 HD
ENDROOT
BRANCH   8  10
ATOM     10  C   UNL     1       3.960  -6.508   3.420  0.00  0.00    +0.360 C 
ATOM     11  O   UNL     1       3.080  -6.757   4.227  0.00  0.00    -0.246 OA
ATOM     12  O   UNL     1       4.872  -5.759   3.725  0.00  0.00    -0.246 OA
ENDBRANCH   8  10
BRANCH   1  13
ATOM     13  C   UNL     1      -0.791  -5.449   0.531  0.00  0.00    -0.043 C 
BRANCH  13  18
ATOM     14  C   UNL     1      -2.424   0.092   0.716  0.00  0.00    +0.044 C 
ATOM     15  C   UNL     1      -1.998  -1.353   0.668  0.00  0.00    -0.050 A 
ATOM     16  C   UNL     1      -1.957  -2.022  -0.542  0.00  0.00    +0.003 A 
ATOM     17  C   UNL     1      -1.567  -3.347  -0.586  0.00  0.00    +0.002 A 
ATOM     18  C   UNL     1      -1.216  -4.003   0.579  0.00  0.00    -0.064 A 
ATOM     19  C   UNL     1      -1.256  -3.334   1.788  0.00  0.00    +0.002 A 
ATOM     20  C   UNL     1      -1.643  -2.008   1.832  0.00  0.00    +0.003 A 
ENDBRANCH  13  18
ENDBRANCH   1  13
TORSDOF 3
