REMARK  Name = ZINC55452106
REMARK  7 active torsions:
REMARK  status: ('A' for Active; 'I' for Inactive)
REMARK    1  A    between atoms: C_1  and  O_2
REMARK    2  A    between atoms: O_2  and  C_3
REMARK    3  A    between atoms: C_3  and  C_5
REMARK    4  A    between atoms: C_5  and  N_11
REMARK    5  A    between atoms: C_12  and  C_14
REMARK    6  A    between atoms: C_17  and  C_20
REMARK    7  A    between atoms: C_20  and  N_21
REMARK                            x       y       z     vdW  Elec       q    Type
REMARK                         _______ _______ _______ _____ _____    ______ ____
ROOT
ATOM      1  N   UNL     1       0.812  -2.656   0.229  0.00  0.00    -0.296 N 
ATOM      2  C   UNL     1      -0.125  -2.414   1.167  0.00  0.00    +0.245 C 
ATOM      3  O   UNL     1      -1.098  -1.738   0.895  0.00  0.00    -0.270 OA
ATOM      4  H   UNL     1       1.588  -3.195   0.446  0.00  0.00    +0.150 HD
ENDROOT
BRANCH   1   5
ATOM      5  C   UNL     1       0.657  -2.104  -1.120  0.00  0.00    +0.132 C 
ATOM      6  C   UNL     1      -0.635  -2.634  -1.743  0.00  0.00    +0.037 C 
ATOM      7  C   UNL     1      -0.575  -4.160  -1.821  0.00  0.00    +0.003 C 
ATOM      8  C   UNL     1       0.617  -4.580  -2.684  0.00  0.00    +0.000 C 
ATOM      9  C   UNL     1       1.909  -4.050  -2.060  0.00  0.00    +0.003 C 
ATOM     10  C   UNL     1       1.849  -2.524  -1.982  0.00  0.00    +0.037 C 
BRANCH   5  11
ATOM     11  C   UNL     1       0.598  -0.600  -1.043  0.00  0.00    +0.331 C 
ATOM     12  O   UNL     1       1.088   0.070  -1.921  0.00  0.00    -0.248 OA
BRANCH  11  14
ATOM     13  C   UNL     1      -0.017   1.425   0.010  0.00  0.00    +0.280 C 
ATOM     14  O   UNL     1       0.002  -0.004   0.002  0.00  0.00    -0.466 OA
ENDBRANCH  11  14
ENDBRANCH   5  11
ENDBRANCH   1   5
BRANCH   2  15
ATOM     15  C   UNL     1       0.031  -2.972   2.527  0.00  0.00    +0.037 A 
ATOM     16  C   UNL     1       1.149  -3.744   2.845  0.00  0.00    +0.013 A 
ATOM     17  C   UNL     1       1.289  -4.260   4.116  0.00  0.00    +0.006 A 
ATOM     18  C   UNL     1       0.322  -4.015   5.076  0.00  0.00    -0.030 A 
ATOM     19  C   UNL     1      -0.789  -3.252   4.767  0.00  0.00    +0.006 A 
ATOM     20  C   UNL     1      -0.938  -2.724   3.502  0.00  0.00    +0.013 A 
BRANCH  18  21
ATOM     21  C   UNL     1       0.481  -4.583   6.463  0.00  0.00    +0.141 C 
BRANCH  21  22
ATOM     22  N   UNL     1       1.208  -3.627   7.302  0.00  0.00    -0.295 N 
ATOM     23  C   UNL     1       1.468  -3.924   8.590  0.00  0.00    +0.297 C 
ATOM     24  O   UNL     1       1.099  -4.984   9.057  0.00  0.00    -0.253 OA
ATOM     25  N   UNL     1       2.137  -3.044   9.362  0.00  0.00    -0.313 N 
ATOM     26  H   UNL     1       1.502  -2.781   6.929  0.00  0.00    +0.151 HD
ATOM     27  H   UNL     1       2.432  -2.198   8.990  0.00  0.00    +0.146 HD
ATOM     28  H   UNL     1       2.324  -3.258  10.290  0.00  0.00    +0.146 HD
ENDBRANCH  21  22
ENDBRANCH  18  21
ENDBRANCH   2  15
TORSDOF 6
