REMARK  Name = ZINC39652686
REMARK  9 active torsions:
REMARK  status: ('A' for Active; 'I' for Inactive)
REMARK    1  A    between atoms: C_1  and  C_2
REMARK    2  A    between atoms: C_2  and  O_3
REMARK    3  A    between atoms: O_3  and  C_4
REMARK    4  A    between atoms: C_9  and  C_10
REMARK    5  A    between atoms: C_10  and  C_11
REMARK    6  A    between atoms: C_11  and  N_12
REMARK    7  A    between atoms: C_13  and  C_15
REMARK    8  A    between atoms: C_26  and  C_28
REMARK    9  A    between atoms: C_28  and  C_34
REMARK                            x       y       z     vdW  Elec       q    Type
REMARK                         _______ _______ _______ _____ _____    ______ ____
ROOT
ATOM      1  C   UNL     1      -7.203   1.206  -2.527  0.00  0.00    +0.100 C 
ATOM      2  C   UNL     1      -8.451   0.409  -2.087  0.00  0.00    +0.121 C 
ATOM      3  N   UNL     1      -9.551   0.945  -2.924  0.00  0.00    -0.300 N 
ATOM      4  C   UNL     1      -8.935   1.148  -4.257  0.00  0.00    +0.115 C 
ATOM      5  C   UNL     1      -7.524   1.689  -3.951  0.00  0.00    -0.004 C 
ATOM      6  C   UNL     1      -6.514   1.118  -4.943  0.00  0.00    -0.010 C 
ATOM      7  C   UNL     1      -6.819   1.659  -6.343  0.00  0.00    -0.082 C 
ATOM      8  N   UNL     1      -6.747   3.124  -6.330  0.00  0.00    +0.379 N 
ATOM      9  C   UNL     1      -7.783   3.669  -5.444  0.00  0.00    -0.082 C 
ATOM     10  C   UNL     1      -7.519   3.214  -4.006  0.00  0.00    -0.010 C 
ATOM     11  C   UNL     1     -10.824   1.191  -2.556  0.00  0.00    +0.222 C 
ATOM     12  O   UNL     1     -11.634   1.554  -3.382  0.00  0.00    -0.275 OA
ATOM     13  H   UNL     1      -5.838   3.412  -5.999  0.00  0.00    -0.086 HD
ATOM     14  H   UNL     1      -6.887   3.475  -7.265  0.00  0.00    -0.086 HD
ENDROOT
BRANCH  11  15
ATOM     15  C   UNL     1     -11.240   1.016  -1.118  0.00  0.00    +0.044 C 
ATOM     16  C   UNL     1     -10.899  -0.403  -0.657  0.00  0.00    +0.016 C 
ATOM     17  C   UNL     1     -11.643  -1.415  -1.531  0.00  0.00    +0.001 C 
ATOM     18  C   UNL     1     -13.151  -1.186  -1.405  0.00  0.00    +0.000 C 
ATOM     19  C   UNL     1     -13.492   0.233  -1.865  0.00  0.00    +0.001 C 
ATOM     20  C   UNL     1     -12.748   1.245  -0.992  0.00  0.00    +0.016 C 
ATOM     21  C   UNL     1     -10.496   2.028  -0.245  0.00  0.00    +0.021 C 
ENDBRANCH  11  15
BRANCH   1  23
ATOM     22  N   UNL     1      -4.755   0.856  -2.478  0.00  0.00    -0.315 N 
ATOM     23  C   UNL     1      -5.988   0.315  -2.536  0.00  0.00    +0.218 C 
ATOM     24  O   UNL     1      -6.119  -0.889  -2.596  0.00  0.00    -0.275 OA
ATOM     25  H   UNL     1      -4.649   1.819  -2.430  0.00  0.00    +0.149 HD
BRANCH  22  26
ATOM     26  C   UNL     1      -3.573  -0.010  -2.487  0.00  0.00    +0.109 C 
BRANCH  26  27
ATOM     27  C   UNL     1      -2.310   0.850  -2.413  0.00  0.00    +0.057 C 
BRANCH  27  33
ATOM     28  C   UNL     1      -0.565  -0.480  -3.626  0.00  0.00    +0.124 A 
ATOM     29  C   UNL     1       0.557  -1.296  -3.632  0.00  0.00    +0.046 A 
ATOM     30  C   UNL     1       1.141  -1.674  -2.438  0.00  0.00    +0.004 A 
ATOM     31  C   UNL     1       0.608  -1.240  -1.238  0.00  0.00    +0.000 A 
ATOM     32  C   UNL     1      -0.511  -0.427  -1.230  0.00  0.00    +0.007 A 
ATOM     33  C   UNL     1      -1.095  -0.042  -2.422  0.00  0.00    -0.004 A 
BRANCH  28  34
ATOM     34  O   UNL     1      -1.140  -0.107  -4.799  0.00  0.00    -0.492 OA
BRANCH  34  36
ATOM     35  C   UNL     1      -1.321  -0.074  -7.209  0.00  0.00    +0.048 C 
ATOM     36  C   UNL     1      -0.541  -0.596  -6.001  0.00  0.00    +0.225 C 
ENDBRANCH  34  36
ENDBRANCH  28  34
ENDBRANCH  27  33
ENDBRANCH  26  27
ENDBRANCH  22  26
ENDBRANCH   1  23
TORSDOF 7
