REMARK  Name = ZINC59792139
REMARK  7 active torsions:
REMARK  status: ('A' for Active; 'I' for Inactive)
REMARK    1  A    between atoms: C_2  and  C_3
REMARK    2  A    between atoms: C_3  and  N_4
REMARK    3  A    between atoms: C_5  and  C_21
REMARK    4  A    between atoms: C_8  and  S_9
REMARK    5  A    between atoms: S_9  and  C_10
REMARK    6  A    between atoms: C_10  and  C_11
REMARK    7  A    between atoms: C_24  and  N_27
REMARK                            x       y       z     vdW  Elec       q    Type
REMARK                         _______ _______ _______ _____ _____    ______ ____
ROOT
ATOM      1  N   UNL     1       1.840  -1.895   0.875  0.00  0.00    -0.298 N 
ATOM      2  C   UNL     1       1.843  -1.580   2.214  0.00  0.00    +0.165 A 
ATOM      3  N   UNL     1       1.352  -2.614   2.855  0.00  0.00    -0.128 NA
ATOM      4  N   UNL     1       1.046  -3.542   2.020  0.00  0.00    -0.122 NA
ATOM      5  C   UNL     1       1.317  -3.154   0.794  0.00  0.00    +0.193 A 
ENDROOT
BRANCH   2   6
ATOM      6  C   UNL     1       2.312  -0.314   2.817  0.00  0.00    +0.019 A 
ATOM      7  C   UNL     1       2.927  -0.320   4.070  0.00  0.00    +0.014 A 
ATOM      8  C   UNL     1       3.363   0.864   4.627  0.00  0.00    +0.033 A 
ATOM      9  C   UNL     1       3.192   2.056   3.947  0.00  0.00    +0.126 A 
ATOM     10  C   UNL     1       2.583   2.070   2.704  0.00  0.00    +0.033 A 
ATOM     11  C   UNL     1       2.148   0.892   2.133  0.00  0.00    +0.014 A 
BRANCH   9  12
ATOM     12  N   UNL     1       3.662   3.324   4.551  0.00  0.00    +0.056 N 
ATOM     13  O   UNL     1       4.194   3.316   5.636  0.00  0.00    -0.126 OA
ATOM     14  O   UNL     1       3.514   4.367   3.958  0.00  0.00    -0.126 OA
ENDBRANCH   9  12
ENDBRANCH   2   6
BRANCH   1  15
ATOM     15  C   UNL     1       2.296  -1.054  -0.234  0.00  0.00    +0.152 C 
BRANCH  15  17
ATOM     16  C   UNL     1       1.146   0.969  -0.975  0.00  0.00    +0.005 C 
ATOM     17  C   UNL     1       1.117  -0.334  -0.836  0.00  0.00    -0.013 C 
ENDBRANCH  15  17
ENDBRANCH   1  15
BRANCH   5  18
ATOM     18  S   UNL     1       1.060  -4.087  -0.679  0.00  0.00    -0.078 S 
BRANCH  18  19
ATOM     19  C   UNL     1       0.348  -5.648  -0.090  0.00  0.00    +0.151 C 
BRANCH  19  20
ATOM     20  C   UNL     1       0.076  -6.551  -1.266  0.00  0.00    +0.118 A 
ATOM     21  N   UNL     1      -1.087  -6.582  -1.971  0.00  0.00    -0.341 N 
ATOM     22  H   UNL     1      -1.873  -6.038  -1.809  0.00  0.00    +0.167 HD
ATOM     23  C   UNL     1      -0.941  -7.533  -2.962  0.00  0.00    +0.066 A 
ATOM     24  C   UNL     1      -1.764  -8.010  -3.973  0.00  0.00    +0.028 A 
ATOM     25  C   UNL     1      -1.304  -8.995  -4.821  0.00  0.00    +0.002 A 
ATOM     26  C   UNL     1      -0.025  -9.512  -4.669  0.00  0.00    +0.002 A 
ATOM     27  C   UNL     1       0.798  -9.055  -3.679  0.00  0.00    +0.030 A 
ATOM     28  C   UNL     1       0.353  -8.057  -2.808  0.00  0.00    +0.089 A 
ATOM     29  N   UNL     1       0.921  -7.409  -1.759  0.00  0.00    -0.232 NA
ENDBRANCH  19  20
ENDBRANCH  18  19
ENDBRANCH   5  18
TORSDOF 7
