REMARK  Name = ZINC44793043
REMARK  5 active torsions:
REMARK  status: ('A' for Active; 'I' for Inactive)
REMARK    1  A    between atoms: C_4  and  C_7
REMARK    2  A    between atoms: C_10  and  N_12
REMARK    3  A    between atoms: C_13  and  C_15
REMARK    4  A    between atoms: C_15  and  C_20
REMARK    5  A    between atoms: N_21  and  O_22
REMARK                            x       y       z     vdW  Elec       q    Type
REMARK                         _______ _______ _______ _____ _____    ______ ____
ROOT
ATOM      1  N   UNL     1       2.903  -1.856   2.042  0.00  0.00    -0.311 N 
ATOM      2  C   UNL     1       3.318  -2.215   3.273  0.00  0.00    +0.227 C 
ATOM      3  O   UNL     1       4.465  -2.570   3.446  0.00  0.00    -0.275 OA
ATOM      4  H   UNL     1       1.969  -1.644   1.888  0.00  0.00    +0.149 HD
ENDROOT
BRANCH   2   5
ATOM      5  C   UNL     1       2.359  -2.175   4.434  0.00  0.00    +0.105 C 
ATOM      6  C   UNL     1       1.775  -0.759   4.586  0.00  0.00    +0.024 C 
ATOM      7  C   UNL     1       2.187  -0.262   5.987  0.00  0.00    +0.001 C 
ATOM      8  C   UNL     1       3.446  -1.095   6.332  0.00  0.00    +0.001 C 
ATOM      9  C   UNL     1       3.104  -2.488   5.747  0.00  0.00    +0.024 C 
BRANCH   5  10
ATOM     10  C   UNL     1       1.248  -3.171   4.220  0.00  0.00    +0.147 C 
ATOM     11  N   UNL     1       0.259  -3.224   5.049  0.00  0.00    -0.076 NA
ATOM     12  N   UNL     1       1.289  -4.026   3.141  0.00  0.00    -0.343 N 
ATOM     13  H   UNL     1       2.068  -4.041   2.563  0.00  0.00    +0.144 HD
ATOM     14  H   UNL     1       0.538  -4.613   2.959  0.00  0.00    +0.144 HD
BRANCH  11  15
ATOM     15  O   UNL     1       0.275  -2.429   6.221  0.00  0.00    -0.408 OA
ATOM     16  H   UNL     1      -0.508  -2.536   6.779  0.00  0.00    +0.328 HD
ENDBRANCH  11  15
ENDBRANCH   5  10
ENDBRANCH   2   5
BRANCH   1  19
ATOM     17  C   UNL     1       3.526  -0.859  -0.233  0.00  0.00    +0.041 C 
ATOM     18  C   UNL     1       3.432  -2.376  -0.410  0.00  0.00    +0.033 C 
ATOM     19  C   UNL     1       3.861  -1.787   0.936  0.00  0.00    +0.081 C 
BRANCH  17  23
ATOM     20  C   UNL     1      -0.136   1.331  -0.026  0.00  0.00    +0.000 A 
ATOM     21  C   UNL     1       1.068   2.004  -0.116  0.00  0.00    +0.000 A 
ATOM     22  C   UNL     1       2.253   1.296  -0.182  0.00  0.00    +0.004 A 
ATOM     23  C   UNL     1       2.234  -0.086  -0.159  0.00  0.00    -0.042 A 
ATOM     24  C   UNL     1       1.030  -0.760  -0.069  0.00  0.00    +0.004 A 
ATOM     25  C   UNL     1      -0.155  -0.051  -0.004  0.00  0.00    +0.000 A 
ENDBRANCH  17  23
ENDBRANCH   1  19
TORSDOF 5
