REMARK  Name = ZINC39689410
REMARK  8 active torsions:
REMARK  status: ('A' for Active; 'I' for Inactive)
REMARK    1  A    between atoms: C_1  and  C_2
REMARK    2  A    between atoms: C_6  and  C_8
REMARK    3  A    between atoms: C_8  and  C_9
REMARK    4  A    between atoms: C_9  and  N_10
REMARK    5  A    between atoms: C_11  and  C_13
REMARK    6  A    between atoms: C_24  and  C_26
REMARK    7  A    between atoms: C_26  and  O_27
REMARK    8  A    between atoms: O_27  and  C_28
REMARK                            x       y       z     vdW  Elec       q    Type
REMARK                         _______ _______ _______ _____ _____    ______ ____
ROOT
ATOM      1  C   UNL     1       2.709  -4.908   6.063  0.00  0.00    +0.100 C 
ATOM      2  C   UNL     1       2.159  -4.028   7.208  0.00  0.00    +0.121 C 
ATOM      3  N   UNL     1       2.994  -4.376   8.381  0.00  0.00    -0.297 N 
ATOM      4  C   UNL     1       4.362  -4.529   7.829  0.00  0.00    +0.115 C 
ATOM      5  C   UNL     1       4.154  -5.234   6.474  0.00  0.00    -0.004 C 
ATOM      6  C   UNL     1       5.134  -4.688   5.440  0.00  0.00    -0.010 C 
ATOM      7  C   UNL     1       6.560  -5.075   5.840  0.00  0.00    -0.082 C 
ATOM      8  N   UNL     1       6.668  -6.537   5.921  0.00  0.00    +0.379 N 
ATOM      9  C   UNL     1       5.791  -7.045   6.982  0.00  0.00    -0.082 C 
ATOM     10  C   UNL     1       4.332  -6.742   6.630  0.00  0.00    -0.010 C 
ATOM     11  C   UNL     1       2.599  -4.522   9.662  0.00  0.00    +0.253 C 
ATOM     12  O   UNL     1       3.409  -4.812  10.517  0.00  0.00    -0.272 OA
ATOM     13  H   UNL     1       6.396  -6.942   5.038  0.00  0.00    -0.086 HD
ATOM     14  H   UNL     1       7.623  -6.792   6.125  0.00  0.00    -0.086 HD
ENDROOT
BRANCH   1  16
ATOM     15  N   UNL     1       2.563  -4.810   3.595  0.00  0.00    -0.315 N 
ATOM     16  C   UNL     1       2.692  -4.147   4.762  0.00  0.00    +0.218 C 
ATOM     17  O   UNL     1       2.795  -2.939   4.764  0.00  0.00    -0.275 OA
ATOM     18  H   UNL     1       2.481  -5.777   3.593  0.00  0.00    +0.149 HD
BRANCH  15  19
ATOM     19  C   UNL     1       2.547  -4.071   2.331  0.00  0.00    +0.109 C 
BRANCH  19  20
ATOM     20  C   UNL     1       2.391  -5.053   1.168  0.00  0.00    +0.054 C 
BRANCH  20  26
ATOM     21  C   UNL     1      -0.145  -2.657  -2.420  0.00  0.00    +0.044 C 
ATOM     22  C   UNL     1       1.161  -3.147  -1.850  0.00  0.00    -0.050 A 
ATOM     23  C   UNL     1       2.345  -2.898  -2.520  0.00  0.00    +0.003 A 
ATOM     24  C   UNL     1       3.542  -3.347  -1.998  0.00  0.00    +0.001 A 
ATOM     25  C   UNL     1       3.558  -4.045  -0.804  0.00  0.00    +0.004 A 
ATOM     26  C   UNL     1       2.375  -4.292  -0.133  0.00  0.00    -0.046 A 
ATOM     27  C   UNL     1       1.177  -3.840  -0.654  0.00  0.00    +0.007 A 
ENDBRANCH  20  26
ENDBRANCH  19  20
ENDBRANCH  15  19
ENDBRANCH   1  16
BRANCH  11  28
ATOM     28  C   UNL     1       1.152  -4.325  10.031  0.00  0.00    +0.324 C 
BRANCH  28  29
ATOM     29  O   UNL     1       0.986  -4.532  11.435  0.00  0.00    -0.483 OA
BRANCH  29  30
ATOM     30  C   UNL     1      -0.270  -4.392  11.935  0.00  0.00    +0.123 A 
ATOM     31  C   UNL     1      -1.322  -4.066  11.091  0.00  0.00    +0.046 A 
ATOM     32  C   UNL     1      -2.598  -3.924  11.601  0.00  0.00    +0.005 A 
ATOM     33  C   UNL     1      -2.828  -4.106  12.952  0.00  0.00    +0.020 A 
ATOM     34  C   UNL     1      -1.781  -4.430  13.797  0.00  0.00    +0.044 A 
ATOM     35  C   UNL     1      -0.503  -4.579  13.289  0.00  0.00    +0.065 A 
ATOM     36 CL   UNL     1      -2.073  -4.657  15.493  0.00  0.00    -0.083 Cl
ENDBRANCH  29  30
ENDBRANCH  28  29
ENDBRANCH  11  28
TORSDOF 7
