REMARK  Name = ZINC64760589
REMARK  6 active torsions:
REMARK  status: ('A' for Active; 'I' for Inactive)
REMARK    1  A    between atoms: C_1  and  N_2
REMARK    2  A    between atoms: C_11  and  C_13
REMARK    3  A    between atoms: N_15  and  C_16
REMARK    4  A    between atoms: C_21  and  S_22
REMARK    5  A    between atoms: S_22  and  C_23
REMARK    6  A    between atoms: C_23  and  C_24
REMARK                            x       y       z     vdW  Elec       q    Type
REMARK                         _______ _______ _______ _____ _____    ______ ____
ROOT
ATOM      1  C   UNL     1       0.068  -3.006   4.778  0.00  0.00    +0.248 C 
ATOM      2  O   UNL     1      -0.442  -4.109   4.808  0.00  0.00    -0.270 OA
ATOM      3  N   UNL     1       0.641  -2.498   5.888  0.00  0.00    -0.281 N 
ATOM      4  H   UNL     1       1.105  -1.647   5.848  0.00  0.00    +0.155 HD
ENDROOT
BRANCH   1  15
ATOM      5  C   UNL     1       0.028   1.438  -0.010  0.00  0.00    +0.130 C 
ATOM      6  N   UNL     1       0.044  -0.027  -0.012  0.00  0.00    -0.323 N 
ATOM      7  C   UNL     1       0.054  -0.782  -1.273  0.00  0.00    +0.200 C 
ATOM      8  C   UNL     1      -0.891  -1.950  -1.154  0.00  0.00    +0.235 C 
ATOM      9  O   UNL     1      -1.443  -2.378  -2.146  0.00  0.00    -0.274 OA
ATOM     10  N   UNL     1      -1.131  -2.523   0.041  0.00  0.00    -0.283 N 
ATOM     11  C   UNL     1      -0.543  -2.015   1.206  0.00  0.00    +0.055 A 
ATOM     12  C   UNL     1       0.056  -0.748   1.183  0.00  0.00    +0.051 A 
ATOM     13  C   UNL     1       0.644  -0.224   2.325  0.00  0.00    +0.026 A 
ATOM     14  C   UNL     1       0.648  -0.956   3.494  0.00  0.00    +0.015 A 
ATOM     15  C   UNL     1       0.061  -2.224   3.528  0.00  0.00    +0.039 A 
ATOM     16  C   UNL     1      -0.544  -2.752   2.374  0.00  0.00    +0.038 A 
ATOM     17  H   UNL     1      -1.716  -3.295   0.095  0.00  0.00    +0.155 HD
ENDBRANCH   1  15
BRANCH   3  18
ATOM     18  C   UNL     1       0.566  -3.199   7.098  0.00  0.00    +0.047 A 
ATOM     19  C   UNL     1       0.595  -4.585   7.102  0.00  0.00    +0.024 A 
ATOM     20  C   UNL     1       0.520  -5.274   8.298  0.00  0.00    +0.002 A 
ATOM     21  C   UNL     1       0.416  -4.586   9.493  0.00  0.00    +0.001 A 
ATOM     22  C   UNL     1       0.386  -3.204   9.499  0.00  0.00    +0.016 A 
ATOM     23  C   UNL     1       0.467  -2.503   8.304  0.00  0.00    +0.030 A 
BRANCH  23  24
ATOM     24  S   UNL     1       0.436  -0.742   8.309  0.00  0.00    -0.114 S 
BRANCH  24  25
ATOM     25  C   UNL     1       0.301  -0.310  10.066  0.00  0.00    +0.169 C 
BRANCH  25  26
ATOM     26  C   UNL     1       0.265   1.189  10.213  0.00  0.00    +0.221 C 
ATOM     27  O   UNL     1       0.323   1.897   9.230  0.00  0.00    -0.275 OA
ATOM     28  N   UNL     1       0.167   1.744  11.438  0.00  0.00    -0.329 N 
ATOM     29  H   UNL     1       0.120   1.178  12.224  0.00  0.00    +0.145 HD
ATOM     30  H   UNL     1       0.143   2.709  11.532  0.00  0.00    +0.145 HD
ENDBRANCH  25  26
ENDBRANCH  24  25
ENDBRANCH  23  24
ENDBRANCH   3  18
TORSDOF 5
