REMARK  Name = ZINC62776069
REMARK  3 active torsions:
REMARK  status: ('A' for Active; 'I' for Inactive)
REMARK    1  A    between atoms: C_6  and  C_7
REMARK    2  A    between atoms: C_7  and  C_9
REMARK    3  A    between atoms: C_7  and  N_16
REMARK                            x       y       z     vdW  Elec       q    Type
REMARK                         _______ _______ _______ _____ _____    ______ ____
ROOT
ATOM      1  C   UNL     1       1.235  -0.871  -0.014  0.00  0.00    +0.009 C 
ENDROOT
BRANCH   1   2
ATOM      2  C   UNL     1       1.188  -1.833   1.145  0.00  0.00    -0.034 A 
ATOM      3  C   UNL     1       0.793  -3.144   0.953  0.00  0.00    +0.026 A 
ATOM      4  C   UNL     1       0.762  -3.983   2.018  0.00  0.00    +0.056 A 
ATOM      5  S   UNL     1       1.302  -2.917   3.345  0.00  0.00    -0.074 S 
ATOM      6  C   UNL     1       1.537  -1.427   2.391  0.00  0.00    +0.058 A 
ATOM      7 BR   UNL     1       2.121   0.277   2.968  0.00  0.00    -0.042 Br
ATOM      8 BR   UNL     1       0.274  -5.809   2.082  0.00  0.00    -0.043 Br
ENDBRANCH   1   2
BRANCH   1  14
ATOM      9  C   UNL     1      -0.017   1.395   0.010  0.00  0.00    +0.042 A 
ATOM     10  C   UNL     1      -1.310   1.793   0.018  0.00  0.00    +0.105 A 
ATOM     11  N   UNL     1      -2.082   0.686   0.016  0.00  0.00    -0.285 N 
ATOM     12  N   UNL     1      -1.235  -0.430   0.006  0.00  0.00    -0.180 NA
ATOM     13  H   UNL     1      -3.052   0.667   0.021  0.00  0.00    +0.188 HD
ATOM     14  C   UNL     1       0.002  -0.004   0.002  0.00  0.00    +0.053 A 
ENDBRANCH   1  14
BRANCH   1  15
ATOM     15  N   UNL     1       1.286  -1.625  -1.274  0.00  0.00    +0.386 N 
ATOM     16  H   UNL     1       1.318  -0.981  -2.050  0.00  0.00    -0.089 HD
ATOM     17  H   UNL     1       2.112  -2.205  -1.285  0.00  0.00    -0.089 HD
ATOM     18  H   UNL     1       0.465  -2.206  -1.353  0.00  0.00    -0.089 HD
ENDBRANCH   1  15
TORSDOF 3
