REMARK  Name = ZINC12604067
REMARK  6 active torsions:
REMARK  status: ('A' for Active; 'I' for Inactive)
REMARK    1  A    between atoms: C_2  and  C_3
REMARK    2  A    between atoms: C_3  and  N_4
REMARK    3  A    between atoms: C_5  and  C_7
REMARK    4  A    between atoms: C_10  and  O_30
REMARK    5  A    between atoms: C_12  and  O_29
REMARK    6  A    between atoms: N_21  and  C_22
REMARK                            x       y       z     vdW  Elec       q    Type
REMARK                         _______ _______ _______ _____ _____    ______ ____
ROOT
ATOM      1  C   UNL     1       3.283   8.755   0.939  0.00  0.00    +0.093 C 
ATOM      2  C   UNL     1       2.199   9.709   1.423  0.00  0.00    +0.048 C 
ATOM      3  C   UNL     1       0.952   8.891   1.777  0.00  0.00    +0.146 C 
ATOM      4  C   UNL     1       0.404   8.278   0.492  0.00  0.00    +0.168 C 
ATOM      5  C   UNL     1       1.420   7.457  -0.239  0.00  0.00    +0.153 C 
ATOM      6  C   UNL     1       2.852   7.958  -0.277  0.00  0.00    +0.093 C 
ATOM      7  S   UNL     1       3.743   6.347  -0.245  0.00  0.00    -0.084 S 
ATOM      8  C   UNL     1       2.336   5.262  -0.096  0.00  0.00    +0.154 C 
ATOM      9  N   UNL     1       1.287   6.032  -0.101  0.00  0.00    -0.256 NA
ATOM     10  N   UNL     1       2.356   3.888   0.001  0.00  0.00    -0.294 N 
ATOM     11  H   UNL     1       3.202   3.419   0.072  0.00  0.00    +0.154 HD
ENDROOT
BRANCH  10  12
ATOM     12  C   UNL     1       1.155   3.170  -0.004  0.00  0.00    +0.033 A 
ATOM     13  C   UNL     1       0.042   3.679  -0.660  0.00  0.00    +0.025 A 
ATOM     14  C   UNL     1      -1.141   2.967  -0.664  0.00  0.00    +0.022 A 
ATOM     15  C   UNL     1      -1.220   1.750  -0.010  0.00  0.00    +0.041 A 
ATOM     16  C   UNL     1      -0.111   1.238   0.640  0.00  0.00    +0.022 A 
ATOM     17  C   UNL     1       1.075   1.946   0.647  0.00  0.00    +0.025 A 
ATOM     18 CL   UNL     1      -2.712   0.862  -0.010  0.00  0.00    -0.084 Cl
ENDBRANCH  10  12
BRANCH   1  20
ATOM     19  N   UNL     1       5.089  10.344   1.516  0.00  0.00    -0.304 N 
ATOM     20  C   UNL     1       4.514   9.551   0.590  0.00  0.00    +0.218 C 
ATOM     21  O   UNL     1       4.987   9.479  -0.524  0.00  0.00    -0.275 OA
ATOM     22  H   UNL     1       4.710  10.402   2.407  0.00  0.00    +0.150 HD
BRANCH  19  23
ATOM     23  C   UNL     1       6.285  11.118   1.177  0.00  0.00    +0.193 C 
BRANCH  23  25
ATOM     24  C   UNL     1       7.058  12.517   3.285  0.00  0.00    +0.005 C 
ATOM     25  C   UNL     1       6.715  11.896   2.350  0.00  0.00    -0.087 C 
ENDBRANCH  23  25
ENDBRANCH  19  23
ENDBRANCH   1  20
BRANCH   4  26
ATOM     26  O   UNL     1      -0.712   7.447   0.817  0.00  0.00    -0.387 OA
ATOM     27  H   UNL     1      -1.418   7.905   1.294  0.00  0.00    +0.210 HD
ENDBRANCH   4  26
BRANCH   3  28
ATOM     28  O   UNL     1      -0.034   9.744   2.364  0.00  0.00    -0.389 OA
ATOM     29  H   UNL     1       0.251  10.167   3.185  0.00  0.00    +0.210 HD
ENDBRANCH   3  28
TORSDOF 6
