REMARK  Name = ZINC11288812
REMARK  12 active torsions:
REMARK  status: ('A' for Active; 'I' for Inactive)
REMARK    1  A    between atoms: C_1  and  O_2
REMARK    2  A    between atoms: O_2  and  C_3
REMARK    3  A    between atoms: C_5  and  C_19
REMARK    4  A    between atoms: C_6  and  N_11
REMARK    5  A    between atoms: C_8  and  O_9
REMARK    6  A    between atoms: O_9  and  C_10
REMARK    7  A    between atoms: C_12  and  C_14
REMARK    8  A    between atoms: C_19  and  O_21
REMARK    9  A    between atoms: O_21  and  C_22
REMARK   10  A    between atoms: C_22  and  C_23
REMARK   11  A    between atoms: N_25  and  C_26
REMARK   12  A    between atoms: C_31  and  C_32
REMARK                            x       y       z     vdW  Elec       q    Type
REMARK                         _______ _______ _______ _____ _____    ______ ____
ROOT
ATOM      1  C   UNL     1      -9.276  -3.585  -0.462  0.00  0.00    +0.162 A 
ATOM      2  C   UNL     1      -8.191  -2.740  -0.360  0.00  0.00    +0.066 A 
ATOM      3  C   UNL     1      -8.374  -1.355  -0.454  0.00  0.00    +0.084 A 
ATOM      4  C   UNL     1      -9.662  -0.835  -0.664  0.00  0.00    +0.051 A 
ATOM      5  C   UNL     1     -10.743  -1.695  -0.771  0.00  0.00    +0.073 A 
ATOM      6  C   UNL     1     -10.554  -3.064  -0.671  0.00  0.00    +0.163 A 
ENDROOT
BRANCH   4   7
ATOM      7  N   UNL     1      -9.851   0.541  -0.764  0.00  0.00    -0.278 N 
ATOM      8  C   UNL     1     -11.048   1.081  -0.459  0.00  0.00    +0.284 C 
ATOM      9  O   UNL     1     -11.931   0.381   0.001  0.00  0.00    -0.266 OA
ATOM     10  H   UNL     1      -9.122   1.111  -1.054  0.00  0.00    +0.155 HD
BRANCH   8  11
ATOM     11  C   UNL     1     -11.285   2.510  -0.681  0.00  0.00    +0.189 A 
ATOM     12  C   UNL     1     -12.445   3.182  -0.416  0.00  0.00    +0.054 A 
ATOM     13  C   UNL     1     -12.228   4.520  -0.778  0.00  0.00    +0.042 A 
ATOM     14  C   UNL     1     -10.961   4.607  -1.241  0.00  0.00    +0.196 A 
ATOM     15  O   UNL     1     -10.395   3.395  -1.176  0.00  0.00    -0.458 OA
ENDBRANCH   8  11
ENDBRANCH   4   7
BRANCH   1  17
ATOM     16  C   UNL     1      -7.765  -5.396  -0.151  0.00  0.00    +0.277 C 
ATOM     17  O   UNL     1      -9.099  -4.930  -0.365  0.00  0.00    -0.491 OA
ENDBRANCH   1  17
BRANCH   6  18
ATOM     18  O   UNL     1     -11.617  -3.903  -0.776  0.00  0.00    -0.491 OA
ATOM     19  C   UNL     1     -12.897  -3.304  -0.989  0.00  0.00    +0.277 C 
ENDBRANCH   6  18
BRANCH   3  20
ATOM     20  C   UNL     1      -7.221  -0.449  -0.340  0.00  0.00    +0.342 C 
ATOM     21  O   UNL     1      -7.392   0.754  -0.331  0.00  0.00    -0.245 OA
BRANCH  20  22
ATOM     22  O   UNL     1      -5.974  -0.953  -0.246  0.00  0.00    -0.452 OA
BRANCH  22  23
ATOM     23  C   UNL     1      -4.884   0.000  -0.136  0.00  0.00    +0.328 C 
BRANCH  23  24
ATOM     24  C   UNL     1      -3.576  -0.741  -0.041  0.00  0.00    +0.255 C 
ATOM     25  O   UNL     1      -3.563  -1.954  -0.064  0.00  0.00    -0.272 OA
ATOM     26  N   UNL     1      -2.420  -0.057   0.069  0.00  0.00    -0.282 N 
ATOM     27  H   UNL     1      -2.435   0.908   0.168  0.00  0.00    +0.155 HD
BRANCH  26  28
ATOM     28  C   UNL     1      -1.198  -0.739   0.040  0.00  0.00    +0.045 A 
ATOM     29  C   UNL     1      -1.104  -1.972  -0.592  0.00  0.00    +0.024 A 
ATOM     30  C   UNL     1       0.103  -2.642  -0.619  0.00  0.00    +0.002 A 
ATOM     31  C   UNL     1       1.218  -2.085  -0.018  0.00  0.00    +0.001 A 
ATOM     32  C   UNL     1       1.129  -0.855   0.607  0.00  0.00    +0.014 A 
ATOM     33  C   UNL     1      -0.077  -0.183   0.643  0.00  0.00    +0.076 A 
BRANCH  33  34
ATOM     34  C   UNL     1      -0.175   1.155   1.329  0.00  0.00    +0.419 C 
ATOM     35  F   UNL     1       1.074   1.501   1.855  0.00  0.00    -0.166 F 
ATOM     36  F   UNL     1      -0.577   2.125   0.405  0.00  0.00    -0.166 F 
ATOM     37  F   UNL     1      -1.113   1.080   2.365  0.00  0.00    -0.166 F 
ENDBRANCH  33  34
ENDBRANCH  26  28
ENDBRANCH  23  24
ENDBRANCH  22  23
ENDBRANCH  20  22
ENDBRANCH   3  20
TORSDOF 10
