REMARK  Name = ZINC55186067
REMARK  5 active torsions:
REMARK  status: ('A' for Active; 'I' for Inactive)
REMARK    1  A    between atoms: C_1  and  C_2
REMARK    2  A    between atoms: C_7  and  C_8
REMARK    3  A    between atoms: C_7  and  C_9
REMARK    4  A    between atoms: C_11  and  N_13
REMARK    5  A    between atoms: C_14  and  C_16
REMARK                            x       y       z     vdW  Elec       q    Type
REMARK                         _______ _______ _______ _____ _____    ______ ____
ROOT
ATOM      1  N   UNL     1      -2.268  -0.017   1.012  0.00  0.00    -0.307 N 
ATOM      2  C   UNL     1      -3.606  -0.100   0.874  0.00  0.00    +0.263 C 
ATOM      3  O   UNL     1      -4.084  -0.747  -0.038  0.00  0.00    -0.269 OA
ATOM      4  H   UNL     1      -1.886   0.499   1.739  0.00  0.00    +0.149 HD
ENDROOT
BRANCH   1  14
ATOM      5  C   UNL     1      -0.019   1.526   0.010  0.00  0.00    +0.013 C 
ATOM      6  C   UNL     1       0.002  -0.004   0.002  0.00  0.00    -0.008 C 
ATOM      7  C   UNL     1       0.744  -0.669  -1.197  0.00  0.00    +0.009 C 
ATOM      8  C   UNL     1       1.062  -2.103  -0.714  0.00  0.00    +0.005 C 
ATOM      9  C   UNL     1       0.481  -2.169   0.732  0.00  0.00    -0.003 C 
ATOM     10  C   UNL     1       0.727  -0.695   1.211  0.00  0.00    -0.025 C 
ATOM     11  C   UNL     1       0.031  -0.400   2.541  0.00  0.00    +0.012 C 
ATOM     12  C   UNL     1       2.216  -0.348   1.260  0.00  0.00    +0.012 C 
ATOM     13  C   UNL     1      -1.065  -2.175   0.532  0.00  0.00    +0.027 C 
ATOM     14  C   UNL     1      -1.389  -0.705   0.062  0.00  0.00    +0.080 C 
ENDBRANCH   1  14
BRANCH   2  15
ATOM     15  C   UNL     1      -4.488   0.592   1.828  0.00  0.00    +0.135 A 
ATOM     16  C   UNL     1      -5.851   0.509   1.701  0.00  0.00    +0.081 A 
ATOM     17  S   UNL     1      -6.377   1.509   3.087  0.00  0.00    -0.060 S 
ATOM     18  C   UNL     1      -4.750   1.933   3.692  0.00  0.00    +0.156 A 
ATOM     19  N   UNL     1      -3.973   1.304   2.833  0.00  0.00    -0.221 NA
ATOM     20  N   UNL     1      -4.397   2.713   4.780  0.00  0.00    -0.338 N 
ATOM     21  H   UNL     1      -5.087   3.114   5.333  0.00  0.00    +0.144 HD
ATOM     22  H   UNL     1      -3.462   2.858   4.990  0.00  0.00    +0.144 HD
ENDBRANCH   2  15
TORSDOF 2
