REMARK  Name = ZINC24116341
REMARK  8 active torsions:
REMARK  status: ('A' for Active; 'I' for Inactive)
REMARK    1  A    between atoms: C_1  and  C_2
REMARK    2  A    between atoms: C_14  and  C_24
REMARK    3  A    between atoms: C_15  and  N_16
REMARK    4  A    between atoms: N_17  and  C_18
REMARK    5  A    between atoms: C_18  and  C_19
REMARK    6  A    between atoms: N_26  and  C_27
REMARK    7  A    between atoms: C_27  and  C_29
REMARK    8  A    between atoms: C_27  and  C_30
REMARK                            x       y       z     vdW  Elec       q    Type
REMARK                         _______ _______ _______ _____ _____    ______ ____
ROOT
ATOM      1  C   UNL     1       0.955  -4.844  -0.063  0.00  0.00    +0.047 C 
ATOM      2  C   UNL     1      -0.304  -4.016  -0.060  0.00  0.00    -0.007 A 
ATOM      3  C   UNL     1      -1.524  -4.623  -0.070  0.00  0.00    +0.008 A 
ATOM      4  C   UNL     1      -2.686  -3.840  -0.067  0.00  0.00    +0.019 A 
ATOM      5  C   UNL     1      -2.594  -2.491  -0.051  0.00  0.00    +0.096 A 
ATOM      6  N   UNL     1      -1.379  -1.875  -0.042  0.00  0.00    -0.267 N 
ATOM      7  C   UNL     1      -0.227  -2.611  -0.045  0.00  0.00    +0.145 A 
ATOM      8  N   UNL     1       0.973  -2.029  -0.034  0.00  0.00    -0.211 NA
ATOM      9  C   UNL     1       1.106  -0.709  -0.020  0.00  0.00    +0.150 A 
ATOM     10  C   UNL     1      -0.050   0.103  -0.016  0.00  0.00    +0.083 A 
ATOM     11  C   UNL     1      -1.323  -0.524  -0.027  0.00  0.00    +0.268 A 
ATOM     12  O   UNL     1      -2.344   0.140  -0.023  0.00  0.00    -0.267 OA
ATOM     13  C   UNL     1       0.056   1.501  -0.002  0.00  0.00    +0.033 A 
ATOM     14  C   UNL     1       1.313   2.090   0.009  0.00  0.00    +0.075 A 
ATOM     15  C   UNL     1       2.505   1.228   0.005  0.00  0.00    +0.110 A 
ATOM     16  N   UNL     1       2.357  -0.142  -0.010  0.00  0.00    -0.306 N 
ENDROOT
BRANCH  14  17
ATOM     17  C   UNL     1       1.450   3.551   0.024  0.00  0.00    +0.248 C 
ATOM     18  O   UNL     1       2.552   4.059  -0.072  0.00  0.00    -0.270 OA
ATOM     19  N   UNL     1       0.357   4.329   0.143  0.00  0.00    -0.305 N 
ATOM     20  H   UNL     1      -0.639   3.870   0.230  0.00  0.00    +0.150 HD
BRANCH  19  21
ATOM     21  C   UNL     1       0.494   5.788   0.158  0.00  0.00    +0.100 C 
ATOM     22  C   UNL     1       0.804   6.257   1.581  0.00  0.00    +0.033 C 
BRANCH  21  23
ATOM     23  C   UNL     1      -0.792   6.418  -0.310  0.00  0.00    -0.027 A 
ATOM     24  C   UNL     1      -2.006   5.888   0.086  0.00  0.00    +0.005 A 
ATOM     25  C   UNL     1      -3.185   6.469  -0.340  0.00  0.00    +0.000 A 
ATOM     26  C   UNL     1      -3.152   7.575  -1.169  0.00  0.00    +0.000 A 
ATOM     27  C   UNL     1      -1.938   8.102  -1.569  0.00  0.00    +0.000 A 
ATOM     28  C   UNL     1      -0.758   7.523  -1.140  0.00  0.00    +0.005 A 
ENDBRANCH  21  23
ENDBRANCH  19  21
ENDBRANCH  14  17
BRANCH  15  29
ATOM     29  N   UNL     1       3.701   1.760   0.015  0.00  0.00    -0.344 N 
ATOM     30  H   UNL     1       4.591   1.113   0.012  0.00  0.00    +0.144 HD
ATOM     31  H   UNL     1       3.816   2.854   0.026  0.00  0.00    +0.144 HD
ENDBRANCH  15  29
BRANCH  16  32
ATOM     32  C   UNL     1       3.544  -1.001  -0.015  0.00  0.00    +0.199 C 
BRANCH  32  33
ATOM     33  C   UNL     1       3.956  -1.281  -1.437  0.00  0.00    +0.125 A 
ATOM     34  C   UNL     1       4.806  -0.540  -2.170  0.00  0.00    +0.046 A 
ATOM     35  C   UNL     1       4.906  -1.163  -3.435  0.00  0.00    +0.041 A 
ATOM     36  C   UNL     1       4.104  -2.242  -3.403  0.00  0.00    +0.195 A 
ATOM     37  O   UNL     1       3.531  -2.309  -2.190  0.00  0.00    -0.466 OA
ENDBRANCH  32  33
ENDBRANCH  16  32
TORSDOF 6
