REMARK  Name = ZINC22019505
REMARK  13 active torsions:
REMARK  status: ('A' for Active; 'I' for Inactive)
REMARK    1  A    between atoms: C_1  and  C_2
REMARK    2  A    between atoms: C_2  and  C_4
REMARK    3  A    between atoms: C_2  and  O_15
REMARK    4  A    between atoms: N_6  and  C_7
REMARK    5  A    between atoms: C_8  and  C_12
REMARK    6  A    between atoms: O_15  and  C_16
REMARK    7  A    between atoms: C_16  and  C_18
REMARK    8  A    between atoms: C_22  and  N_24
REMARK    9  A    between atoms: C_25  and  O_27
REMARK   10  A    between atoms: O_27  and  C_28
REMARK   11  A    between atoms: C_28  and  C_29
REMARK   12  A    between atoms: C_28  and  C_30
REMARK   13  A    between atoms: C_28  and  C_31
REMARK                            x       y       z     vdW  Elec       q    Type
REMARK                         _______ _______ _______ _____ _____    ______ ____
ROOT
ATOM      1  O   UNL     1      -0.194  -0.022  -0.327  0.00  0.00    -0.449 OA
ENDROOT
BRANCH   1   3
ATOM      2  C   UNL     1      -1.156   1.729  -1.720  0.00  0.00    +0.062 C 
ATOM      3  C   UNL     1      -0.313   1.417  -0.482  0.00  0.00    +0.259 C 
BRANCH   3   4
ATOM      4  C   UNL     1      -0.978   2.001   0.739  0.00  0.00    +0.258 C 
ATOM      5  O   UNL     1      -1.317   1.275   1.649  0.00  0.00    -0.271 OA
ATOM      6  N   UNL     1      -1.194   3.328   0.818  0.00  0.00    -0.276 N 
ATOM      7  H   UNL     1      -0.886   3.986  -0.008  0.00  0.00    +0.155 HD
BRANCH   6   8
ATOM      8  C   UNL     1      -1.806   3.865   1.941  0.00  0.00    +0.084 A 
ATOM      9  C   UNL     1      -2.106   5.196   2.208  0.00  0.00    +0.065 A 
ATOM     10  C   UNL     1      -2.755   5.475   3.467  0.00  0.00    +0.022 A 
ATOM     11  C   UNL     1      -3.002   4.429   4.276  0.00  0.00    +0.048 A 
ATOM     12  S   UNL     1      -2.373   3.041   3.354  0.00  0.00    -0.081 S 
BRANCH   9  13
ATOM     13  C   UNL     1      -1.784   6.263   1.255  0.00  0.00    +0.244 C 
ATOM     14  O   UNL     1      -1.240   5.993   0.200  0.00  0.00    -0.270 OA
ATOM     15  N   UNL     1      -2.091   7.542   1.547  0.00  0.00    -0.325 N 
ATOM     16  H   UNL     1      -1.849   8.343   0.832  0.00  0.00    +0.145 HD
ATOM     17  H   UNL     1      -2.582   7.786   2.500  0.00  0.00    +0.145 HD
ENDBRANCH   9  13
ENDBRANCH   6   8
ENDBRANCH   3   4
ENDBRANCH   1   3
BRANCH   1  18
ATOM     18  C   UNL     1       0.849  -0.618  -0.935  0.00  0.00    +0.340 C 
ATOM     19  O   UNL     1       1.638   0.046  -1.578  0.00  0.00    -0.245 OA
BRANCH  18  20
ATOM     20  C   UNL     1       1.034  -2.079  -0.822  0.00  0.00    +0.061 A 
ATOM     21  C   UNL     1       0.129  -2.845  -0.083  0.00  0.00    +0.015 A 
ATOM     22  C   UNL     1       0.304  -4.209   0.021  0.00  0.00    +0.003 A 
ATOM     23  C   UNL     1       1.374  -4.824  -0.604  0.00  0.00    +0.023 A 
ATOM     24  C   UNL     1       2.280  -4.071  -1.341  0.00  0.00    +0.037 A 
ATOM     25  C   UNL     1       2.111  -2.700  -1.456  0.00  0.00    +0.038 A 
BRANCH  24  26
ATOM     26  N   UNL     1       3.360  -4.699  -1.972  0.00  0.00    -0.251 N 
ATOM     27  C   UNL     1       4.536  -4.052  -2.096  0.00  0.00    +0.405 C 
ATOM     28  O   UNL     1       4.689  -2.965  -1.575  0.00  0.00    -0.226 OA
ATOM     29  H   UNL     1       3.249  -5.719  -2.368  0.00  0.00    +0.158 HD
BRANCH  27  30
ATOM     30  O   UNL     1       5.542  -4.611  -2.795  0.00  0.00    -0.444 OA
BRANCH  30  31
ATOM     31  C   UNL     1       6.780  -3.858  -2.887  0.00  0.00    +0.107 C 
ATOM     32  C   UNL     1       7.338  -3.623  -1.482  0.00  0.00    +0.055 C 
ATOM     33  C   UNL     1       7.797  -4.647  -3.714  0.00  0.00    +0.055 C 
ATOM     34  C   UNL     1       6.509  -2.512  -3.561  0.00  0.00    +0.055 C 
ENDBRANCH  30  31
ENDBRANCH  27  30
ENDBRANCH  24  26
ENDBRANCH  18  20
ENDBRANCH   1  18
TORSDOF 9
