REMARK  Name = ZINC06921833
REMARK  10 active torsions:
REMARK  status: ('A' for Active; 'I' for Inactive)
REMARK    1  A    between atoms: C_1  and  C_2
REMARK    2  A    between atoms: C_3  and  C_26
REMARK    3  A    between atoms: C_5  and  N_10
REMARK    4  A    between atoms: C_6  and  C_7
REMARK    5  A    between atoms: N_10  and  C_11
REMARK    6  A    between atoms: C_11  and  N_13
REMARK    7  A    between atoms: C_14  and  C_16
REMARK    8  A    between atoms: C_17  and  C_18
REMARK    9  A    between atoms: C_23  and  O_24
REMARK   10  A    between atoms: O_24  and  C_25
REMARK                            x       y       z     vdW  Elec       q    Type
REMARK                         _______ _______ _______ _____ _____    ______ ____
ROOT
ATOM      1  C   UNL     1      -0.021   1.708   0.011  0.00  0.00    +0.141 C 
ATOM      2  S   UNL     1       0.002  -0.004   0.002  0.00  0.00    -0.018 S 
ENDROOT
BRANCH   1   3
ATOM      3  N   UNL     1      -1.197   2.366   0.021  0.00  0.00    -0.264 N 
ATOM      4  C   UNL     1      -2.355   1.676   0.022  0.00  0.00    +0.242 C 
ATOM      5  O   UNL     1      -2.339   0.459   0.016  0.00  0.00    -0.270 OA
ATOM      6  H   UNL     1      -1.210   3.336   0.026  0.00  0.00    +0.157 HD
BRANCH   4   7
ATOM      7  C   UNL     1      -3.631   2.389   0.032  0.00  0.00    +0.068 C 
ATOM      8  C   UNL     1      -4.791   1.698   0.034  0.00  0.00    +0.016 C 
BRANCH   8   9
ATOM      9  C   UNL     1      -6.073   2.415   0.044  0.00  0.00    +0.017 A 
ATOM     10  C   UNL     1      -6.097   3.814   0.052  0.00  0.00    +0.011 A 
ATOM     11  C   UNL     1      -7.303   4.480   0.061  0.00  0.00    +0.001 A 
ATOM     12  C   UNL     1      -8.494   3.771   0.063  0.00  0.00    +0.004 A 
ATOM     13  C   UNL     1      -8.485   2.389   0.055  0.00  0.00    +0.046 A 
ATOM     14  C   UNL     1      -7.282   1.701   0.040  0.00  0.00    +0.127 A 
BRANCH  14  15
ATOM     15  O   UNL     1      -7.273   0.345   0.027  0.00  0.00    -0.495 OA
ATOM     16  C   UNL     1      -8.541  -0.313   0.024  0.00  0.00    +0.277 C 
ENDBRANCH  14  15
ENDBRANCH   8   9
ENDBRANCH   4   7
ENDBRANCH   1   3
BRANCH   1  17
ATOM     17  N   UNL     1       1.137   2.397   0.004  0.00  0.00    -0.291 N 
ATOM     18  H   UNL     1       1.124   3.367   0.009  0.00  0.00    +0.154 HD
BRANCH  17  23
ATOM     19  C   UNL     1       6.158   1.762  -0.048  0.00  0.00    +0.045 C 
ATOM     20  C   UNL     1       4.722   1.305  -0.036  0.00  0.00    -0.027 A 
ATOM     21  C   UNL     1       4.403  -0.002  -0.040  0.00  0.00    -0.008 A 
ATOM     22  S   UNL     1       2.622   0.012  -0.015  0.00  0.00    -0.078 S 
ATOM     23  C   UNL     1       2.346   1.721  -0.011  0.00  0.00    +0.084 A 
ATOM     24  C   UNL     1       3.631   2.250  -0.021  0.00  0.00    +0.068 A 
ATOM     25  C   UNL     1       5.329  -1.191  -0.055  0.00  0.00    +0.052 C 
BRANCH  24  26
ATOM     26  C   UNL     1       3.868   3.697  -0.015  0.00  0.00    +0.244 C 
ATOM     27  O   UNL     1       3.976   4.292   1.041  0.00  0.00    -0.270 OA
ATOM     28  N   UNL     1       3.965   4.368  -1.180  0.00  0.00    -0.325 N 
ATOM     29  H   UNL     1       3.878   3.894  -2.022  0.00  0.00    +0.145 HD
ATOM     30  H   UNL     1       4.121   5.325  -1.177  0.00  0.00    +0.145 HD
ENDBRANCH  24  26
ENDBRANCH  17  23
ENDBRANCH   1  17
TORSDOF 7
