REMARK  Name = ZINC43114719
REMARK  7 active torsions:
REMARK  status: ('A' for Active; 'I' for Inactive)
REMARK    1  A    between atoms: C_1  and  C_2
REMARK    2  A    between atoms: C_2  and  C_4
REMARK    3  A    between atoms: C_2  and  N_20
REMARK    4  A    between atoms: C_4  and  C_6
REMARK    5  A    between atoms: C_4  and  S_11
REMARK    6  A    between atoms: S_11  and  C_12
REMARK    7  A    between atoms: C_16  and  N_18
REMARK                            x       y       z     vdW  Elec       q    Type
REMARK                         _______ _______ _______ _____ _____    ______ ____
ROOT
ATOM      1  S   UNL     1       0.868  -2.309   1.405  0.00  0.00    -0.079 S 
ENDROOT
BRANCH   1   2
ATOM      2  C   UNL     1       1.519  -2.631   3.011  0.00  0.00    +0.192 A 
ATOM      3  N   UNL     1       1.918  -1.614   3.761  0.00  0.00    -0.207 NA
ATOM      4  C   UNL     1       2.414  -1.820   4.979  0.00  0.00    +0.122 A 
ATOM      5  C   UNL     1       2.511  -3.122   5.460  0.00  0.00    +0.086 A 
ATOM      6  C   UNL     1       2.082  -4.164   4.643  0.00  0.00    +0.122 A 
ATOM      7  N   UNL     1       1.592  -3.883   3.438  0.00  0.00    -0.207 NA
ATOM      8  N   UNL     1       2.830  -0.751   5.758  0.00  0.00    -0.343 N 
ATOM      9  H   UNL     1       2.760   0.154   5.416  0.00  0.00    +0.144 HD
ATOM     10  H   UNL     1       3.191  -0.908   6.644  0.00  0.00    +0.144 HD
BRANCH   6  11
ATOM     11  N   UNL     1       2.160  -5.477   5.081  0.00  0.00    -0.343 N 
ATOM     12  H   UNL     1       2.515  -5.675   5.961  0.00  0.00    +0.144 HD
ATOM     13  H   UNL     1       1.859  -6.199   4.506  0.00  0.00    +0.144 HD
ENDBRANCH   6  11
ENDBRANCH   1   2
BRANCH   1  14
ATOM     14  C   UNL     1       0.831  -0.498   1.302  0.00  0.00    +0.076 C 
BRANCH  14  15
ATOM     15  C   UNL     1       2.242   0.032   1.272  0.00  0.00    +0.002 A 
ATOM     16  C   UNL     1       2.857   0.872   2.140  0.00  0.00    +0.012 A 
ATOM     17  C   UNL     1       4.173   1.227   1.910  0.00  0.00    +0.008 A 
ATOM     18  C   UNL     1       4.810   0.725   0.824  0.00  0.00    +0.045 A 
ATOM     19  S   UNL     1       3.538  -0.289   0.087  0.00  0.00    -0.101 S 
ENDBRANCH  14  15
BRANCH  14  21
ATOM     20  C   UNL     1      -0.025   1.450  -0.008  0.00  0.00    -0.013 C 
ATOM     21  C   UNL     1       0.100  -0.075   0.027  0.00  0.00    -0.060 C 
BRANCH  21  22
ATOM     22  N   UNL     1      -1.240  -0.676   0.009  0.00  0.00    +0.381 N 
ATOM     23  H   UNL     1      -1.698  -0.451  -0.862  0.00  0.00    -0.090 HD
ATOM     24  H   UNL     1      -1.161  -1.678   0.098  0.00  0.00    -0.090 HD
ATOM     25  H   UNL     1      -1.783  -0.312   0.778  0.00  0.00    -0.090 HD
ENDBRANCH  21  22
ENDBRANCH  14  21
ENDBRANCH   1  14
TORSDOF 6
