REMARK  Name = ZINC31160796
REMARK  10 active torsions:
REMARK  status: ('A' for Active; 'I' for Inactive)
REMARK    1  A    between atoms: C_1  and  C_2
REMARK    2  A    between atoms: C_4  and  O_38
REMARK    3  A    between atoms: C_8  and  C_37
REMARK    4  A    between atoms: C_9  and  O_33
REMARK    5  A    between atoms: C_12  and  C_32
REMARK    6  A    between atoms: C_16  and  C_23
REMARK    7  A    between atoms: C_29  and  C_30
REMARK    8  A    between atoms: C_29  and  C_31
REMARK    9  A    between atoms: O_33  and  C_34
REMARK   10  A    between atoms: C_34  and  C_36
REMARK                            x       y       z     vdW  Elec       q    Type
REMARK                         _______ _______ _______ _____ _____    ______ ____
ROOT
ATOM      1  C   UNL     1      -0.413   0.973   0.225  0.00  0.00    +0.056 C 
ATOM      2  C   UNL     1      -0.219  -0.542   0.123  0.00  0.00    +0.217 C 
ATOM      3  C   UNL     1       0.584  -0.890  -1.155  0.00  0.00    +0.219 C 
ATOM      4  C   UNL     1      -0.295  -1.091  -2.341  0.00  0.00    +0.345 C 
ATOM      5  O   UNL     1      -0.290  -0.264  -3.217  0.00  0.00    -0.247 OA
ATOM      6  O   UNL     1      -1.094  -2.165  -2.462  0.00  0.00    -0.448 OA
ATOM      7  C   UNL     1      -0.466  -3.422  -2.162  0.00  0.00    +0.173 C 
ATOM      8  C   UNL     1       0.651  -3.702  -3.169  0.00  0.00    +0.251 C 
ATOM      9  C   UNL     1       1.871  -2.834  -2.959  0.00  0.00    -0.018 C 
ATOM     10  C   UNL     1       2.443  -2.229  -3.967  0.00  0.00    -0.056 C 
ATOM     11  C   UNL     1       3.733  -1.461  -3.878  0.00  0.00    +0.050 C 
ATOM     12  C   UNL     1       4.502  -1.902  -2.629  0.00  0.00    +0.020 C 
ATOM     13  C   UNL     1       3.589  -1.783  -1.409  0.00  0.00    +0.014 C 
ATOM     14  C   UNL     1       2.376  -2.675  -1.539  0.00  0.00    +0.016 C 
ATOM     15  C   UNL     1       1.217  -2.216  -0.682  0.00  0.00    +0.144 C 
ATOM     16  C   UNL     1       0.132  -3.280  -0.771  0.00  0.00    -0.009 C 
ATOM     17  C   UNL     1      -0.258  -3.994   0.253  0.00  0.00    +0.013 C 
ATOM     18  C   UNL     1       1.528  -1.916   0.755  0.00  0.00    +0.322 C 
ATOM     19  O   UNL     1       2.427  -2.377   1.413  0.00  0.00    -0.250 OA
ATOM     20  O   UNL     1       0.616  -1.019   1.198  0.00  0.00    -0.457 OA
ATOM     21  C   UNL     1       2.811  -4.072  -1.048  0.00  0.00    +0.017 C 
ATOM     22  C   UNL     1       3.427   0.013  -3.762  0.00  0.00    -0.005 C 
ATOM     23  C   UNL     1       3.435   0.809  -4.825  0.00  0.00    +0.088 C 
ATOM     24  C   UNL     1       3.765   0.261  -6.152  0.00  0.00    +0.332 C 
ATOM     25  O   UNL     1       3.793   0.985  -7.133  0.00  0.00    -0.246 OA
ATOM     26  O   UNL     1       4.027  -1.062  -6.260  0.00  0.00    -0.454 OA
ATOM     27  C   UNL     1       4.613  -1.686  -5.110  0.00  0.00    +0.121 C 
ATOM     28  C   UNL     1       4.808  -3.181  -5.374  0.00  0.00    +0.057 C 
ATOM     29  C   UNL     1       5.998  -1.056  -4.888  0.00  0.00    +0.057 C 
ATOM     30  C   UNL     1       1.728  -2.236  -5.300  0.00  0.00    +0.040 C 
ATOM     31  C   UNL     1      -1.502  -4.548  -2.191  0.00  0.00    +0.065 C 
ENDROOT
BRANCH   3  32
ATOM     32  O   UNL     1       1.528   0.141  -1.406  0.00  0.00    -0.374 OA
ATOM     33  H   UNL     1       1.130   1.008  -1.565  0.00  0.00    +0.211 HD
ENDBRANCH   3  32
BRANCH   8  34
ATOM     34  O   UNL     1       1.019  -5.085  -3.070  0.00  0.00    -0.453 OA
BRANCH  34  35
ATOM     35  C   UNL     1       0.359  -5.949  -3.857  0.00  0.00    +0.305 C 
ATOM     36  O   UNL     1      -0.502  -5.549  -4.604  0.00  0.00    -0.251 OA
ATOM     37  C   UNL     1       0.692  -7.418  -3.808  0.00  0.00    +0.136 C 
ENDBRANCH  34  35
ENDBRANCH   8  34
TORSDOF 3
