REMARK  Name = ZINC02334802
REMARK  9 active torsions:
REMARK  status: ('A' for Active; 'I' for Inactive)
REMARK    1  A    between atoms: C_1  and  C_2
REMARK    2  A    between atoms: C_2  and  C_28
REMARK    3  A    between atoms: C_15  and  O_17
REMARK    4  A    between atoms: O_17  and  C_18
REMARK    5  A    between atoms: C_18  and  C_19
REMARK    6  A    between atoms: C_18  and  C_20
REMARK    7  A    between atoms: C_18  and  C_21
REMARK    8  A    between atoms: C_22  and  C_26
REMARK    9  A    between atoms: C_23  and  N_25
REMARK                            x       y       z     vdW  Elec       q    Type
REMARK                         _______ _______ _______ _____ _____    ______ ____
ROOT
ATOM      1  C   UNL     1       1.558  -1.526  -3.127  0.00  0.00    +0.012 C 
ATOM      2  C   UNL     1       1.905  -2.410  -1.928  0.00  0.00    -0.021 C 
ATOM      3  C   UNL     1       0.968  -2.102  -0.759  0.00  0.00    +0.081 C 
ATOM      4  C   UNL     1       1.120  -0.650  -0.364  0.00  0.00    +0.115 C 
ATOM      5  C   UNL     1       2.331  -0.057  -0.394  0.00  0.00    +0.044 C 
ATOM      6  C   UNL     1       3.448  -0.820  -0.777  0.00  0.00    +0.164 C 
ATOM      7  O   UNL     1       4.575  -0.448  -0.513  0.00  0.00    -0.292 OA
ATOM      8  C   UNL     1       3.340  -2.148  -1.477  0.00  0.00    +0.086 C 
ATOM      9  C   UNL     1       2.491   1.404  -0.038  0.00  0.00    +0.045 C 
ATOM     10  C   UNL     1       3.322   2.118  -1.092  0.00  0.00    +0.036 C 
ATOM     11  C   UNL     1       4.825   1.923  -0.983  0.00  0.00    +0.112 C 
ATOM     12  N   UNL     1       5.289   1.909   0.401  0.00  0.00    -0.267 N 
ATOM     13  C   UNL     1       4.550   1.172   1.429  0.00  0.00    +0.112 C 
ATOM     14  C   UNL     1       3.074   1.539   1.366  0.00  0.00    +0.036 C 
ATOM     15  C   UNL     1       6.413   2.582   0.741  0.00  0.00    +0.403 C 
ATOM     16  O   UNL     1       6.803   2.572   1.892  0.00  0.00    -0.226 OA
ATOM     17  C   UNL     1       1.123   2.061   0.002  0.00  0.00    +0.097 C 
ATOM     18  C   UNL     1      -0.016   1.332   0.009  0.00  0.00    +0.198 C 
ATOM     19  O   UNL     1       0.002  -0.004   0.002  0.00  0.00    -0.445 OA
ATOM     20  C   UNL     1       1.754  -3.883  -2.325  0.00  0.00    +0.012 C 
ENDROOT
BRANCH  18  21
ATOM     21  N   UNL     1      -1.225   1.986   0.030  0.00  0.00    -0.328 N 
ATOM     22  H   UNL     1      -2.051   1.478   0.040  0.00  0.00    +0.145 HD
ATOM     23  H   UNL     1      -1.252   2.956   0.036  0.00  0.00    +0.145 HD
ENDBRANCH  18  21
BRANCH  17  24
ATOM     24  C   UNL     1       1.001   3.489   0.066  0.00  0.00    +0.101 C 
ATOM     25  N   UNL     1       0.904   4.620   0.117  0.00  0.00    -0.191 NA
ENDBRANCH  17  24
BRANCH  15  26
ATOM     26  O   UNL     1       7.100   3.263  -0.196  0.00  0.00    -0.445 OA
BRANCH  26  27
ATOM     27  C   UNL     1       8.296   3.961   0.240  0.00  0.00    +0.107 C 
ATOM     28  C   UNL     1       9.288   2.955   0.828  0.00  0.00    +0.055 C 
ATOM     29  C   UNL     1       8.936   4.671  -0.955  0.00  0.00    +0.055 C 
ATOM     30  C   UNL     1       7.924   4.993   1.307  0.00  0.00    +0.055 C 
ENDBRANCH  26  27
ENDBRANCH  15  26
TORSDOF 4
