REMARK  Name = ZINC49978745
REMARK  8 active torsions:
REMARK  status: ('A' for Active; 'I' for Inactive)
REMARK    1  A    between atoms: C_1  and  C_2
REMARK    2  A    between atoms: C_2  and  N_3
REMARK    3  A    between atoms: N_3  and  C_4
REMARK    4  A    between atoms: N_3  and  S_11
REMARK    5  A    between atoms: C_7  and  C_10
REMARK    6  A    between atoms: S_11  and  C_14
REMARK    7  A    between atoms: C_17  and  N_21
REMARK    8  A    between atoms: C_19  and  C_20
REMARK                            x       y       z     vdW  Elec       q    Type
REMARK                         _______ _______ _______ _____ _____    ______ ____
ROOT
ATOM      1  S   UNL     1      -1.980  -0.793   1.641  0.00  0.00    +0.075 S 
ATOM      2  O   UNL     1      -2.930  -1.819   1.388  0.00  0.00    -0.150 OA
ATOM      3  O   UNL     1      -0.937  -0.940   2.595  0.00  0.00    -0.150 OA
ENDROOT
BRANCH   1   4
ATOM      4  C   UNL     1      -2.894   0.637   2.110  0.00  0.00    +0.112 A 
ATOM      5  C   UNL     1      -3.133   1.638   1.186  0.00  0.00    +0.031 A 
ATOM      6  C   UNL     1      -3.850   2.760   1.550  0.00  0.00    +0.024 A 
ATOM      7  C   UNL     1      -4.331   2.884   2.848  0.00  0.00    +0.025 A 
ATOM      8  C   UNL     1      -4.089   1.878   3.774  0.00  0.00    +0.028 A 
ATOM      9  C   UNL     1      -3.377   0.755   3.401  0.00  0.00    -0.022 A 
ATOM     10  C   UNL     1      -3.119  -0.341   4.403  0.00  0.00    +0.046 C 
BRANCH   7  11
ATOM     11  N   UNL     1      -5.056   4.019   3.220  0.00  0.00    -0.358 N 
ATOM     12  H   UNL     1      -5.223   4.721   2.572  0.00  0.00    +0.142 HD
ATOM     13  H   UNL     1      -5.391   4.104   4.126  0.00  0.00    +0.142 HD
ENDBRANCH   7  11
ENDBRANCH   1   4
BRANCH   1  14
ATOM     14  N   UNL     1      -1.252  -0.456   0.192  0.00  0.00    -0.203 N 
BRANCH  14  15
ATOM     15  C   UNL     1      -1.948  -0.655  -1.002  0.00  0.00    +0.051 A 
ATOM     16  C   UNL     1      -3.336  -0.620  -1.013  0.00  0.00    +0.025 A 
ATOM     17  C   UNL     1      -4.021  -0.817  -2.196  0.00  0.00    +0.005 A 
ATOM     18  C   UNL     1      -3.326  -1.051  -3.369  0.00  0.00    -0.050 A 
ATOM     19  C   UNL     1      -1.944  -1.087  -3.361  0.00  0.00    +0.005 A 
ATOM     20  C   UNL     1      -1.253  -0.885  -2.183  0.00  0.00    +0.025 A 
ATOM     21  C   UNL     1      -4.077  -1.266  -4.657  0.00  0.00    +0.044 C 
ENDBRANCH  14  15
BRANCH  14  23
ATOM     22  C   UNL     1       0.099   1.580   0.088  0.00  0.00    +0.026 C 
ATOM     23  C   UNL     1       0.122   0.052   0.163  0.00  0.00    +0.128 C 
ENDBRANCH  14  23
ENDBRANCH   1  14
TORSDOF 5
