REMARK  Name = ZINC13464227
REMARK  11 active torsions:
REMARK  status: ('A' for Active; 'I' for Inactive)
REMARK    1  A    between atoms: C_1  and  O_2
REMARK    2  A    between atoms: O_2  and  C_3
REMARK    3  A    between atoms: C_8  and  O_9
REMARK    4  A    between atoms: O_9  and  C_10
REMARK    5  A    between atoms: C_12  and  O_25
REMARK    6  A    between atoms: C_14  and  O_24
REMARK    7  A    between atoms: C_16  and  O_23
REMARK    8  A    between atoms: C_18  and  C_21
REMARK    9  A    between atoms: C_21  and  O_22
REMARK   10  A    between atoms: C_31  and  O_38
REMARK   11  A    between atoms: O_38  and  C_39
REMARK                            x       y       z     vdW  Elec       q    Type
REMARK                         _______ _______ _______ _____ _____    ______ ____
ROOT
ATOM      1  C   UNL     1       0.606  -0.608  -1.056  0.00  0.00    +0.162 A 
ATOM      2  C   UNL     1       1.173   0.155  -2.062  0.00  0.00    +0.055 A 
ATOM      3  C   UNL     1       1.796  -0.455  -3.143  0.00  0.00    -0.016 A 
ATOM      4  C   UNL     1       1.862  -1.828  -3.214  0.00  0.00    -0.037 A 
ATOM      5  C   UNL     1       1.283  -2.598  -2.211  0.00  0.00    +0.053 A 
ATOM      6  C   UNL     1       0.663  -1.996  -1.132  0.00  0.00    +0.166 A 
ATOM      7  C   UNL     1       2.562  -2.538  -4.332  0.00  0.00    +0.051 C 
ATOM      8  C   UNL     1       3.216  -1.618  -5.329  0.00  0.00    +0.090 C 
ATOM      9  N   UNL     1       2.654  -0.305  -5.445  0.00  0.00    -0.285 NA
ATOM     10  C   UNL     1       2.372   0.428  -4.216  0.00  0.00    +0.075 C 
ATOM     11  C   UNL     1       3.583   1.181  -3.695  0.00  0.00    +0.067 C 
ATOM     12  C   UNL     1       3.224   2.227  -2.662  0.00  0.00    +0.143 C 
ATOM     13  C   UNL     1       1.998   3.021  -2.952  0.00  0.00    +0.005 C 
ATOM     14  C   UNL     1       1.080   2.678  -3.848  0.00  0.00    +0.004 C 
ATOM     15  C   UNL     1       1.309   1.441  -4.614  0.00  0.00    -0.026 C 
ATOM     16  C   UNL     1       0.721   1.036  -5.727  0.00  0.00    -0.006 C 
ATOM     17  C   UNL     1       1.364  -0.265  -6.171  0.00  0.00    +0.113 C 
ENDROOT
BRANCH   1  19
ATOM     18  C   UNL     1      -0.017   1.425   0.010  0.00  0.00    +0.277 C 
ATOM     19  O   UNL     1       0.002  -0.004   0.002  0.00  0.00    -0.491 OA
ENDBRANCH   1  19
BRANCH  12  20
ATOM     20  O   UNL     1       3.043   1.572  -1.405  0.00  0.00    -0.376 OA
ATOM     21  C   UNL     1       3.368   2.384  -0.274  0.00  0.00    +0.194 C 
ENDBRANCH  12  20
BRANCH   6  22
ATOM     22  O   UNL     1       0.108  -2.757  -0.151  0.00  0.00    -0.457 OA
BRANCH  22  23
ATOM     23  C   UNL     1       0.206  -4.175  -0.297  0.00  0.00    +0.339 C 
ATOM     24  C   UNL     1      -0.360  -4.857   0.952  0.00  0.00    +0.214 C 
ATOM     25  C   UNL     1      -0.307  -6.376   0.762  0.00  0.00    +0.180 C 
ATOM     26  C   UNL     1      -1.082  -6.749  -0.505  0.00  0.00    +0.177 C 
ATOM     27  C   UNL     1      -0.488  -5.994  -1.697  0.00  0.00    +0.179 C 
ATOM     28  O   UNL     1      -0.540  -4.589  -1.444  0.00  0.00    -0.331 OA
BRANCH  26  29
ATOM     29  O   UNL     1      -0.980  -8.157  -0.730  0.00  0.00    -0.386 OA
ATOM     30  H   UNL     1      -1.334  -8.697  -0.011  0.00  0.00    +0.210 HD
ENDBRANCH  26  29
BRANCH  25  31
ATOM     31  O   UNL     1      -0.899  -7.019   1.893  0.00  0.00    -0.386 OA
ATOM     32  H   UNL     1      -0.461  -6.821   2.732  0.00  0.00    +0.210 HD
ENDBRANCH  25  31
BRANCH  24  33
ATOM     33  O   UNL     1       0.419  -4.489   2.091  0.00  0.00    -0.383 OA
ATOM     34  H   UNL     1       0.433  -3.538   2.268  0.00  0.00    +0.210 HD
ENDBRANCH  24  33
BRANCH  27  35
ATOM     35  C   UNL     1      -1.294  -6.316  -2.957  0.00  0.00    +0.190 C 
BRANCH  35  36
ATOM     36  O   UNL     1      -0.672  -5.705  -4.090  0.00  0.00    -0.392 OA
ATOM     37  H   UNL     1      -1.131  -5.867  -4.926  0.00  0.00    +0.210 HD
ENDBRANCH  35  36
ENDBRANCH  27  35
ENDBRANCH  22  23
ENDBRANCH   6  22
TORSDOF 9
