REMARK  Name = ZINC44177186
REMARK  7 active torsions:
REMARK  status: ('A' for Active; 'I' for Inactive)
REMARK    1  A    between atoms: C_1  and  C_2
REMARK    2  A    between atoms: C_3  and  C_26
REMARK    3  A    between atoms: C_7  and  N_8
REMARK    4  A    between atoms: C_14  and  C_17
REMARK    5  A    between atoms: C_17  and  C_19
REMARK    6  A    between atoms: C_22  and  O_25
REMARK    7  A    between atoms: N_28  and  C_29
REMARK                            x       y       z     vdW  Elec       q    Type
REMARK                         _______ _______ _______ _____ _____    ______ ____
ROOT
ATOM      1  N   UNL     1       0.236  -0.188   2.371  0.00  0.00    -0.269 N 
ATOM      2  C   UNL     1       0.443  -0.891   3.502  0.00  0.00    +0.306 C 
ATOM      3  O   UNL     1       0.443  -2.107   3.470  0.00  0.00    -0.252 OA
ATOM      4  N   UNL     1       0.651  -0.248   4.667  0.00  0.00    -0.285 N 
ATOM      5  C   UNL     1       0.541   1.215   4.744  0.00  0.00    +0.110 C 
ATOM      6  C   UNL     1       1.831   1.776   5.352  0.00  0.00    +0.030 C 
ATOM      7  C   UNL     1       2.095   1.094   6.696  0.00  0.00    +0.063 C 
ATOM      8  C   UNL     1       2.277  -0.410   6.480  0.00  0.00    +0.030 C 
ATOM      9  C   UNL     1       0.987  -0.996   5.886  0.00  0.00    +0.110 C 
ATOM     10  H   UNL     1       0.188   0.780   2.404  0.00  0.00    +0.156 HD
ENDROOT
BRANCH   1  17
ATOM     11  C   UNL     1       0.740   1.267  -0.019  0.00  0.00    +0.046 C 
ATOM     12  C   UNL     1       0.326  -0.182  -0.040  0.00  0.00    -0.017 A 
ATOM     13  C   UNL     1       0.186  -0.853  -1.255  0.00  0.00    +0.041 A 
ATOM     14  C   UNL     1      -0.198  -2.195  -1.266  0.00  0.00    +0.013 A 
ATOM     15  C   UNL     1      -0.436  -2.854  -0.077  0.00  0.00    +0.003 A 
ATOM     16  C   UNL     1      -0.297  -2.189   1.127  0.00  0.00    +0.023 A 
ATOM     17  C   UNL     1       0.090  -0.855   1.149  0.00  0.00    +0.038 A 
BRANCH  13  18
ATOM     18  C   UNL     1       0.441  -0.144  -2.527  0.00  0.00    +0.244 C 
ATOM     19  O   UNL     1       0.855   0.999  -2.514  0.00  0.00    -0.270 OA
ATOM     20  N   UNL     1       0.215  -0.765  -3.702  0.00  0.00    -0.314 N 
ATOM     21  C   UNL     1       0.469  -0.063  -4.962  0.00  0.00    +0.128 C 
ATOM     22  H   UNL     1      -0.115  -1.677  -3.712  0.00  0.00    +0.149 HD
ENDBRANCH  13  18
ENDBRANCH   1  17
BRANCH   7  23
ATOM     23  C   UNL     1       3.345   1.667   7.313  0.00  0.00    +0.166 C 
ATOM     24  O   UNL     1       4.196   2.166   6.607  0.00  0.00    -0.292 OA
BRANCH  23  25
ATOM     25  C   UNL     1       3.533   1.621   8.768  0.00  0.00    +0.018 A 
ATOM     26  C   UNL     1       2.555   1.041   9.585  0.00  0.00    +0.015 A 
ATOM     27  C   UNL     1       2.736   1.001  10.944  0.00  0.00    +0.046 A 
ATOM     28  C   UNL     1       3.887   1.536  11.511  0.00  0.00    +0.117 A 
ATOM     29  C   UNL     1       4.862   2.114  10.704  0.00  0.00    +0.046 A 
ATOM     30  C   UNL     1       4.694   2.153   9.344  0.00  0.00    +0.015 A 
BRANCH  28  31
ATOM     31  O   UNL     1       4.061   1.494  12.856  0.00  0.00    -0.507 OA
ATOM     32  H   UNL     1       4.513   0.698  13.169  0.00  0.00    +0.292 HD
ENDBRANCH  28  31
ENDBRANCH  23  25
ENDBRANCH   7  23
TORSDOF 5
