REMARK  Name = ZINC37401995
REMARK  3 active torsions:
REMARK  status: ('A' for Active; 'I' for Inactive)
REMARK    1  A    between atoms: N_9  and  C_12
REMARK    2  A    between atoms: C_12  and  C_13
REMARK    3  A    between atoms: C_14  and  N_20
REMARK                            x       y       z     vdW  Elec       q    Type
REMARK                         _______ _______ _______ _____ _____    ______ ____
ROOT
ATOM      1  C   UNL     1       0.098   1.858  -1.481  0.00  0.00    +0.001 A 
ATOM      2  C   UNL     1       1.305   2.538  -1.581  0.00  0.00    +0.002 A 
ATOM      3  C   UNL     1       2.502   1.879  -1.411  0.00  0.00    +0.028 A 
ATOM      4  C   UNL     1       2.505   0.510  -1.134  0.00  0.00    +0.078 A 
ATOM      5  C   UNL     1       1.275  -0.178  -1.033  0.00  0.00    +0.065 A 
ATOM      6  C   UNL     1       0.075   0.508  -1.209  0.00  0.00    +0.015 A 
ATOM      7  C   UNL     1       1.312  -1.619  -0.741  0.00  0.00    +0.262 A 
ATOM      8  O   UNL     1       0.289  -2.270  -0.642  0.00  0.00    -0.267 OA
ATOM      9  N   UNL     1       2.528  -2.192  -0.588  0.00  0.00    -0.294 N 
ATOM     10  C   UNL     1       3.662  -1.451  -0.702  0.00  0.00    +0.203 A 
ATOM     11  N   UNL     1       3.660  -0.179  -0.960  0.00  0.00    -0.237 NA
ENDROOT
BRANCH   9  12
ATOM     12  C   UNL     1       2.624  -3.625  -0.296  0.00  0.00    +0.164 C 
BRANCH  12  13
ATOM     13  C   UNL     1       2.564  -4.405  -1.584  0.00  0.00    +0.007 A 
ATOM     14  C   UNL     1       1.350  -4.903  -2.040  0.00  0.00    +0.031 A 
ATOM     15  C   UNL     1       1.298  -5.621  -3.228  0.00  0.00    +0.023 A 
ATOM     16  C   UNL     1       2.454  -5.838  -3.953  0.00  0.00    +0.003 A 
ATOM     17  C   UNL     1       3.661  -5.342  -3.497  0.00  0.00    +0.016 A 
ATOM     18  C   UNL     1       3.715  -4.621  -2.317  0.00  0.00    +0.024 A 
ATOM     19 BR   UNL     1       5.368  -3.937  -1.702  0.00  0.00    -0.050 Br
BRANCH  14  20
ATOM     20  N   UNL     1       0.183  -4.682  -1.304  0.00  0.00    -0.358 N 
ATOM     21  H   UNL     1       0.234  -4.290  -0.419  0.00  0.00    +0.142 HD
ATOM     22  H   UNL     1      -0.679  -4.920  -1.680  0.00  0.00    +0.142 HD
ENDBRANCH  14  20
ENDBRANCH  12  13
ENDBRANCH   9  12
TORSDOF 3
