REMARK  Name = ZINC04811146
REMARK  8 active torsions:
REMARK  status: ('A' for Active; 'I' for Inactive)
REMARK    1  A    between atoms: C_1  and  C_2
REMARK    2  A    between atoms: C_5  and  C_9
REMARK    3  A    between atoms: C_6  and  C_8
REMARK    4  A    between atoms: C_11  and  C_23
REMARK    5  A    between atoms: C_12  and  C_17
REMARK    6  A    between atoms: C_17  and  N_51
REMARK    7  A    between atoms: C_23  and  O_25
REMARK    8  A    between atoms: O_25  and  C_26
REMARK                            x       y       z     vdW  Elec       q    Type
REMARK                         _______ _______ _______ _____ _____    ______ ____
ROOT
ATOM      1  C   UNL     1       1.018  -2.160   0.142  0.00  0.00    +0.144 C 
ATOM      2  C   UNL     1       1.588  -2.686   1.443  0.00  0.00    +0.076 C 
ATOM      3  C   UNL     1       0.836  -3.554   2.154  0.00  0.00    +0.008 C 
ATOM      4  N   UNL     1      -0.396  -3.944   1.713  0.00  0.00    -0.274 N 
ATOM      5  C   UNL     1      -0.948  -3.511   0.573  0.00  0.00    +0.304 C 
ATOM      6  O   UNL     1      -2.052  -3.915   0.263  0.00  0.00    -0.252 OA
ATOM      7  N   UNL     1      -0.319  -2.643  -0.244  0.00  0.00    -0.288 N 
ATOM      8  H   UNL     1      -0.900  -4.569   2.257  0.00  0.00    +0.156 HD
ATOM      9  H   UNL     1      -0.737  -2.342  -1.066  0.00  0.00    +0.151 HD
ENDROOT
BRANCH   1  14
ATOM     10  C   UNL     1       0.798   3.604   0.492  0.00  0.00    +0.044 C 
ATOM     11  C   UNL     1       0.856   2.101   0.401  0.00  0.00    -0.050 A 
ATOM     12  C   UNL     1       0.845   1.337   1.554  0.00  0.00    +0.004 A 
ATOM     13  C   UNL     1       0.898  -0.042   1.470  0.00  0.00    +0.006 A 
ATOM     14  C   UNL     1       0.961  -0.657   0.233  0.00  0.00    -0.020 A 
ATOM     15  C   UNL     1       0.970   0.106  -0.919  0.00  0.00    -0.045 A 
ATOM     16  C   UNL     1       0.917   1.485  -0.835  0.00  0.00    +0.007 A 
ATOM     17  C   UNL     1       1.038  -0.565  -2.267  0.00  0.00    +0.044 C 
ENDBRANCH   1  14
BRANCH   2  18
ATOM     18  C   UNL     1       2.865  -2.281   1.899  0.00  0.00    +0.338 C 
ATOM     19  O   UNL     1       3.867  -2.712   1.362  0.00  0.00    -0.245 OA
BRANCH  18  20
ATOM     20  O   UNL     1       2.970  -1.416   2.929  0.00  0.00    -0.465 OA
ATOM     21  C   UNL     1       4.287  -1.138   3.411  0.00  0.00    +0.280 C 
ENDBRANCH  18  20
ENDBRANCH   2  18
BRANCH   3  22
ATOM     22  C   UNL     1       1.366  -4.103   3.454  0.00  0.00    -0.026 C 
BRANCH  22  28
ATOM     23  C   UNL     1       0.565  -2.217   4.745  0.00  0.00    -0.050 C 
ATOM     24  C   UNL     1      -0.399  -1.806   5.862  0.00  0.00    +0.141 C 
ATOM     25  O   UNL     1      -0.070  -2.523   7.056  0.00  0.00    -0.383 OA
ATOM     26  C   UNL     1      -0.127  -3.944   6.908  0.00  0.00    +0.141 C 
ATOM     27  C   UNL     1       0.839  -4.376   5.802  0.00  0.00    -0.050 C 
ATOM     28  N   UNL     1       0.471  -3.679   4.552  0.00  0.00    +0.386 N 
ATOM     29  H   UNL     1      -0.496  -3.922   4.306  0.00  0.00    -0.081 HD
ENDBRANCH  22  28
ENDBRANCH   3  22
TORSDOF 5
