REMARK  Name = ZINC54396781
REMARK  3 active torsions:
REMARK  status: ('A' for Active; 'I' for Inactive)
REMARK    1  A    between atoms: C_4  and  N_10
REMARK    2  A    between atoms: C_5  and  C_7
REMARK    3  A    between atoms: C_7  and  N_9
REMARK                            x       y       z     vdW  Elec       q    Type
REMARK                         _______ _______ _______ _____ _____    ______ ____
ROOT
ATOM      1  C   UNL     1       0.031   1.396  -0.088  0.00  0.00    +0.131 A 
ATOM      2  C   UNL     1       0.726   0.955  -1.205  0.00  0.00    +0.132 A 
ATOM      3  N   UNL     1       1.859   0.290  -1.066  0.00  0.00    -0.237 NA
ATOM      4  C   UNL     1       2.339   0.041   0.146  0.00  0.00    +0.149 A 
ATOM      5  C   UNL     1       1.635   0.487   1.278  0.00  0.00    +0.131 A 
ATOM      6  N   UNL     1       0.495   1.156   1.122  0.00  0.00    -0.248 NA
ENDROOT
BRANCH   4   7
ATOM      7  N   UNL     1       3.525  -0.656   0.295  0.00  0.00    -0.310 N 
ATOM      8  C   UNL     1       3.518  -2.113   0.486  0.00  0.00    +0.125 C 
ATOM      9  C   UNL     1       4.400  -2.753  -0.592  0.00  0.00    +0.126 C 
ATOM     10  N   UNL     1       5.689  -2.049  -0.623  0.00  0.00    -0.307 N 
ATOM     11  C   UNL     1       5.697  -0.592  -0.814  0.00  0.00    +0.126 C 
ATOM     12  C   UNL     1       4.814   0.048   0.259  0.00  0.00    +0.125 C 
ATOM     13  C   UNL     1       6.878  -2.747  -0.474  0.00  0.00    +0.161 A 
ATOM     14  N   UNL     1       7.051  -4.040  -0.301  0.00  0.00    -0.233 NA
ATOM     15  C   UNL     1       8.261  -4.555  -0.174  0.00  0.00    +0.120 A 
ATOM     16  C   UNL     1       9.306  -3.695  -0.230  0.00  0.00    +0.068 A 
ATOM     17  S   UNL     1       8.450  -2.147  -0.477  0.00  0.00    -0.061 S 
ENDBRANCH   4   7
BRANCH   5  18
ATOM     18  C   UNL     1       2.157   0.216   2.630  0.00  0.00    +0.099 C 
ATOM     19  S   UNL     1       3.700  -0.500   2.824  0.00  0.00    -0.033 S 
BRANCH  18  20
ATOM     20  N   UNL     1       1.419   0.532   3.713  0.00  0.00    -0.350 N 
ATOM     21  H   UNL     1       0.545   0.937   3.603  0.00  0.00    +0.143 HD
ATOM     22  H   UNL     1       1.762   0.353   4.602  0.00  0.00    +0.143 HD
ENDBRANCH  18  20
ENDBRANCH   5  18
TORSDOF 3
