REMARK  Name = ZINC03327016
REMARK  8 active torsions:
REMARK  status: ('A' for Active; 'I' for Inactive)
REMARK    1  A    between atoms: C_1  and  C_2
REMARK    2  A    between atoms: C_2  and  N_41
REMARK    3  A    between atoms: C_6  and  C_8
REMARK    4  A    between atoms: C_8  and  N_9
REMARK    5  A    between atoms: N_9  and  C_10
REMARK    6  A    between atoms: C_10  and  N_12
REMARK    7  A    between atoms: N_12  and  C_13
REMARK    8  A    between atoms: C_15  and  N_20
REMARK                            x       y       z     vdW  Elec       q    Type
REMARK                         _______ _______ _______ _____ _____    ______ ____
ROOT
ATOM      1  C   UNL     1       4.661   1.589  -0.211  0.00  0.00    +0.135 C 
ATOM      2  S   UNL     1       4.665  -0.075  -0.611  0.00  0.00    -0.019 S 
ENDROOT
BRANCH   1   3
ATOM      3  N   UNL     1       5.810   2.203   0.133  0.00  0.00    -0.328 N 
ATOM      4  H   UNL     1       5.808   3.146   0.359  0.00  0.00    +0.148 HD
BRANCH   3   5
ATOM      5  C   UNL     1       7.064   1.446   0.165  0.00  0.00    +0.088 C 
BRANCH   5   9
ATOM      6  C   UNL     1       9.800   3.607  -0.932  0.00  0.00    -0.078 C 
ATOM      7  C   UNL     1      10.585   2.739   0.073  0.00  0.00    -0.020 C 
ATOM      8  C   UNL     1       9.570   1.623   0.442  0.00  0.00    -0.016 C 
ATOM      9  C   UNL     1       8.231   2.401   0.421  0.00  0.00    -0.051 C 
ATOM     10  N   UNL     1       8.369   3.345  -0.706  0.00  0.00    +0.382 N 
ATOM     11  H   UNL     1       7.963   2.926  -1.551  0.00  0.00    -0.081 HD
BRANCH  10  13
ATOM     12  C   UNL     1       7.873   5.602  -1.549  0.00  0.00    -0.017 C 
ATOM     13  C   UNL     1       7.657   4.613  -0.402  0.00  0.00    -0.082 C 
ENDBRANCH  10  13
ENDBRANCH   5   9
ENDBRANCH   3   5
ENDBRANCH   1   3
BRANCH   1  14
ATOM     14  N   UNL     1       3.508   2.287  -0.241  0.00  0.00    -0.296 N 
ATOM     15  H   UNL     1       3.511   3.239  -0.055  0.00  0.00    +0.154 HD
BRANCH  14  16
ATOM     16  C   UNL     1       2.305   1.637  -0.541  0.00  0.00    +0.053 A 
ATOM     17  C   UNL     1       2.059   0.364  -0.043  0.00  0.00    +0.057 A 
ATOM     18  C   UNL     1       0.871  -0.275  -0.341  0.00  0.00    +0.128 A 
ATOM     19  C   UNL     1      -0.073   0.351  -1.134  0.00  0.00    +0.034 A 
ATOM     20  C   UNL     1       0.168   1.619  -1.631  0.00  0.00    +0.024 A 
ATOM     21  C   UNL     1       1.354   2.264  -1.337  0.00  0.00    +0.062 A 
ATOM     22 CL   UNL     1       1.657   3.854  -1.963  0.00  0.00    -0.082 Cl
BRANCH  18  23
ATOM     23  N   UNL     1       0.609  -1.632   0.189  0.00  0.00    +0.056 N 
ATOM     24  O   UNL     1      -0.438  -2.196  -0.074  0.00  0.00    -0.126 OA
ATOM     25  O   UNL     1       1.440  -2.184   0.887  0.00  0.00    -0.126 OA
ENDBRANCH  18  23
ENDBRANCH  14  16
ENDBRANCH   1  14
TORSDOF 7
