REMARK  Name = ZINC09039419
REMARK  6 active torsions:
REMARK  status: ('A' for Active; 'I' for Inactive)
REMARK    1  A    between atoms: C_1  and  O_2
REMARK    2  A    between atoms: O_2  and  C_3
REMARK    3  A    between atoms: C_6  and  N_9
REMARK    4  A    between atoms: C_11  and  C_16
REMARK    5  A    between atoms: C_16  and  N_17
REMARK    6  A    between atoms: N_20  and  C_21
REMARK                            x       y       z     vdW  Elec       q    Type
REMARK                         _______ _______ _______ _____ _____    ______ ____
ROOT
ATOM      1  N   UNL     1       4.428  -0.359   0.050  0.00  0.00    -0.299 N 
ATOM      2  C   UNL     1       5.647  -0.528  -0.500  0.00  0.00    +0.300 C 
ATOM      3  O   UNL     1       6.051   0.258  -1.335  0.00  0.00    -0.253 OA
ATOM      4  N   UNL     1       6.418  -1.567  -0.124  0.00  0.00    -0.294 N 
ATOM      5  H   UNL     1       4.106  -0.986   0.716  0.00  0.00    +0.150 HD
ATOM      6  H   UNL     1       6.096  -2.194   0.542  0.00  0.00    +0.151 HD
ENDROOT
BRANCH   4   7
ATOM      7  C   UNL     1       7.743  -1.750  -0.722  0.00  0.00    +0.037 C 
ATOM      8  C   UNL     1       8.608  -0.523  -0.429  0.00  0.00    +0.029 C 
ATOM      9  C   UNL     1       9.992  -0.714  -1.053  0.00  0.00    -0.008 C 
ATOM     10  C   UNL     1      10.653  -1.958  -0.457  0.00  0.00    +0.007 C 
ATOM     11  C   UNL     1       9.788  -3.185  -0.749  0.00  0.00    -0.008 C 
ATOM     12  C   UNL     1       8.404  -2.994  -0.125  0.00  0.00    +0.029 C 
ATOM     13  C   UNL     1       9.645  -3.360  -2.262  0.00  0.00    +0.007 C 
ATOM     14  C   UNL     1       8.984  -2.115  -2.859  0.00  0.00    -0.008 C 
ATOM     15  C   UNL     1       9.850  -0.888  -2.566  0.00  0.00    +0.007 C 
ATOM     16  C   UNL     1       7.600  -1.924  -2.235  0.00  0.00    +0.029 C 
ENDBRANCH   4   7
BRANCH   1  17
ATOM     17  C   UNL     1       3.590   0.770  -0.359  0.00  0.00    +0.111 C 
BRANCH  17  20
ATOM     18  N   UNL     1      -0.016   1.340   0.009  0.00  0.00    -0.271 N 
ATOM     19  C   UNL     1       1.344   1.892  -0.016  0.00  0.00    +0.119 C 
ATOM     20  C   UNL     1       2.268   0.730   0.410  0.00  0.00    +0.033 C 
ATOM     21  C   UNL     1       1.430  -0.505   0.005  0.00  0.00    +0.103 C 
ATOM     22  C   UNL     1       0.002  -0.004   0.016  0.00  0.00    +0.220 C 
ATOM     23  O   UNL     1      -0.983  -0.712   0.030  0.00  0.00    -0.275 OA
BRANCH  18  27
ATOM     24  C   UNL     1      -3.490   3.646   0.038  0.00  0.00    +0.120 A 
ATOM     25  C   UNL     1      -2.250   4.259   0.141  0.00  0.00    +0.047 A 
ATOM     26  C   UNL     1      -1.099   3.496   0.131  0.00  0.00    +0.027 A 
ATOM     27  C   UNL     1      -1.183   2.115   0.019  0.00  0.00    +0.036 A 
ATOM     28  C   UNL     1      -2.425   1.502  -0.088  0.00  0.00    +0.027 A 
ATOM     29  C   UNL     1      -3.575   2.266  -0.074  0.00  0.00    +0.047 A 
BRANCH  24  31
ATOM     30  C   UNL     1      -5.866   3.700  -0.064  0.00  0.00    +0.277 C 
ATOM     31  O   UNL     1      -4.623   4.398   0.046  0.00  0.00    -0.495 OA
ENDBRANCH  24  31
ENDBRANCH  18  27
ENDBRANCH  17  20
ENDBRANCH   1  17
TORSDOF 5
