REMARK  Name = ZINC09998611
REMARK  7 active torsions:
REMARK  status: ('A' for Active; 'I' for Inactive)
REMARK    1  A    between atoms: C_1  and  C_2
REMARK    2  A    between atoms: C_7  and  O_25
REMARK    3  A    between atoms: N_10  and  C_11
REMARK    4  A    between atoms: C_11  and  C_12
REMARK    5  A    between atoms: C_18  and  C_22
REMARK    6  A    between atoms: O_25  and  C_26
REMARK    7  A    between atoms: C_32  and  C_34
REMARK                            x       y       z     vdW  Elec       q    Type
REMARK                         _______ _______ _______ _____ _____    ______ ____
ROOT
ATOM      1  C   UNL     1       1.106   4.845   4.663  0.00  0.00    +0.086 C 
ATOM      2  C   UNL     1      -0.214   4.750   3.942  0.00  0.00    +0.108 A 
ATOM      3  N   UNL     1      -0.882   3.650   3.752  0.00  0.00    -0.233 NA
ATOM      4  C   UNL     1      -2.025   3.921   3.070  0.00  0.00    +0.090 A 
ATOM      5  C   UNL     1      -3.082   3.131   2.611  0.00  0.00    +0.033 A 
ATOM      6  C   UNL     1      -4.118   3.706   1.931  0.00  0.00    +0.048 A 
ATOM      7  C   UNL     1      -4.138   5.078   1.698  0.00  0.00    +0.123 A 
ATOM      8  C   UNL     1      -3.102   5.878   2.144  0.00  0.00    +0.073 A 
ATOM      9  C   UNL     1      -2.040   5.306   2.831  0.00  0.00    +0.073 A 
ATOM     10  N   UNL     1      -0.882   5.803   3.395  0.00  0.00    -0.323 N 
ENDROOT
BRANCH  10  11
ATOM     11  C   UNL     1      -0.451   7.203   3.403  0.00  0.00    +0.158 C 
BRANCH  11  12
ATOM     12  C   UNL     1       0.382   7.479   2.178  0.00  0.00    -0.027 A 
ATOM     13  C   UNL     1       1.763   7.299   2.232  0.00  0.00    +0.006 A 
ATOM     14  C   UNL     1       2.544   7.535   1.143  0.00  0.00    +0.009 A 
ATOM     15  C   UNL     1       1.955   7.977  -0.054  0.00  0.00    -0.018 A 
ATOM     16  C   UNL     1       2.736   8.235  -1.195  0.00  0.00    +0.009 A 
ATOM     17  C   UNL     1       2.144   8.662  -2.340  0.00  0.00    +0.012 A 
ATOM     18  C   UNL     1       0.753   8.852  -2.405  0.00  0.00    +0.013 A 
ATOM     19  C   UNL     1      -0.042   8.607  -1.300  0.00  0.00    +0.019 A 
ATOM     20  C   UNL     1       0.551   8.165  -0.107  0.00  0.00    -0.017 A 
ATOM     21  C   UNL     1      -0.224   7.906   1.037  0.00  0.00    +0.014 A 
BRANCH  18  22
ATOM     22  C   UNL     1       0.134   9.318  -3.667  0.00  0.00    +0.094 C 
ATOM     23  H   UNL     1      -1.653   9.798  -4.515  0.00  0.00    +0.157 HD
ATOM     24  N   UNL     1       0.921   9.563  -4.771  0.00  0.00    -0.345 N 
ATOM     25  H   UNL     1       1.881   9.431  -4.722  0.00  0.00    +0.144 HD
ATOM     26  H   UNL     1       0.516   9.868  -5.598  0.00  0.00    +0.144 HD
ATOM     27  N   UNL     1      -1.180   9.479  -3.669  0.00  0.00    -0.387 N 
ATOM     28  H   UNL     1      -1.723   9.282  -2.820  0.00  0.00    +0.157 HD
ENDBRANCH  18  22
ENDBRANCH  11  12
ENDBRANCH  10  11
BRANCH   7  29
ATOM     29  O   UNL     1      -5.180   5.634   1.025  0.00  0.00    -0.489 OA
BRANCH  29  30
ATOM     30  C   UNL     1      -6.180   4.743   0.526  0.00  0.00    +0.176 C 
ATOM     31  C   UNL     1      -5.719   4.159  -0.812  0.00  0.00    +0.063 C 
ATOM     32  C   UNL     1      -6.777   3.178  -1.327  0.00  0.00    +0.110 C 
ATOM     33  N   UNL     1      -8.073   3.867  -1.384  0.00  0.00    -0.320 N 
ATOM     34  C   UNL     1      -8.568   4.543  -0.177  0.00  0.00    +0.110 C 
ATOM     35  C   UNL     1      -7.490   5.508   0.326  0.00  0.00    +0.063 C 
ATOM     36  C   UNL     1      -8.806   3.881  -2.542  0.00  0.00    +0.065 C 
ATOM     37  H   UNL     1     -10.474   4.662  -3.390  0.00  0.00    +0.157 HD
ATOM     38  C   UNL     1      -8.352   3.074  -3.730  0.00  0.00    +0.080 C 
ATOM     39  N   UNL     1      -9.895   4.619  -2.551  0.00  0.00    -0.391 N 
ATOM     40  H   UNL     1     -10.161   5.151  -1.715  0.00  0.00    +0.157 HD
ENDBRANCH  29  30
ENDBRANCH   7  29
TORSDOF 5
