REMARK  Name = ZINC61912451
REMARK  6 active torsions:
REMARK  status: ('A' for Active; 'I' for Inactive)
REMARK    1  A    between atoms: C_1  and  C_2
REMARK    2  A    between atoms: N_6  and  C_15
REMARK    3  A    between atoms: C_10  and  N_14
REMARK    4  A    between atoms: C_15  and  C_16
REMARK    5  A    between atoms: C_16  and  C_18
REMARK    6  A    between atoms: C_16  and  C_19
REMARK                            x       y       z     vdW  Elec       q    Type
REMARK                         _______ _______ _______ _____ _____    ______ ____
ROOT
ATOM      1  C   UNL     1      -0.019   1.526   0.010  0.00  0.00    +0.062 C 
ATOM      2  C   UNL     1       0.002  -0.004   0.002  0.00  0.00    +0.256 C 
ATOM      3  C   UNL     1      -1.413  -0.525   0.011  0.00  0.00    +0.260 C 
ATOM      4  O   UNL     1      -2.307   0.131  -0.480  0.00  0.00    -0.271 OA
ATOM      5  N   UNL     1      -1.680  -1.727   0.568  0.00  0.00    -0.264 N 
ATOM      6  C   UNL     1      -0.632  -2.450   1.160  0.00  0.00    +0.078 A 
ATOM      7  C   UNL     1      -0.780  -3.796   1.452  0.00  0.00    +0.029 A 
ATOM      8  C   UNL     1       0.261  -4.493   2.036  0.00  0.00    +0.025 A 
ATOM      9  C   UNL     1       1.454  -3.846   2.331  0.00  0.00    +0.028 A 
ATOM     10  C   UNL     1       1.605  -2.496   2.039  0.00  0.00    +0.070 A 
ATOM     11  C   UNL     1       0.564  -1.798   1.454  0.00  0.00    +0.145 A 
ATOM     12  O   UNL     1       0.695  -0.477   1.160  0.00  0.00    -0.478 OA
ENDROOT
BRANCH   9  13
ATOM     13  N   UNL     1       2.505  -4.554   2.923  0.00  0.00    -0.358 N 
ATOM     14  H   UNL     1       2.400  -5.497   3.127  0.00  0.00    +0.142 HD
ATOM     15  H   UNL     1       3.338  -4.103   3.130  0.00  0.00    +0.142 HD
ENDBRANCH   9  13
BRANCH   5  16
ATOM     16  C   UNL     1      -3.042  -2.266   0.554  0.00  0.00    +0.126 C 
BRANCH  16  17
ATOM     17  C   UNL     1      -3.248  -3.099  -0.714  0.00  0.00    +0.089 C 
ATOM     18  C   UNL     1      -3.160  -2.189  -1.941  0.00  0.00    +0.019 C 
BRANCH  17  19
ATOM     19  C   UNL     1      -4.604  -3.753  -0.669  0.00  0.00    +0.215 C 
ATOM     20  O   UNL     1      -5.335  -3.572   0.282  0.00  0.00    -0.276 OA
ATOM     21  N   UNL     1      -5.006  -4.541  -1.687  0.00  0.00    -0.329 N 
ATOM     22  H   UNL     1      -4.422  -4.686  -2.448  0.00  0.00    +0.145 HD
ATOM     23  H   UNL     1      -5.879  -4.962  -1.659  0.00  0.00    +0.145 HD
ENDBRANCH  17  19
ENDBRANCH  16  17
ENDBRANCH   5  16
TORSDOF 4
