REMARK  Name = ZINC39293150
REMARK  8 active torsions:
REMARK  status: ('A' for Active; 'I' for Inactive)
REMARK    1  A    between atoms: C_1  and  O_2
REMARK    2  A    between atoms: O_2  and  C_3
REMARK    3  A    between atoms: N_15  and  C_17
REMARK    4  A    between atoms: C_17  and  C_18
REMARK    5  A    between atoms: C_18  and  C_19
REMARK    6  A    between atoms: C_19  and  C_20
REMARK    7  A    between atoms: C_20  and  N_21
REMARK    8  A    between atoms: C_35  and  O_38
REMARK                            x       y       z     vdW  Elec       q    Type
REMARK                         _______ _______ _______ _____ _____    ______ ____
ROOT
ATOM      1  C   UNL     1      -0.018   0.083  -1.744  0.00  0.00    +0.162 A 
ATOM      2  C   UNL     1       0.663   0.685  -2.796  0.00  0.00    +0.049 A 
ATOM      3  C   UNL     1       1.362  -0.055  -3.719  0.00  0.00    +0.006 A 
ATOM      4  C   UNL     1       1.444  -1.454  -3.643  0.00  0.00    -0.056 A 
ATOM      5  C   UNL     1       0.816  -2.040  -2.589  0.00  0.00    +0.013 A 
ATOM      6  C   UNL     1       0.083  -1.310  -1.643  0.00  0.00    +0.167 A 
ATOM      7  O   UNL     1      -0.428  -2.099  -0.672  0.00  0.00    -0.484 OA
ATOM      8  C   UNL     1      -0.360  -3.467  -1.097  0.00  0.00    +0.191 C 
ATOM      9  C   UNL     1       0.788  -3.480  -2.113  0.00  0.00    +0.053 C 
ATOM     10  C   UNL     1       0.471  -4.424  -3.254  0.00  0.00    +0.001 C 
ATOM     11  C   UNL     1       1.536  -4.421  -4.311  0.00  0.00    -0.077 C 
ATOM     12  N   UNL     1       1.467  -3.325  -5.234  0.00  0.00    +0.382 N 
ATOM     13  C   UNL     1       2.143  -2.121  -4.792  0.00  0.00    -0.043 C 
ATOM     14  C   UNL     1       2.099  -3.815  -1.481  0.00  0.00    -0.014 C 
ATOM     15  C   UNL     1       2.301  -4.028  -0.220  0.00  0.00    +0.001 C 
ATOM     16  C   UNL     1       1.176  -3.968   0.779  0.00  0.00    +0.141 C 
ATOM     17  C   UNL     1      -0.107  -4.390   0.084  0.00  0.00    +0.081 C 
ATOM     18  H   UNL     1       0.495  -3.105  -5.397  0.00  0.00    -0.081 HD
ENDROOT
BRANCH   1  20
ATOM     19  C   UNL     1      -0.776   2.227  -1.049  0.00  0.00    +0.277 C 
ATOM     20  O   UNL     1      -0.741   0.812  -0.853  0.00  0.00    -0.491 OA
ENDBRANCH   1  20
BRANCH  16  21
ATOM     21  O   UNL     1       1.447  -4.856   1.866  0.00  0.00    -0.388 OA
ATOM     22  H   UNL     1       2.262  -4.654   2.345  0.00  0.00    +0.210 HD
ENDBRANCH  16  21
BRANCH  12  23
ATOM     23  C   UNL     1       2.061  -3.751  -6.508  0.00  0.00    -0.078 C 
BRANCH  23  24
ATOM     24  C   UNL     1       1.198  -4.850  -7.131  0.00  0.00    -0.017 C 
BRANCH  24  25
ATOM     25  C   UNL     1       1.738  -5.196  -8.521  0.00  0.00    +0.019 C 
BRANCH  25  26
ATOM     26  C   UNL     1       0.875  -6.295  -9.144  0.00  0.00    +0.135 C 
BRANCH  26  27
ATOM     27  N   UNL     1       1.391  -6.626 -10.474  0.00  0.00    -0.168 N 
ATOM     28  C   UNL     1       1.117  -6.002 -11.630  0.00  0.00    +0.268 C 
ATOM     29  O   UNL     1       0.365  -5.047 -11.661  0.00  0.00    -0.268 OA
ATOM     30  C   UNL     1       1.750  -6.504 -12.857  0.00  0.00    +0.065 A 
ATOM     31  C   UNL     1       1.641  -6.048 -14.182  0.00  0.00    +0.015 A 
ATOM     32  C   UNL     1       2.332  -6.677 -15.192  0.00  0.00    +0.001 A 
ATOM     33  C   UNL     1       3.145  -7.765 -14.928  0.00  0.00    +0.002 A 
ATOM     34  C   UNL     1       3.265  -8.229 -13.626  0.00  0.00    +0.029 A 
ATOM     35  C   UNL     1       2.581  -7.607 -12.620  0.00  0.00    +0.121 A 
ATOM     36  S   UNL     1       2.453  -7.856 -10.871  0.00  0.00    +0.078 S 
ATOM     37  O   UNL     1       3.713  -7.542 -10.295  0.00  0.00    -0.150 OA
ATOM     38  O   UNL     1       1.781  -9.091 -10.660  0.00  0.00    -0.150 OA
ENDBRANCH  26  27
ENDBRANCH  25  26
ENDBRANCH  24  25
ENDBRANCH  23  24
ENDBRANCH  12  23
TORSDOF 7
