REMARK  Name = ZINC48571486
REMARK  3 active torsions:
REMARK  status: ('A' for Active; 'I' for Inactive)
REMARK    1  A    between atoms: C_1  and  C_2
REMARK    2  A    between atoms: N_10  and  C_11
REMARK    3  A    between atoms: C_11  and  C_12
REMARK                            x       y       z     vdW  Elec       q    Type
REMARK                         _______ _______ _______ _____ _____    ______ ____
ROOT
ATOM      1  C   UNL     1      -0.018   1.503   0.010  0.00  0.00    +0.067 C 
ATOM      2  C   UNL     1       0.002  -0.004   0.002  0.00  0.00    +0.059 A 
ATOM      3  C   UNL     1       0.008  -0.786  -1.093  0.00  0.00    +0.138 A 
ATOM      4  N   UNL     1       0.028  -2.108  -0.668  0.00  0.00    -0.212 N 
ATOM      5  C   UNL     1       0.033  -2.038   0.698  0.00  0.00    +0.197 A 
ATOM      6  N   UNL     1       0.024  -0.795   1.085  0.00  0.00    -0.225 NA
ATOM      7  S   UNL     1       0.058  -3.752   1.169  0.00  0.00    -0.013 S 
ATOM      8  C   UNL     1       0.060  -4.450  -0.475  0.00  0.00    +0.182 A 
ATOM      9  N   UNL     1       0.042  -3.382  -1.226  0.00  0.00    -0.142 NA
ATOM     10  N   UNL     1       0.077  -5.783  -0.855  0.00  0.00    -0.318 N 
ATOM     11  H   UNL     1       0.076  -6.019  -1.796  0.00  0.00    +0.148 HD
ENDROOT
BRANCH  10  12
ATOM     12  C   UNL     1       0.096  -6.835   0.164  0.00  0.00    +0.140 C 
BRANCH  12  13
ATOM     13  C   UNL     1       0.112  -8.184  -0.508  0.00  0.00    -0.014 A 
ATOM     14  C   UNL     1      -1.059  -8.909  -0.629  0.00  0.00    +0.044 A 
ATOM     15  C   UNL     1      -1.044 -10.148  -1.246  0.00  0.00    +0.124 A 
ATOM     16  C   UNL     1       0.143 -10.661  -1.741  0.00  0.00    +0.039 A 
ATOM     17  C   UNL     1       1.313  -9.935  -1.618  0.00  0.00    +0.018 A 
ATOM     18  C   UNL     1       1.296  -8.694  -1.007  0.00  0.00    +0.023 A 
ATOM     19 BR   UNL     1       2.896  -7.698  -0.847  0.00  0.00    -0.050 Br
ATOM     20  F   UNL     1      -2.188 -10.857  -1.365  0.00  0.00    -0.205 F 
ENDBRANCH  12  13
ENDBRANCH  10  12
TORSDOF 2
