REMARK  Name = ZINC04822295
REMARK  9 active torsions:
REMARK  status: ('A' for Active; 'I' for Inactive)
REMARK    1  A    between atoms: C_1  and  C_2
REMARK    2  A    between atoms: C_5  and  S_8
REMARK    3  A    between atoms: S_8  and  O_11
REMARK    4  A    between atoms: O_11  and  C_12
REMARK    5  A    between atoms: C_12  and  C_13
REMARK    6  A    between atoms: C_15  and  O_33
REMARK    7  A    between atoms: C_17  and  O_32
REMARK    8  A    between atoms: C_19  and  N_22
REMARK    9  A    between atoms: C_30  and  N_31
REMARK                            x       y       z     vdW  Elec       q    Type
REMARK                         _______ _______ _______ _____ _____    ______ ____
ROOT
ATOM      1  C   UNL     1       1.423   1.645  -0.003  0.00  0.00    +0.180 C 
ATOM      2  C   UNL     1      -0.013   1.086   0.008  0.00  0.00    +0.178 C 
ATOM      3  C   UNL     1      -0.640   1.626  -1.300  0.00  0.00    +0.195 C 
ATOM      4  C   UNL     1       0.275   2.835  -1.624  0.00  0.00    +0.253 C 
ATOM      5  O   UNL     1       1.587   2.380  -1.227  0.00  0.00    -0.346 OA
ENDROOT
BRANCH   4   6
ATOM      6  N   UNL     1       0.245   3.135  -3.057  0.00  0.00    -0.286 N 
ATOM      7  C   UNL     1       1.080   2.625  -4.006  0.00  0.00    +0.203 A 
ATOM      8  N   UNL     1       0.771   3.105  -5.175  0.00  0.00    -0.231 NA
ATOM      9  C   UNL     1      -0.279   3.952  -5.052  0.00  0.00    +0.147 A 
ATOM     10  C   UNL     1      -0.633   3.978  -3.692  0.00  0.00    +0.167 A 
ATOM     11  N   UNL     1      -1.643   4.748  -3.301  0.00  0.00    -0.216 NA
ATOM     12  C   UNL     1      -2.312   5.471  -4.175  0.00  0.00    +0.225 A 
ATOM     13  N   UNL     1      -2.020   5.475  -5.463  0.00  0.00    -0.219 NA
ATOM     14  C   UNL     1      -1.023   4.741  -5.945  0.00  0.00    +0.147 A 
BRANCH  14  15
ATOM     15  N   UNL     1      -0.725   4.752  -7.297  0.00  0.00    -0.341 N 
ATOM     16  H   UNL     1       0.213   5.071  -7.428  0.00  0.00    +0.144 HD
ATOM     17  H   UNL     1      -1.246   5.301  -7.904  0.00  0.00    +0.144 HD
ENDBRANCH  14  15
ENDBRANCH   4   6
BRANCH   3  18
ATOM     18  O   UNL     1      -0.578   0.647  -2.338  0.00  0.00    -0.385 OA
ATOM     19  H   UNL     1      -1.062  -0.167  -2.142  0.00  0.00    +0.210 HD
ENDBRANCH   3  18
BRANCH   2  20
ATOM     20  O   UNL     1      -0.729   1.569   1.146  0.00  0.00    -0.386 OA
ATOM     21  H   UNL     1      -1.648   1.271   1.188  0.00  0.00    +0.210 HD
ENDBRANCH   2  20
BRANCH   1  22
ATOM     22  C   UNL     1       2.430   0.494   0.051  0.00  0.00    +0.228 C 
BRANCH  22  23
ATOM     23  O   UNL     1       3.753   1.023   0.158  0.00  0.00    -0.232 OA
BRANCH  23  24
ATOM     24  S   UNL     1       4.841  -0.039   0.220  0.00  0.00    +0.112 S 
ATOM     25  O   UNL     1       6.052   0.637   0.532  0.00  0.00    -0.142 OA
ATOM     26  O   UNL     1       4.332  -1.097   1.020  0.00  0.00    -0.142 OA
BRANCH  24  31
ATOM     27  C   UNL     1       5.491  -2.255  -5.355  0.00  0.00    +0.044 C 
ATOM     28  C   UNL     1       5.329  -1.701  -3.962  0.00  0.00    -0.050 A 
ATOM     29  C   UNL     1       6.080  -0.614  -3.559  0.00  0.00    +0.005 A 
ATOM     30  C   UNL     1       5.932  -0.106  -2.282  0.00  0.00    +0.030 A 
ATOM     31  C   UNL     1       5.031  -0.686  -1.408  0.00  0.00    +0.117 A 
ATOM     32  C   UNL     1       4.283  -1.777  -1.810  0.00  0.00    +0.030 A 
ATOM     33  C   UNL     1       4.428  -2.282  -3.088  0.00  0.00    +0.005 A 
ENDBRANCH  24  31
ENDBRANCH  23  24
ENDBRANCH  22  23
ENDBRANCH   1  22
TORSDOF 8
