REMARK  Name = ZINC04453341
REMARK  5 active torsions:
REMARK  status: ('A' for Active; 'I' for Inactive)
REMARK    1  A    between atoms: C_1  and  O_2
REMARK    2  A    between atoms: O_2  and  C_3
REMARK    3  A    between atoms: C_3  and  C_4
REMARK    4  A    between atoms: C_11  and  N_25
REMARK    5  A    between atoms: C_12  and  C_23
REMARK                            x       y       z     vdW  Elec       q    Type
REMARK                         _______ _______ _______ _____ _____    ______ ____
ROOT
ATOM      1  C   UNL     1       0.633  -2.085   1.012  0.00  0.00    +0.070 A 
ATOM      2  C   UNL     1       1.157  -2.957   1.886  0.00  0.00    +0.063 A 
ATOM      3  C   UNL     1       0.901  -4.263   1.409  0.00  0.00    +0.246 A 
ATOM      4  N   UNL     1       0.246  -4.161   0.290  0.00  0.00    -0.135 NA
ATOM      5  N   UNL     1       0.057  -2.797   0.017  0.00  0.00    -0.276 N 
ATOM      6  H   UNL     1      -0.405  -2.429  -0.753  0.00  0.00    +0.189 HD
ATOM      7  O   UNL     1       1.315  -5.369   2.084  0.00  0.00    -0.421 OA
ATOM      8  C   UNL     1       2.203  -5.199   3.084  0.00  0.00    +0.201 C 
ATOM      9  C   UNL     1       2.519  -4.004   3.629  0.00  0.00    +0.110 C 
ATOM     10  C   UNL     1       1.901  -2.713   3.169  0.00  0.00    +0.145 C 
ATOM     11  C   UNL     1       1.004  -2.136   4.216  0.00  0.00    -0.002 A 
ATOM     12  C   UNL     1      -0.136  -2.627   4.817  0.00  0.00    +0.007 A 
ATOM     13  C   UNL     1      -0.743  -1.819   5.772  0.00  0.00    +0.000 A 
ATOM     14  C   UNL     1      -0.227  -0.583   6.103  0.00  0.00    +0.002 A 
ATOM     15  C   UNL     1       0.919  -0.083   5.504  0.00  0.00    +0.023 A 
ATOM     16  C   UNL     1       1.539  -0.884   4.543  0.00  0.00    +0.038 A 
ATOM     17  N   UNL     1       2.680  -0.639   3.799  0.00  0.00    -0.284 N 
ATOM     18  C   UNL     1       2.969  -1.661   2.966  0.00  0.00    +0.238 C 
ATOM     19  O   UNL     1       3.907  -1.724   2.199  0.00  0.00    -0.274 OA
ATOM     20  H   UNL     1       3.209   0.171   3.868  0.00  0.00    +0.155 HD
ENDROOT
BRANCH   8  21
ATOM     21  N   UNL     1       2.826  -6.316   3.583  0.00  0.00    -0.328 N 
ATOM     22  H   UNL     1       2.623  -7.190   3.215  0.00  0.00    +0.145 HD
ATOM     23  H   UNL     1       3.470  -6.230   4.303  0.00  0.00    +0.145 HD
ENDBRANCH   8  21
BRANCH   9  24
ATOM     24  C   UNL     1       3.483  -3.965   4.688  0.00  0.00    +0.102 C 
ATOM     25  N   UNL     1       4.247  -3.935   5.528  0.00  0.00    -0.191 NA
ENDBRANCH   9  24
BRANCH   1  26
ATOM     26  C   UNL     1       0.673  -0.582   1.123  0.00  0.00    +0.214 C 
BRANCH  26  28
ATOM     27  C   UNL     1      -0.017   1.425   0.010  0.00  0.00    +0.194 C 
ATOM     28  O   UNL     1       0.002  -0.004   0.002  0.00  0.00    -0.377 OA
ENDBRANCH  26  28
ENDBRANCH   1  26
TORSDOF 4
