REMARK  Name = ZINC40758238
REMARK  5 active torsions:
REMARK  status: ('A' for Active; 'I' for Inactive)
REMARK    1  A    between atoms: C_1  and  C_2
REMARK    2  A    between atoms: C_7  and  N_8
REMARK    3  A    between atoms: C_10  and  N_23
REMARK    4  A    between atoms: C_11  and  O_15
REMARK    5  A    between atoms: O_15  and  C_16
REMARK                            x       y       z     vdW  Elec       q    Type
REMARK                         _______ _______ _______ _____ _____    ______ ____
ROOT
ATOM      1  N   UNL     1      -0.053  -0.018   2.409  0.00  0.00    -0.283 N 
ATOM      2  C   UNL     1      -0.031  -0.726   3.606  0.00  0.00    +0.152 A 
ATOM      3  C   UNL     1       0.006  -0.051   4.829  0.00  0.00    +0.128 A 
ATOM      4  C   UNL     1       0.026  -0.809   5.999  0.00  0.00    +0.246 A 
ATOM      5  N   UNL     1       0.009  -2.136   5.908  0.00  0.00    -0.199 NA
ATOM      6  C   UNL     1      -0.025  -2.734   4.735  0.00  0.00    +0.227 A 
ATOM      7  N   UNL     1      -0.050  -2.056   3.605  0.00  0.00    -0.218 NA
ATOM      8  H   UNL     1      -0.038   0.952   2.419  0.00  0.00    +0.155 HD
ENDROOT
BRANCH   1  15
ATOM      9  C   UNL     1      -0.094   1.520   0.016  0.00  0.00    +0.047 C 
ATOM     10  C   UNL     1      -0.116   0.013   0.004  0.00  0.00    -0.010 A 
ATOM     11  C   UNL     1      -0.153  -0.679  -1.193  0.00  0.00    +0.008 A 
ATOM     12  C   UNL     1      -0.172  -2.066  -1.156  0.00  0.00    +0.020 A 
ATOM     13  C   UNL     1      -0.154  -2.711   0.065  0.00  0.00    +0.113 A 
ATOM     14  N   UNL     1      -0.119  -2.025   1.191  0.00  0.00    -0.240 NA
ATOM     15  C   UNL     1      -0.095  -0.701   1.198  0.00  0.00    +0.127 A 
ENDBRANCH   1  15
BRANCH   3  16
ATOM     16  N   UNL     1       0.022   1.351   4.879  0.00  0.00    -0.351 N 
ATOM     17  H   UNL     1       0.008   1.865   4.056  0.00  0.00    +0.143 HD
ATOM     18  H   UNL     1       0.048   1.806   5.735  0.00  0.00    +0.143 HD
ENDBRANCH   3  16
BRANCH   4  19
ATOM     19  O   UNL     1       0.062  -0.203   7.212  0.00  0.00    -0.436 OA
BRANCH  19  20
ATOM     20  C   UNL     1      -0.022  -0.986   8.320  0.00  0.00    +0.130 A 
ATOM     21  C   UNL     1       1.085  -1.706   8.747  0.00  0.00    +0.047 A 
ATOM     22  C   UNL     1       0.998  -2.501   9.873  0.00  0.00    +0.019 A 
ATOM     23  C   UNL     1      -0.192  -2.580  10.574  0.00  0.00    +0.018 A 
ATOM     24  C   UNL     1      -1.296  -1.864  10.150  0.00  0.00    +0.019 A 
ATOM     25  C   UNL     1      -1.212  -1.062   9.028  0.00  0.00    +0.047 A 
ATOM     26 BR   UNL     1      -0.308  -3.671  12.115  0.00  0.00    -0.050 Br
ENDBRANCH  19  20
ENDBRANCH   4  19
TORSDOF 4
