REMARK  Name = ZINC34789284
REMARK  8 active torsions:
REMARK  status: ('A' for Active; 'I' for Inactive)
REMARK    1  A    between atoms: C_1  and  C_2
REMARK    2  A    between atoms: C_2  and  C_3
REMARK    3  A    between atoms: C_3  and  C_29
REMARK    4  A    between atoms: C_13  and  N_28
REMARK    5  A    between atoms: C_15  and  S_17
REMARK    6  A    between atoms: S_17  and  C_18
REMARK    7  A    between atoms: C_18  and  C_19
REMARK    8  A    between atoms: C_19  and  C_21
REMARK                            x       y       z     vdW  Elec       q    Type
REMARK                         _______ _______ _______ _____ _____    ______ ____
ROOT
ATOM      1  C   UNL     1      -1.433  -0.534   0.013  0.00  0.00    +0.071 C 
ATOM      2  C   UNL     1      -1.411  -2.064  -0.004  0.00  0.00    +0.071 C 
ATOM      3  C   UNL     1      -2.833  -2.569   0.244  0.00  0.00    -0.024 C 
ATOM      4  C   UNL     1      -3.757  -1.724   0.752  0.00  0.00    +0.017 C 
ATOM      5  C   UNL     1      -3.518  -0.299   1.162  0.00  0.00    +0.203 C 
ATOM      6  O   UNL     1      -2.102  -0.072   1.190  0.00  0.00    -0.368 OA
ATOM      7  S   UNL     1      -5.296  -2.605   0.797  0.00  0.00    -0.095 S 
ATOM      8  C   UNL     1      -4.739  -4.176   0.046  0.00  0.00    +0.203 C 
ATOM      9  C   UNL     1      -3.225  -3.953   0.046  0.00  0.00    +0.027 C 
ATOM     10  C   UNL     1      -2.418  -5.036  -0.097  0.00  0.00    +0.099 C 
ATOM     11  N   UNL     1      -3.153  -6.245  -0.143  0.00  0.00    -0.177 NA
ATOM     12  C   UNL     1      -4.183  -6.353   0.787  0.00  0.00    +0.176 C 
ATOM     13  N   UNL     1      -5.011  -5.321   0.920  0.00  0.00    -0.242 NA
ATOM     14  C   UNL     1      -2.173  -0.023  -1.225  0.00  0.00    +0.042 C 
ENDROOT
BRANCH  10  15
ATOM     15  N   UNL     1      -1.024  -4.965  -0.188  0.00  0.00    -0.404 NA
ATOM     16  H   UNL     1      -0.624  -5.025   0.737  0.00  0.00    +0.122 HD
ATOM     17  H   UNL     1      -0.685  -5.730  -0.751  0.00  0.00    +0.122 HD
ATOM     18  H   UNL     1      -0.759  -4.090  -0.613  0.00  0.00    +0.122 HD
ENDBRANCH  10  15
BRANCH   1  20
ATOM     19  C   UNL     1      -0.019   1.526   0.010  0.00  0.00    +0.007 C 
ATOM     20  C   UNL     1       0.002  -0.004   0.002  0.00  0.00    +0.032 C 
ENDBRANCH   1  20
BRANCH  12  21
ATOM     21  S   UNL     1      -4.396  -7.817   1.745  0.00  0.00    -0.081 S 
BRANCH  21  22
ATOM     22  C   UNL     1      -5.842  -7.458   2.779  0.00  0.00    +0.156 C 
BRANCH  22  23
ATOM     23  C   UNL     1      -6.137  -8.645   3.660  0.00  0.00    +0.173 C 
ATOM     24  O   UNL     1      -5.441  -9.635   3.596  0.00  0.00    -0.291 OA
BRANCH  23  25
ATOM     25  C   UNL     1      -7.270  -8.601   4.596  0.00  0.00    +0.018 A 
ATOM     26  C   UNL     1      -8.079  -7.462   4.668  0.00  0.00    +0.014 A 
ATOM     27  C   UNL     1      -9.139  -7.428   5.548  0.00  0.00    +0.039 A 
ATOM     28  C   UNL     1      -9.404  -8.520   6.362  0.00  0.00    +0.123 A 
ATOM     29  C   UNL     1      -8.605  -9.653   6.295  0.00  0.00    +0.039 A 
ATOM     30  C   UNL     1      -7.546  -9.702   5.415  0.00  0.00    +0.014 A 
ATOM     31  F   UNL     1     -10.444  -8.480   7.223  0.00  0.00    -0.205 F 
ENDBRANCH  23  25
ENDBRANCH  22  23
ENDBRANCH  21  22
ENDBRANCH  12  21
TORSDOF 6
