REMARK  Name = ZINC42195090
REMARK  6 active torsions:
REMARK  status: ('A' for Active; 'I' for Inactive)
REMARK    1  A    between atoms: C_1  and  C_2
REMARK    2  A    between atoms: C_2  and  C_4
REMARK    3  A    between atoms: C_2  and  S_11
REMARK    4  A    between atoms: N_9  and  C_10
REMARK    5  A    between atoms: S_11  and  C_13
REMARK    6  A    between atoms: C_18  and  N_22
REMARK                            x       y       z     vdW  Elec       q    Type
REMARK                         _______ _______ _______ _____ _____    ______ ____
ROOT
ATOM      1  S   UNL     1       0.879  -0.605   1.472  0.00  0.00    +0.091 S 
ATOM      2  O   UNL     1       1.191  -1.982   1.307  0.00  0.00    -0.249 OA
ENDROOT
BRANCH   1   3
ATOM      3  C   UNL     1       2.445   0.199   1.392  0.00  0.00    +0.166 A 
ATOM      4  N   UNL     1       2.802   1.347   1.899  0.00  0.00    -0.230 NA
ATOM      5  C   UNL     1       4.048   1.851   1.762  0.00  0.00    +0.080 A 
ATOM      6  C   UNL     1       4.556   3.074   2.260  0.00  0.00    +0.031 A 
ATOM      7  C   UNL     1       5.845   3.440   2.031  0.00  0.00    +0.025 A 
ATOM      8  C   UNL     1       6.716   2.631   1.303  0.00  0.00    +0.026 A 
ATOM      9  C   UNL     1       6.254   1.423   0.798  0.00  0.00    +0.040 A 
ATOM     10  C   UNL     1       4.952   1.051   1.026  0.00  0.00    +0.042 A 
ATOM     11  S   UNL     1       3.950  -0.354   0.602  0.00  0.00    -0.059 S 
BRANCH   8  12
ATOM     12  N   UNL     1       8.037   3.032   1.082  0.00  0.00    -0.358 N 
ATOM     13  H   UNL     1       8.353   3.877   1.437  0.00  0.00    +0.142 HD
ATOM     14  H   UNL     1       8.638   2.464   0.574  0.00  0.00    +0.142 HD
ENDBRANCH   8  12
ENDBRANCH   1   3
BRANCH   1  16
ATOM     15  C   UNL     1      -0.019   1.526   0.010  0.00  0.00    +0.032 C 
ATOM     16  C   UNL     1       0.002  -0.004   0.002  0.00  0.00    +0.168 C 
BRANCH  16  17
ATOM     17  C   UNL     1      -1.412  -0.526   0.013  0.00  0.00    +0.236 C 
ATOM     18  O   UNL     1      -1.939  -0.827   1.062  0.00  0.00    -0.274 OA
ATOM     19  N   UNL     1      -2.090  -0.657  -1.144  0.00  0.00    -0.239 N 
ATOM     20  C   UNL     1      -3.355  -1.124  -1.135  0.00  0.00    +0.306 C 
ATOM     21  O   UNL     1      -3.883  -1.426  -0.083  0.00  0.00    -0.252 OA
ATOM     22  N   UNL     1      -4.033  -1.255  -2.292  0.00  0.00    -0.302 N 
ATOM     23  C   UNL     1      -5.408  -1.762  -2.281  0.00  0.00    +0.129 C 
ATOM     24  H   UNL     1      -1.669  -0.416  -1.984  0.00  0.00    +0.159 HD
ATOM     25  H   UNL     1      -3.611  -1.014  -3.131  0.00  0.00    +0.150 HD
ENDBRANCH  16  17
ENDBRANCH   1  16
TORSDOF 4
