REMARK  Name = ZINC21385581
REMARK  11 active torsions:
REMARK  status: ('A' for Active; 'I' for Inactive)
REMARK    1  A    between atoms: C_1  and  C_2
REMARK    2  A    between atoms: C_2  and  C_3
REMARK    3  A    between atoms: C_3  and  C_4
REMARK    4  A    between atoms: C_4  and  N_5
REMARK    5  A    between atoms: C_6  and  N_31
REMARK    6  A    between atoms: C_7  and  N_14
REMARK    7  A    between atoms: N_14  and  C_15
REMARK    8  A    between atoms: N_14  and  C_17
REMARK    9  A    between atoms: C_15  and  C_16
REMARK   10  A    between atoms: C_17  and  C_18
REMARK   11  A    between atoms: N_20  and  C_21
REMARK                            x       y       z     vdW  Elec       q    Type
REMARK                         _______ _______ _______ _____ _____    ______ ____
ROOT
ATOM      1  N   UNL     1      -0.723   1.572  -1.182  0.00  0.00    -0.315 N 
ENDROOT
BRANCH   1   4
ATOM      2  N   UNL     1       1.156   2.112  -4.288  0.00  0.00    -0.280 N 
ATOM      3  C   UNL     1       0.424   2.372  -3.152  0.00  0.00    +0.127 A 
ATOM      4  C   UNL     1       0.029   1.332  -2.355  0.00  0.00    +0.134 A 
ATOM      5  C   UNL     1       0.388   0.021  -2.717  0.00  0.00    +0.277 A 
ATOM      6  O   UNL     1       0.053  -0.921  -2.020  0.00  0.00    -0.266 OA
ATOM      7  N   UNL     1       1.101  -0.187  -3.842  0.00  0.00    -0.273 N 
ATOM      8  H   UNL     1       1.377  -1.210  -4.136  0.00  0.00    +0.173 HD
ATOM      9  C   UNL     1       1.481   0.847  -4.614  0.00  0.00    +0.331 A 
ATOM     10  O   UNL     1       2.128   0.636  -5.621  0.00  0.00    -0.246 OA
BRANCH   3  11
ATOM     11  N   UNL     1       0.092   3.666  -2.821  0.00  0.00    -0.343 N 
ATOM     12  H   UNL     1      -0.493   3.868  -1.911  0.00  0.00    +0.144 HD
ATOM     13  H   UNL     1       0.412   4.498  -3.465  0.00  0.00    +0.144 HD
ENDBRANCH   3  11
BRANCH   2  14
ATOM     14  C   UNL     1       1.583   3.218  -5.149  0.00  0.00    +0.128 C 
BRANCH  14  15
ATOM     15  C   UNL     1       2.953   3.721  -4.689  0.00  0.00    +0.021 C 
BRANCH  15  17
ATOM     16  C   UNL     1       4.770   5.379  -5.128  0.00  0.00    +0.004 C 
ATOM     17  C   UNL     1       3.400   4.876  -5.588  0.00  0.00    -0.002 C 
ENDBRANCH  15  17
ENDBRANCH  14  15
ENDBRANCH   2  14
ENDBRANCH   1   4
BRANCH   1  18
ATOM     18  C   UNL     1      -2.059   0.969  -1.281  0.00  0.00    +0.102 C 
ATOM     19  C   UNL     1      -2.858   1.677  -2.377  0.00  0.00    +0.024 C 
ENDBRANCH   1  18
BRANCH   1  20
ATOM     20  C   UNL     1      -0.013   1.086   0.008  0.00  0.00    +0.201 C 
BRANCH  20  21
ATOM     21  C   UNL     1      -0.718   1.572   1.248  0.00  0.00    +0.231 C 
ATOM     22  O   UNL     1      -1.714   2.256   1.150  0.00  0.00    -0.274 OA
ATOM     23  N   UNL     1      -0.242   1.246   2.466  0.00  0.00    -0.308 N 
ATOM     24  H   UNL     1       0.662   0.625   2.555  0.00  0.00    +0.149 HD
BRANCH  23  25
ATOM     25  C   UNL     1      -0.927   1.718   3.671  0.00  0.00    +0.035 C 
ATOM     26  C   UNL     1      -0.948   3.248   3.679  0.00  0.00    +0.029 C 
ATOM     27  C   UNL     1      -1.664   3.742   4.938  0.00  0.00    -0.008 C 
ATOM     28  C   UNL     1      -0.924   3.235   6.178  0.00  0.00    +0.007 C 
ATOM     29  C   UNL     1      -0.903   1.705   6.169  0.00  0.00    -0.008 C 
ATOM     30  C   UNL     1      -0.187   1.212   4.911  0.00  0.00    +0.029 C 
ATOM     31  C   UNL     1      -2.339   1.175   6.180  0.00  0.00    +0.007 C 
ATOM     32  C   UNL     1      -3.079   1.682   4.941  0.00  0.00    -0.008 C 
ATOM     33  C   UNL     1      -3.100   3.212   4.949  0.00  0.00    +0.007 C 
ATOM     34  C   UNL     1      -2.363   1.189   3.682  0.00  0.00    +0.029 C 
ENDBRANCH  23  25
ENDBRANCH  20  21
ENDBRANCH   1  20
TORSDOF 9
