REMARK  Name = ZINC39859835
REMARK  7 active torsions:
REMARK  status: ('A' for Active; 'I' for Inactive)
REMARK    1  A    between atoms: C_1  and  C_2
REMARK    2  A    between atoms: C_2  and  O_3
REMARK    3  A    between atoms: O_3  and  C_4
REMARK    4  A    between atoms: C_7  and  N_10
REMARK    5  A    between atoms: C_14  and  C_15
REMARK    6  A    between atoms: C_18  and  O_22
REMARK    7  A    between atoms: C_19  and  O_21
REMARK                            x       y       z     vdW  Elec       q    Type
REMARK                         _______ _______ _______ _____ _____    ______ ____
ROOT
ATOM      1  N   UNL     1      -2.285  -5.961   1.257  0.00  0.00    -0.197 N 
ATOM      2  C   UNL     1      -3.407  -6.490   0.799  0.00  0.00    +0.265 C 
ATOM      3  O   UNL     1      -4.381  -5.805   0.547  0.00  0.00    -0.269 OA
ATOM      4  C   UNL     1      -3.419  -7.954   0.607  0.00  0.00    +0.080 C 
ATOM      5  C   UNL     1      -4.414  -8.759   0.158  0.00  0.00    +0.028 C 
ATOM      6  S   UNL     1      -1.762  -8.373   1.130  0.00  0.00    -0.025 S 
ATOM      7  C   UNL     1      -1.206  -6.724   1.528  0.00  0.00    +0.290 C 
ATOM      8  O   UNL     1      -0.119  -6.373   1.946  0.00  0.00    -0.262 OA
ENDROOT
BRANCH   1  12
ATOM      9  C   UNL     1      -2.072  -1.838   1.857  0.00  0.00    +0.121 A 
ATOM     10  C   UNL     1      -1.278  -2.440   0.892  0.00  0.00    +0.047 A 
ATOM     11  C   UNL     1      -1.348  -3.805   0.693  0.00  0.00    +0.027 A 
ATOM     12  C   UNL     1      -2.213  -4.574   1.459  0.00  0.00    +0.045 A 
ATOM     13  C   UNL     1      -3.008  -3.971   2.424  0.00  0.00    +0.027 A 
ATOM     14  C   UNL     1      -2.933  -2.607   2.626  0.00  0.00    +0.047 A 
BRANCH   9  15
ATOM     15  O   UNL     1      -2.003  -0.494   2.052  0.00  0.00    -0.492 OA
BRANCH  15  17
ATOM     16  C   UNL     1      -1.156   1.721   1.588  0.00  0.00    +0.048 C 
ATOM     17  C   UNL     1      -1.095   0.236   1.225  0.00  0.00    +0.225 C 
ENDBRANCH  15  17
ENDBRANCH   9  15
ENDBRANCH   1  12
BRANCH   5  18
ATOM     18  C   UNL     1      -4.269 -10.219   0.234  0.00  0.00    -0.020 A 
ATOM     19  C   UNL     1      -3.190 -10.782   0.927  0.00  0.00    +0.012 A 
ATOM     20  C   UNL     1      -3.056 -12.151   0.997  0.00  0.00    +0.050 A 
ATOM     21  C   UNL     1      -3.988 -12.976   0.381  0.00  0.00    +0.158 A 
ATOM     22  C   UNL     1      -5.065 -12.423  -0.311  0.00  0.00    +0.159 A 
ATOM     23  C   UNL     1      -5.211 -11.052  -0.382  0.00  0.00    +0.057 A 
BRANCH  22  24
ATOM     24  O   UNL     1      -5.975 -13.235  -0.912  0.00  0.00    -0.503 OA
ATOM     25  H   UNL     1      -6.720 -13.479  -0.345  0.00  0.00    +0.292 HD
ENDBRANCH  22  24
BRANCH  21  26
ATOM     26  O   UNL     1      -3.850 -14.325   0.453  0.00  0.00    -0.503 OA
ATOM     27  H   UNL     1      -4.291 -14.726   1.215  0.00  0.00    +0.292 HD
ENDBRANCH  21  26
ENDBRANCH   5  18
TORSDOF 6
