REMARK  Name = ZINC59333979
REMARK  9 active torsions:
REMARK  status: ('A' for Active; 'I' for Inactive)
REMARK    1  A    between atoms: C_1  and  C_2
REMARK    2  A    between atoms: C_2  and  C_4
REMARK    3  A    between atoms: C_2  and  N_11
REMARK    4  A    between atoms: N_11  and  C_12
REMARK    5  A    between atoms: N_11  and  C_31
REMARK    6  A    between atoms: C_12  and  C_13
REMARK    7  A    between atoms: N_15  and  C_16
REMARK    8  A    between atoms: C_20  and  S_22
REMARK    9  A    between atoms: S_22  and  N_25
REMARK                            x       y       z     vdW  Elec       q    Type
REMARK                         _______ _______ _______ _____ _____    ______ ____
ROOT
ATOM      1  C   UNL     1       2.982  -0.154   2.468  0.00  0.00    +0.201 C 
ATOM      2  O   UNL     1       2.557  -0.983   3.245  0.00  0.00    -0.278 OA
ATOM      3  N   UNL     1       4.152   0.466   2.717  0.00  0.00    -0.287 N 
ATOM      4  H   UNL     1       4.462   1.172   2.127  0.00  0.00    +0.155 HD
ENDROOT
BRANCH   3   5
ATOM      5  C   UNL     1       4.921   0.092   3.825  0.00  0.00    +0.035 A 
ATOM      6  C   UNL     1       6.307   0.159   3.765  0.00  0.00    +0.023 A 
ATOM      7  C   UNL     1       7.062  -0.211   4.860  0.00  0.00    +0.004 A 
ATOM      8  C   UNL     1       6.440  -0.648   6.016  0.00  0.00    +0.029 A 
ATOM      9  C   UNL     1       5.060  -0.716   6.078  0.00  0.00    +0.114 A 
ATOM     10  C   UNL     1       4.299  -0.342   4.988  0.00  0.00    +0.052 A 
BRANCH   9  11
ATOM     11  S   UNL     1       4.273  -1.274   7.552  0.00  0.00    +0.100 S 
ATOM     12  O   UNL     1       2.995  -1.764   7.169  0.00  0.00    -0.146 OA
ATOM     13  O   UNL     1       5.222  -2.077   8.240  0.00  0.00    -0.146 OA
BRANCH  11  14
ATOM     14  N   UNL     1       4.005   0.058   8.498  0.00  0.00    -0.118 NA
ATOM     15  C   UNL     1       3.432  -0.072   9.650  0.00  0.00    +0.117 C 
ATOM     16  C   UNL     1       3.126   1.062  10.604  0.00  0.00    +0.074 C 
ATOM     17  C   UNL     1       2.096   0.466  11.590  0.00  0.00    +0.026 C 
ATOM     18  C   UNL     1       2.413  -1.044  11.514  0.00  0.00    +0.103 C 
ATOM     19  N   UNL     1       3.006  -1.255  10.188  0.00  0.00    -0.331 N 
ATOM     20  H   UNL     1       3.087  -2.118   9.753  0.00  0.00    +0.147 HD
ENDBRANCH  11  14
ENDBRANCH   9  11
ENDBRANCH   3   5
BRANCH   1  21
ATOM     21  C   UNL     1       2.201   0.181   1.224  0.00  0.00    +0.020 C 
BRANCH  21  22
ATOM     22  N   UNL     1       1.021  -0.690   1.136  0.00  0.00    +0.392 N 
ATOM     23  H   UNL     1       0.484  -0.447   0.317  0.00  0.00    -0.080 HD
BRANCH  22  24
ATOM     24  C   UNL     1       0.191  -0.512   2.335  0.00  0.00    -0.067 C 
ATOM     25  C   UNL     1      -1.266  -0.095   2.130  0.00  0.00    -0.017 C 
ATOM     26  C   UNL     1      -0.254   0.911   2.682  0.00  0.00    -0.017 C 
ENDBRANCH  22  24
BRANCH  22  28
ATOM     27  C   UNL     1       2.416  -2.250  -0.135  0.00  0.00    -0.008 C 
ATOM     28  C   UNL     1       1.452  -2.091   1.043  0.00  0.00    -0.038 C 
BRANCH  28  29
ATOM     29  C   UNL     1       0.249  -2.973   0.831  0.00  0.00    -0.043 A 
ATOM     30  C   UNL     1      -0.892  -2.458   0.247  0.00  0.00    +0.003 A 
ATOM     31  C   UNL     1      -1.996  -3.267   0.052  0.00  0.00    +0.000 A 
ATOM     32  C   UNL     1      -1.958  -4.593   0.441  0.00  0.00    +0.001 A 
ATOM     33  C   UNL     1      -0.817  -5.110   1.025  0.00  0.00    +0.020 A 
ATOM     34  C   UNL     1       0.290  -4.302   1.215  0.00  0.00    +0.043 A 
ATOM     35 CL   UNL     1       1.726  -4.952   1.942  0.00  0.00    -0.083 Cl
ENDBRANCH  28  29
ENDBRANCH  22  28
ENDBRANCH  21  22
ENDBRANCH   1  21
TORSDOF 8
