REMARK  Name = ZINC25762783
REMARK  12 active torsions:
REMARK  status: ('A' for Active; 'I' for Inactive)
REMARK    1  A    between atoms: C_1  and  C_2
REMARK    2  A    between atoms: C_4  and  O_37
REMARK    3  A    between atoms: C_10  and  C_12
REMARK    4  A    between atoms: C_12  and  C_14
REMARK    5  A    between atoms: C_12  and  N_21
REMARK    6  A    between atoms: C_14  and  C_15
REMARK    7  A    between atoms: C_22  and  C_24
REMARK    8  A    between atoms: C_24  and  C_26
REMARK    9  A    between atoms: C_24  and  N_27
REMARK   10  A    between atoms: C_28  and  C_30
REMARK   11  A    between atoms: C_30  and  C_32
REMARK   12  A    between atoms: C_30  and  N_33
REMARK                            x       y       z     vdW  Elec       q    Type
REMARK                         _______ _______ _______ _____ _____    ______ ____
ROOT
ATOM      1  C   UNL     1       0.293  -3.057   7.162  0.00  0.00    +0.163 C 
ENDROOT
BRANCH   1  11
ATOM      2  C   UNL     1       0.633   1.411  -0.041  0.00  0.00    +0.045 C 
ATOM      3  C   UNL     1       0.149  -0.015  -0.005  0.00  0.00    -0.033 A 
ATOM      4  C   UNL     1      -0.288  -0.642  -1.155  0.00  0.00    +0.091 A 
ATOM      5  C   UNL     1      -0.730  -1.956  -1.102  0.00  0.00    +0.285 A 
ATOM      6  O   UNL     1      -0.746  -2.640   0.047  0.00  0.00    -0.425 OA
ATOM      7  C   UNL     1      -0.330  -2.076   1.200  0.00  0.00    +0.141 A 
ATOM      8  C   UNL     1      -0.350  -2.795   2.382  0.00  0.00    +0.070 A 
ATOM      9  C   UNL     1       0.085  -2.195   3.565  0.00  0.00    +0.037 A 
ATOM     10  N   UNL     1       0.065  -2.900   4.729  0.00  0.00    -0.284 N 
ATOM     11  C   UNL     1       0.162  -2.270   5.883  0.00  0.00    +0.238 C 
ATOM     12  O   UNL     1       0.146  -1.052   5.916  0.00  0.00    -0.273 OA
ATOM     13  C   UNL     1       0.542  -0.865   3.560  0.00  0.00    +0.024 A 
ATOM     14  C   UNL     1       0.566  -0.150   2.405  0.00  0.00    +0.013 A 
ATOM     15  C   UNL     1       0.137  -0.743   1.204  0.00  0.00    +0.021 A 
ATOM     16  H   UNL     1      -0.019  -3.866   4.709  0.00  0.00    +0.155 HD
BRANCH   5  17
ATOM     17  O   UNL     1      -1.153  -2.555  -2.232  0.00  0.00    -0.480 OA
ATOM     18  H   UNL     1      -1.444  -3.469  -2.107  0.00  0.00    +0.295 HD
ENDBRANCH   5  17
ENDBRANCH   1  11
BRANCH   1  19
ATOM     19  N   UNL     1       0.383  -2.134   8.296  0.00  0.00    -0.302 N 
ATOM     20  C   UNL     1       0.990  -2.522   9.435  0.00  0.00    +0.234 C 
ATOM     21  O   UNL     1       1.462  -3.636   9.521  0.00  0.00    -0.274 OA
ATOM     22  H   UNL     1       0.006  -1.242   8.227  0.00  0.00    +0.150 HD
BRANCH  20  23
ATOM     23  C   UNL     1       1.083  -1.573  10.601  0.00  0.00    +0.156 C 
ATOM     24  C   UNL     1       1.855  -0.321  10.180  0.00  0.00    +0.038 C 
BRANCH  23  25
ATOM     25  N   UNL     1       1.782  -2.228  11.710  0.00  0.00    -0.306 N 
ATOM     26  C   UNL     1       1.564  -1.824  12.977  0.00  0.00    +0.199 C 
ATOM     27  O   UNL     1       0.789  -0.918  13.200  0.00  0.00    -0.278 OA
ATOM     28  H   UNL     1       2.402  -2.952  11.532  0.00  0.00    +0.149 HD
BRANCH  26  29
ATOM     29  C   UNL     1       2.283  -2.497  14.117  0.00  0.00    +0.010 C 
ATOM     30  C   UNL     1       3.794  -2.337  13.933  0.00  0.00    -0.005 C 
BRANCH  29  31
ATOM     31  N   UNL     1       1.876  -1.879  15.386  0.00  0.00    +0.385 N 
ATOM     32  H   UNL     1       0.880  -1.985  15.508  0.00  0.00    -0.089 HD
ATOM     33  H   UNL     1       2.358  -2.330  16.149  0.00  0.00    -0.089 HD
ATOM     34  H   UNL     1       2.111  -0.898  15.373  0.00  0.00    -0.089 HD
ENDBRANCH  29  31
ENDBRANCH  26  29
ENDBRANCH  23  25
ENDBRANCH  20  23
ENDBRANCH   1  19
BRANCH   1  35
ATOM     35  C   UNL     1      -0.931  -3.958   7.334  0.00  0.00    +0.067 C 
BRANCH  35  36
ATOM     36  C   UNL     1      -0.745  -4.833   8.547  0.00  0.00    -0.045 A 
ATOM     37  C   UNL     1      -0.135  -6.067   8.421  0.00  0.00    +0.004 A 
ATOM     38  C   UNL     1       0.036  -6.870   9.533  0.00  0.00    +0.000 A 
ATOM     39  C   UNL     1      -0.402  -6.438  10.771  0.00  0.00    +0.000 A 
ATOM     40  C   UNL     1      -1.011  -5.203  10.897  0.00  0.00    +0.000 A 
ATOM     41  C   UNL     1      -1.178  -4.399   9.786  0.00  0.00    +0.004 A 
ENDBRANCH  35  36
ENDBRANCH   1  35
TORSDOF 9
