REMARK  Name = ZINC54900141
REMARK  8 active torsions:
REMARK  status: ('A' for Active; 'I' for Inactive)
REMARK    1  A    between atoms: C_1  and  C_2
REMARK    2  A    between atoms: C_4  and  C_25
REMARK    3  A    between atoms: C_6  and  N_8
REMARK    4  A    between atoms: C_9  and  C_11
REMARK    5  A    between atoms: N_13  and  C_14
REMARK    6  A    between atoms: C_14  and  C_15
REMARK    7  A    between atoms: C_15  and  C_16
REMARK    8  A    between atoms: C_19  and  N_22
REMARK                            x       y       z     vdW  Elec       q    Type
REMARK                         _______ _______ _______ _____ _____    ______ ____
ROOT
ATOM      1  C   UNL     1       0.278  -2.893   4.840  0.00  0.00    +0.299 C 
ATOM      2  O   UNL     1       0.293  -4.107   4.827  0.00  0.00    -0.265 OA
ATOM      3  N   UNL     1       0.376  -2.231   6.010  0.00  0.00    -0.307 N 
ATOM      4  H   UNL     1       0.363  -1.261   6.020  0.00  0.00    +0.149 HD
ENDROOT
BRANCH   1   6
ATOM      5  N   UNL     1       0.051  -2.797   2.391  0.00  0.00    -0.278 N 
ATOM      6  C   UNL     1       0.149  -2.134   3.560  0.00  0.00    +0.303 C 
ATOM      7  O   UNL     1       0.134  -0.921   3.573  0.00  0.00    -0.265 OA
ATOM      8  H   UNL     1      -0.013  -3.765   2.386  0.00  0.00    +0.155 HD
BRANCH   5  14
ATOM      9  C   UNL     1      -1.513  -2.363  -2.249  0.00  0.00    +0.044 C 
ATOM     10  C   UNL     1      -0.707  -1.857  -1.080  0.00  0.00    -0.048 A 
ATOM     11  C   UNL     1       0.026  -0.690  -1.201  0.00  0.00    +0.006 A 
ATOM     12  C   UNL     1       0.766  -0.221  -0.132  0.00  0.00    -0.048 A 
ATOM     13  C   UNL     1       0.777  -0.917   1.061  0.00  0.00    +0.026 A 
ATOM     14  C   UNL     1       0.042  -2.090   1.186  0.00  0.00    +0.034 A 
ATOM     15  C   UNL     1      -0.705  -2.555   0.111  0.00  0.00    +0.026 A 
ATOM     16  C   UNL     1       1.563   1.051  -0.268  0.00  0.00    +0.044 C 
ENDBRANCH   5  14
ENDBRANCH   1   6
BRANCH   3  17
ATOM     17  C   UNL     1       0.502  -2.975   7.265  0.00  0.00    +0.109 C 
BRANCH  17  18
ATOM     18  C   UNL     1       0.595  -1.992   8.434  0.00  0.00    +0.054 C 
BRANCH  18  19
ATOM     19  C   UNL     1       0.725  -2.758   9.725  0.00  0.00    -0.046 A 
ATOM     20  C   UNL     1      -0.408  -3.131  10.424  0.00  0.00    +0.006 A 
ATOM     21  C   UNL     1      -0.289  -3.833  11.609  0.00  0.00    +0.033 A 
ATOM     22  C   UNL     1       0.962  -4.163  12.094  0.00  0.00    +0.126 A 
ATOM     23  C   UNL     1       2.095  -3.791  11.395  0.00  0.00    +0.033 A 
ATOM     24  C   UNL     1       1.976  -3.092  10.208  0.00  0.00    +0.006 A 
BRANCH  22  25
ATOM     25  N   UNL     1       1.089  -4.915  13.363  0.00  0.00    +0.056 N 
ATOM     26  O   UNL     1       0.099  -5.240  13.975  0.00  0.00    -0.126 OA
ATOM     27  O   UNL     1       2.184  -5.203  13.788  0.00  0.00    -0.126 OA
ENDBRANCH  22  25
ENDBRANCH  18  19
ENDBRANCH  17  18
ENDBRANCH   3  17
TORSDOF 6
