REMARK  Name = ZINC58278658
REMARK  8 active torsions:
REMARK  status: ('A' for Active; 'I' for Inactive)
REMARK    1  A    between atoms: C_1  and  C_2
REMARK    2  A    between atoms: C_2  and  C_27
REMARK    3  A    between atoms: C_7  and  N_11
REMARK    4  A    between atoms: C_12  and  C_14
REMARK    5  A    between atoms: C_15  and  C_16
REMARK    6  A    between atoms: C_19  and  O_22
REMARK    7  A    between atoms: O_22  and  C_23
REMARK    8  A    between atoms: C_23  and  C_24
REMARK                            x       y       z     vdW  Elec       q    Type
REMARK                         _______ _______ _______ _____ _____    ______ ____
ROOT
ATOM      1  N   UNL     1       5.578  -1.046   1.540  0.00  0.00    -0.282 N 
ATOM      2  C   UNL     1       6.742  -1.271   0.899  0.00  0.00    +0.241 C 
ATOM      3  O   UNL     1       6.778  -1.264  -0.318  0.00  0.00    -0.270 OA
ATOM      4  H   UNL     1       5.562  -0.986   2.508  0.00  0.00    +0.155 HD
ENDROOT
BRANCH   1  11
ATOM      5  C   UNL     1       1.864  -1.357  -3.597  0.00  0.00    +0.104 C 
ATOM      6  C   UNL     1       1.706  -0.077  -2.774  0.00  0.00    +0.248 C 
ATOM      7  O   UNL     1       1.043  -0.355  -1.527  0.00  0.00    -0.448 OA
ATOM      8  C   UNL     1       2.042  -0.617  -0.633  0.00  0.00    +0.167 A 
ATOM      9  C   UNL     1       2.026  -1.238   0.605  0.00  0.00    +0.051 A 
ATOM     10  C   UNL     1       3.196  -1.381   1.325  0.00  0.00    +0.027 A 
ATOM     11  C   UNL     1       4.393  -0.901   0.810  0.00  0.00    +0.037 A 
ATOM     12  C   UNL     1       4.414  -0.278  -0.431  0.00  0.00    +0.073 A 
ATOM     13  C   UNL     1       3.241  -0.135  -1.153  0.00  0.00    +0.169 A 
ATOM     14  O   UNL     1       2.993   0.428  -2.372  0.00  0.00    -0.448 OA
ATOM     15  C   UNL     1       0.939   0.981  -3.570  0.00  0.00    +0.104 C 
ENDBRANCH   1  11
BRANCH   2  16
ATOM     16  C   UNL     1       7.962  -1.523   1.664  0.00  0.00    +0.068 C 
ATOM     17  C   UNL     1       9.128  -1.748   1.022  0.00  0.00    +0.013 C 
BRANCH  17  18
ATOM     18  C   UNL     1      10.354  -2.001   1.792  0.00  0.00    -0.025 A 
ATOM     19  C   UNL     1      10.315  -2.015   3.191  0.00  0.00    +0.011 A 
ATOM     20  C   UNL     1      11.466  -2.253   3.907  0.00  0.00    +0.046 A 
ATOM     21  C   UNL     1      12.667  -2.479   3.243  0.00  0.00    +0.121 A 
ATOM     22  C   UNL     1      12.711  -2.465   1.853  0.00  0.00    +0.046 A 
ATOM     23  C   UNL     1      11.565  -2.234   1.128  0.00  0.00    +0.011 A 
BRANCH  21  24
ATOM     24  O   UNL     1      13.800  -2.713   3.953  0.00  0.00    -0.483 OA
BRANCH  24  25
ATOM     25  C   UNL     1      14.998  -2.937   3.208  0.00  0.00    +0.324 C 
BRANCH  25  26
ATOM     26  C   UNL     1      16.143  -3.177   4.159  0.00  0.00    +0.248 C 
ATOM     27  O   UNL     1      15.951  -3.158   5.356  0.00  0.00    -0.272 OA
ATOM     28  N   UNL     1      17.380  -3.412   3.678  0.00  0.00    -0.327 N 
ATOM     29  H   UNL     1      17.533  -3.427   2.721  0.00  0.00    +0.145 HD
ATOM     30  H   UNL     1      18.116  -3.567   4.290  0.00  0.00    +0.145 HD
ENDBRANCH  25  26
ENDBRANCH  24  25
ENDBRANCH  21  24
ENDBRANCH  17  18
ENDBRANCH   2  16
TORSDOF 6
