REMARK  Name = ZINC51006653
REMARK  8 active torsions:
REMARK  status: ('A' for Active; 'I' for Inactive)
REMARK    1  A    between atoms: C_1  and  C_2
REMARK    2  A    between atoms: C_2  and  C_3
REMARK    3  A    between atoms: C_2  and  N_4
REMARK    4  A    between atoms: N_4  and  C_5
REMARK    5  A    between atoms: C_7  and  C_8
REMARK    6  A    between atoms: C_7  and  C_10
REMARK    7  A    between atoms: C_10  and  C_12
REMARK    8  A    between atoms: N_20  and  C_21
REMARK                            x       y       z     vdW  Elec       q    Type
REMARK                         _______ _______ _______ _____ _____    ______ ____
ROOT
ATOM      1  C   UNL     1       4.156  -1.158  -2.375  0.00  0.00    +0.226 C 
ATOM      2  O   UNL     1       4.806  -0.781  -1.416  0.00  0.00    -0.284 OA
ENDROOT
BRANCH   1   3
ATOM      3  C   UNL     1       4.836  -1.735  -3.544  0.00  0.00    +0.110 A 
ATOM      4  C   UNL     1       5.370  -1.023  -4.575  0.00  0.00    +0.077 A 
ATOM      5  C   UNL     1       5.940  -1.991  -5.508  0.00  0.00    +0.019 A 
ATOM      6  C   UNL     1       6.612  -1.877  -6.729  0.00  0.00    +0.011 A 
ATOM      7  C   UNL     1       7.034  -3.001  -7.379  0.00  0.00    +0.001 A 
ATOM      8  C   UNL     1       6.802  -4.259  -6.838  0.00  0.00    +0.002 A 
ATOM      9  C   UNL     1       6.143  -4.396  -5.636  0.00  0.00    +0.026 A 
ATOM     10  C   UNL     1       5.702  -3.265  -4.954  0.00  0.00    +0.051 A 
ATOM     11  N   UNL     1       5.038  -3.083  -3.765  0.00  0.00    -0.339 N 
ATOM     12  C   UNL     1       4.606  -4.158  -2.868  0.00  0.00    +0.149 C 
ATOM     13 CL   UNL     1       5.371   0.704  -4.747  0.00  0.00    -0.081 Cl
ENDBRANCH   1   3
BRANCH   1  16
ATOM     14  C   UNL     1       2.044  -0.593  -1.214  0.00  0.00    +0.258 C 
ATOM     15  O   UNL     1       2.755  -0.277  -0.115  0.00  0.00    -0.269 OA
ATOM     16  C   UNL     1       2.697  -1.036  -2.363  0.00  0.00    +0.162 C 
BRANCH  14  17
ATOM     17  N   UNL     1       0.687  -0.480  -1.203  0.00  0.00    -0.308 N 
ATOM     18  H   UNL     1       0.175  -0.707  -1.994  0.00  0.00    +0.149 HD
BRANCH  17  20
ATOM     19  C   UNL     1      -0.018   1.516   0.023  0.00  0.00    +0.027 C 
ATOM     20  C   UNL     1       0.001  -0.014   0.005  0.00  0.00    +0.067 C 
ATOM     21  C   UNL     1      -1.435  -0.542   0.011  0.00  0.00    +0.027 C 
ENDBRANCH  17  20
ENDBRANCH  14  17
BRANCH  16  22
ATOM     22  C   UNL     1       1.941  -1.372  -3.532  0.00  0.00    +0.108 C 
ATOM     23  N   UNL     1       1.341  -1.639  -4.459  0.00  0.00    -0.191 NA
ENDBRANCH  16  22
ENDBRANCH   1  16
TORSDOF 5
