REMARK  Name = ZINC42756986
REMARK  7 active torsions:
REMARK  status: ('A' for Active; 'I' for Inactive)
REMARK    1  A    between atoms: C_4  and  O_7
REMARK    2  A    between atoms: O_7  and  C_8
REMARK    3  A    between atoms: C_8  and  C_9
REMARK    4  A    between atoms: C_9  and  C_11
REMARK    5  A    between atoms: C_9  and  O_26
REMARK    6  A    between atoms: C_11  and  N_12
REMARK    7  A    between atoms: C_21  and  C_23
REMARK                            x       y       z     vdW  Elec       q    Type
REMARK                         _______ _______ _______ _____ _____    ______ ____
ROOT
ATOM      1  N   UNL     1       6.261  -4.679   0.160  0.00  0.00    -0.226 N 
ATOM      2  C   UNL     1       6.799  -4.822   1.389  0.00  0.00    +0.275 A 
ATOM      3  O   UNL     1       6.168  -4.517   2.384  0.00  0.00    -0.266 OA
ATOM      4  C   UNL     1       8.164  -5.354   1.498  0.00  0.00    +0.050 A 
ATOM      5  C   UNL     1       8.808  -5.539   2.717  0.00  0.00    +0.014 A 
ATOM      6  C   UNL     1      10.091  -6.044   2.733  0.00  0.00    +0.001 A 
ATOM      7  C   UNL     1      10.742  -6.367   1.550  0.00  0.00    +0.001 A 
ATOM      8  C   UNL     1      10.121  -6.191   0.332  0.00  0.00    +0.011 A 
ATOM      9  C   UNL     1       8.826  -5.684   0.292  0.00  0.00    +0.020 A 
ATOM     10  C   UNL     1       8.093  -5.466  -0.965  0.00  0.00    +0.153 A 
ATOM     11  N   UNL     1       6.874  -4.987  -0.920  0.00  0.00    -0.163 NA
ENDROOT
BRANCH  10  12
ATOM     12  C   UNL     1       8.722  -5.787  -2.262  0.00  0.00    +0.262 C 
ATOM     13  O   UNL     1       9.852  -6.235  -2.295  0.00  0.00    -0.269 OA
ATOM     14  N   UNL     1       8.043  -5.584  -3.408  0.00  0.00    -0.324 N 
ATOM     15  H   UNL     1       7.142  -5.227  -3.382  0.00  0.00    +0.145 HD
ATOM     16  H   UNL     1       8.457  -5.796  -4.260  0.00  0.00    +0.145 HD
ENDBRANCH  10  12
BRANCH   1  17
ATOM     17  C   UNL     1       4.899  -4.148   0.057  0.00  0.00    +0.182 C 
BRANCH  17  18
ATOM     18  C   UNL     1       4.954  -2.624  -0.061  0.00  0.00    +0.173 C 
BRANCH  18  19
ATOM     19  O   UNL     1       5.594  -2.264  -1.287  0.00  0.00    -0.387 OA
ATOM     20  H   UNL     1       5.145  -2.595  -2.077  0.00  0.00    +0.210 HD
ENDBRANCH  18  19
BRANCH  18  21
ATOM     21  C   UNL     1       3.531  -2.060  -0.044  0.00  0.00    +0.262 C 
BRANCH  21  22
ATOM     22  O   UNL     1       3.586  -0.632  -0.037  0.00  0.00    -0.489 OA
BRANCH  22  26
ATOM     23  C   UNL     1      -0.017   1.378   0.010  0.00  0.00    +0.000 A 
ATOM     24  C   UNL     1       1.170   2.088   0.002  0.00  0.00    +0.004 A 
ATOM     25  C   UNL     1       2.377   1.417  -0.013  0.00  0.00    +0.045 A 
ATOM     26  C   UNL     1       2.399   0.030  -0.021  0.00  0.00    +0.121 A 
ATOM     27  C   UNL     1       1.207  -0.680  -0.013  0.00  0.00    +0.045 A 
ATOM     28  C   UNL     1       0.002  -0.004   0.002  0.00  0.00    +0.004 A 
ENDBRANCH  22  26
ENDBRANCH  21  22
ENDBRANCH  18  21
ENDBRANCH  17  18
ENDBRANCH   1  17
TORSDOF 7
