REMARK  Name = ZINC02217954
REMARK  6 active torsions:
REMARK  status: ('A' for Active; 'I' for Inactive)
REMARK    1  A    between atoms: C_1  and  C_2
REMARK    2  A    between atoms: C_5  and  C_28
REMARK    3  A    between atoms: N_7  and  C_9
REMARK    4  A    between atoms: N_16  and  C_17
REMARK    5  A    between atoms: C_17  and  C_19
REMARK    6  A    between atoms: C_22  and  N_25
REMARK                            x       y       z     vdW  Elec       q    Type
REMARK                         _______ _______ _______ _____ _____    ______ ____
ROOT
ATOM      1  C   UNL     1      -6.198   6.312   0.452  0.00  0.00    +0.071 C 
ATOM      2  C   UNL     1      -4.882   5.580   0.385  0.00  0.00    +0.106 A 
ATOM      3  C   UNL     1      -3.671   6.311   0.326  0.00  0.00    +0.212 A 
ATOM      4  O   UNL     1      -3.685   7.534   0.328  0.00  0.00    -0.285 OA
ATOM      5  C   UNL     1      -2.445   5.608   0.264  0.00  0.00    +0.072 A 
ATOM      6  C   UNL     1      -2.469   4.219   0.263  0.00  0.00    +0.159 A 
ATOM      7  N   UNL     1      -3.662   3.567   0.316  0.00  0.00    -0.216 N 
ATOM      8  N   UNL     1      -4.865   4.277   0.383  0.00  0.00    -0.166 NA
ATOM      9  N   UNL     1      -1.290   3.504   0.202  0.00  0.00    -0.156 NA
ENDROOT
BRANCH   7  10
ATOM     10  C   UNL     1      -3.686   2.168   0.309  0.00  0.00    +0.068 A 
ATOM     11  C   UNL     1      -2.848   1.462  -0.545  0.00  0.00    +0.029 A 
ATOM     12  C   UNL     1      -2.870   0.081  -0.546  0.00  0.00    +0.022 A 
ATOM     13  C   UNL     1      -3.732  -0.599   0.295  0.00  0.00    +0.041 A 
ATOM     14  C   UNL     1      -4.572   0.102   1.144  0.00  0.00    +0.022 A 
ATOM     15  C   UNL     1      -4.551   1.482   1.153  0.00  0.00    +0.029 A 
ATOM     16 CL   UNL     1      -3.762  -2.335   0.287  0.00  0.00    -0.084 Cl
ENDBRANCH   7  10
BRANCH   5  17
ATOM     17  C   UNL     1      -1.158   6.339   0.201  0.00  0.00    -0.011 A 
ATOM     18  C   UNL     1      -0.247   6.245   1.253  0.00  0.00    +0.009 A 
ATOM     19  C   UNL     1       0.952   6.924   1.187  0.00  0.00    +0.001 A 
ATOM     20  C   UNL     1       1.247   7.707   0.085  0.00  0.00    +0.000 A 
ATOM     21  C   UNL     1       0.345   7.810  -0.959  0.00  0.00    +0.001 A 
ATOM     22  C   UNL     1      -0.855   7.130  -0.907  0.00  0.00    +0.009 A 
ENDBRANCH   5  17
BRANCH   9  23
ATOM     23  C   UNL     1      -1.005   2.594   1.154  0.00  0.00    +0.269 C 
ATOM     24  O   UNL     1      -1.827   2.331   2.010  0.00  0.00    -0.268 OA
BRANCH  23  25
ATOM     25  C   UNL     1       0.307   1.914   1.156  0.00  0.00    +0.039 A 
ATOM     26  C   UNL     1       1.207   2.123   0.110  0.00  0.00    +0.015 A 
ATOM     27  C   UNL     1       2.428   1.481   0.115  0.00  0.00    +0.033 A 
ATOM     28  C   UNL     1       2.762   0.631   1.155  0.00  0.00    +0.126 A 
ATOM     29  C   UNL     1       1.875   0.420   2.196  0.00  0.00    +0.033 A 
ATOM     30  C   UNL     1       0.650   1.056   2.203  0.00  0.00    +0.015 A 
BRANCH  28  31
ATOM     31  N   UNL     1       4.073  -0.054   1.154  0.00  0.00    +0.056 N 
ATOM     32  O   UNL     1       4.370  -0.802   2.068  0.00  0.00    -0.126 OA
ATOM     33  O   UNL     1       4.856   0.130   0.239  0.00  0.00    -0.126 OA
ENDBRANCH  28  31
ENDBRANCH  23  25
ENDBRANCH   9  23
TORSDOF 5
