REMARK  Name = ZINC44931975
REMARK  6 active torsions:
REMARK  status: ('A' for Active; 'I' for Inactive)
REMARK    1  A    between atoms: C_1  and  C_2
REMARK    2  A    between atoms: C_3  and  C_21
REMARK    3  A    between atoms: N_4  and  C_13
REMARK    4  A    between atoms: C_7  and  N_12
REMARK    5  A    between atoms: C_9  and  C_11
REMARK    6  A    between atoms: C_13  and  C_20
REMARK                            x       y       z     vdW  Elec       q    Type
REMARK                         _______ _______ _______ _____ _____    ______ ____
ROOT
ATOM      1  C   UNL     1       0.331   1.268   0.859  0.00  0.00    +0.046 C 
ATOM      2  C   UNL     1       0.310  -0.217   0.600  0.00  0.00    -0.017 A 
ATOM      3  C   UNL     1       0.433  -0.824  -0.591  0.00  0.00    +0.022 A 
ATOM      4  N   UNL     1       0.366  -2.184  -0.429  0.00  0.00    -0.321 N 
ATOM      5  C   UNL     1       0.195  -2.490   0.893  0.00  0.00    +0.147 A 
ATOM      6  C   UNL     1       0.159  -1.273   1.599  0.00  0.00    +0.062 A 
ATOM      7  C   UNL     1      -0.004  -1.308   2.992  0.00  0.00    +0.129 A 
ATOM      8  N   UNL     1      -0.114  -2.494   3.585  0.00  0.00    -0.217 NA
ATOM      9  C   UNL     1      -0.071  -3.612   2.884  0.00  0.00    +0.130 A 
ATOM     10  N   UNL     1       0.072  -3.626   1.576  0.00  0.00    -0.214 NA
ATOM     11  C   UNL     1      -0.200  -4.926   3.611  0.00  0.00    +0.088 C 
ATOM     12  C   UNL     1       0.618  -0.117  -1.909  0.00  0.00    +0.064 C 
ENDROOT
BRANCH   4  13
ATOM     13  C   UNL     1       0.462  -3.165  -1.513  0.00  0.00    +0.065 C 
ATOM     14  C   UNL     1       0.563  -4.561  -0.901  0.00  0.00    +0.052 C 
ATOM     15  C   UNL     1      -0.855  -5.172  -0.716  0.00  0.00    +0.168 C 
ATOM     16  S   UNL     1      -1.648  -4.588  -2.279  0.00  0.00    -0.029 S 
ATOM     17  O   UNL     1      -3.023  -4.329  -2.036  0.00  0.00    -0.174 OA
ATOM     18  O   UNL     1      -1.272  -5.450  -3.344  0.00  0.00    -0.174 OA
ATOM     19  C   UNL     1      -0.751  -2.989  -2.447  0.00  0.00    +0.194 C 
ATOM     20  C   UNL     1       1.739  -2.889  -2.310  0.00  0.00    +0.036 C 
ENDBRANCH   4  13
BRANCH   7  21
ATOM     21  N   UNL     1      -0.049  -0.139   3.731  0.00  0.00    -0.343 N 
ATOM     22  H   UNL     1       0.032   0.719   3.286  0.00  0.00    +0.144 HD
ATOM     23  H   UNL     1      -0.162  -0.178   4.693  0.00  0.00    +0.144 HD
ENDBRANCH   7  21
TORSDOF 2
