REMARK  Name = ZINC20220642
REMARK  10 active torsions:
REMARK  status: ('A' for Active; 'I' for Inactive)
REMARK    1  A    between atoms: C_1  and  O_2
REMARK    2  A    between atoms: O_2  and  C_3
REMARK    3  A    between atoms: C_3  and  C_5
REMARK    4  A    between atoms: C_9  and  N_10
REMARK    5  A    between atoms: N_10  and  C_11
REMARK    6  A    between atoms: C_11  and  N_13
REMARK    7  A    between atoms: N_13  and  N_14
REMARK    8  A    between atoms: C_15  and  C_17
REMARK    9  A    between atoms: C_17  and  O_18
REMARK   10  A    between atoms: O_18  and  C_19
REMARK                            x       y       z     vdW  Elec       q    Type
REMARK                         _______ _______ _______ _____ _____    ______ ____
ROOT
ATOM      1  C   UNL     1      -0.021   1.708   0.011  0.00  0.00    +0.151 C 
ATOM      2  S   UNL     1       0.002  -0.004   0.002  0.00  0.00    -0.017 S 
ENDROOT
BRANCH   1   3
ATOM      3  N   UNL     1       1.137   2.397   0.004  0.00  0.00    -0.290 N 
ATOM      4  H   UNL     1       1.122   3.497   0.010  0.00  0.00    +0.154 HD
BRANCH   3   9
ATOM      5  C   UNL     1       3.629   2.249  -0.026  0.00  0.00    +0.091 A 
ATOM      6  C   UNL     1       4.745   1.312  -0.032  0.00  0.00    -0.021 A 
ATOM      7  C   UNL     1       4.395   0.009  -0.041  0.00  0.00    -0.004 A 
ATOM      8  S   UNL     1       2.623   0.012  -0.024  0.00  0.00    -0.077 S 
ATOM      9  C   UNL     1       2.346   1.721  -0.011  0.00  0.00    +0.086 A 
ATOM     10  C   UNL     1       5.301  -1.182  -0.073  0.00  0.00    +0.043 C 
ATOM     11  C   UNL     1       6.390  -1.020   0.996  0.00  0.00    +0.005 C 
ATOM     12  C   UNL     1       7.573  -0.287   0.372  0.00  0.00    +0.001 C 
ATOM     13  C   UNL     1       7.081   0.709  -0.677  0.00  0.00    +0.005 C 
ATOM     14  C   UNL     1       6.198   1.771  -0.029  0.00  0.00    +0.037 C 
BRANCH   5  15
ATOM     15  C   UNL     1       3.853   3.695  -0.032  0.00  0.00    +0.342 C 
ATOM     16  O   UNL     1       3.958   4.298   1.020  0.00  0.00    -0.245 OA
BRANCH  15  18
ATOM     17  C   UNL     1       4.167   5.792  -1.132  0.00  0.00    +0.280 C 
ATOM     18  O   UNL     1       3.943   4.359  -1.202  0.00  0.00    -0.464 OA
ENDBRANCH  15  18
ENDBRANCH   5  15
ENDBRANCH   3   9
ENDBRANCH   1   3
BRANCH   1  19
ATOM     19  N   UNL     1      -1.197   2.366   0.021  0.00  0.00    -0.245 N 
ATOM     20  H   UNL     1      -2.143   1.803   0.022  0.00  0.00    +0.172 HD
BRANCH  19  21
ATOM     21  N   UNL     1      -1.216   3.767   0.028  0.00  0.00    -0.232 N 
ATOM     22  C   UNL     1      -2.393   4.425   0.037  0.00  0.00    +0.267 C 
ATOM     23  O   UNL     1      -3.435   3.804   0.039  0.00  0.00    -0.271 OA
ATOM     24  H   UNL     1      -0.271   4.329   0.027  0.00  0.00    +0.173 HD
BRANCH  22  25
ATOM     25  C   UNL     1      -2.413   5.931   0.046  0.00  0.00    +0.326 C 
BRANCH  25  26
ATOM     26  O   UNL     1      -3.767   6.389   0.055  0.00  0.00    -0.480 OA
BRANCH  26  27
ATOM     27  C   UNL     1      -3.963   7.735   0.063  0.00  0.00    +0.156 A 
ATOM     28  C   UNL     1      -2.876   8.595   0.068  0.00  0.00    +0.048 A 
ATOM     29  C   UNL     1      -3.078   9.962   0.072  0.00  0.00    +0.004 A 
ATOM     30  C   UNL     1      -4.362  10.473   0.081  0.00  0.00    +0.003 A 
ATOM     31  C   UNL     1      -5.449   9.619   0.081  0.00  0.00    +0.042 A 
ATOM     32  C   UNL     1      -5.253   8.249   0.072  0.00  0.00    +0.165 A 
ATOM     33  F   UNL     1      -6.315   7.414   0.072  0.00  0.00    -0.202 F 
ENDBRANCH  26  27
ENDBRANCH  25  26
ENDBRANCH  22  25
ENDBRANCH  19  21
ENDBRANCH   1  19
TORSDOF 9
