REMARK  Name = ZINC52811520
REMARK  3 active torsions:
REMARK  status: ('A' for Active; 'I' for Inactive)
REMARK    1  A    between atoms: C_1  and  C_2
REMARK    2  A    between atoms: C_2  and  C_4
REMARK    3  A    between atoms: C_2  and  N_9
REMARK                            x       y       z     vdW  Elec       q    Type
REMARK                         _______ _______ _______ _____ _____    ______ ____
ROOT
ATOM      1  N   UNL     1       0.711  -0.489   1.189  0.00  0.00    -0.321 N 
ATOM      2  C   UNL     1       2.084  -0.602   1.173  0.00  0.00    +0.132 A 
ATOM      3  C   UNL     1       2.788  -1.075   2.308  0.00  0.00    +0.040 A 
ATOM      4  C   UNL     1       2.134  -1.447   3.488  0.00  0.00    +0.013 A 
ATOM      5  C   UNL     1       2.864  -1.895   4.549  0.00  0.00    +0.001 A 
ATOM      6  C   UNL     1       4.251  -1.988   4.473  0.00  0.00    +0.002 A 
ATOM      7  C   UNL     1       4.919  -1.633   3.339  0.00  0.00    +0.028 A 
ATOM      8  C   UNL     1       4.199  -1.169   2.229  0.00  0.00    +0.077 A 
ATOM      9  N   UNL     1       4.807  -0.808   1.089  0.00  0.00    -0.217 NA
ATOM     10  C   UNL     1       4.103  -0.376   0.068  0.00  0.00    +0.225 A 
ATOM     11  N   UNL     1       2.782  -0.277   0.094  0.00  0.00    -0.202 NA
ATOM     12 CL   UNL     1       4.941   0.078  -1.383  0.00  0.00    -0.041 Cl
ATOM     13  H   UNL     1       0.213  -0.731   1.986  0.00  0.00    +0.148 HD
ENDROOT
BRANCH   1  15
ATOM     14  C   UNL     1      -0.019   1.526   0.010  0.00  0.00    +0.033 C 
ATOM     15  C   UNL     1       0.002  -0.004   0.002  0.00  0.00    +0.106 C 
BRANCH  15  16
ATOM     16  C   UNL     1      -1.412  -0.526   0.013  0.00  0.00    +0.010 A 
ATOM     17  C   UNL     1      -2.157  -0.992  -1.019  0.00  0.00    +0.013 A 
ATOM     18  C   UNL     1      -3.447  -1.425  -0.772  0.00  0.00    +0.008 A 
ATOM     19  C   UNL     1      -3.927  -1.370   0.494  0.00  0.00    +0.045 A 
ATOM     20  S   UNL     1      -2.537  -0.697   1.389  0.00  0.00    -0.100 S 
ENDBRANCH  15  16
ENDBRANCH   1  15
TORSDOF 2
