REMARK  Name = ZINC36848335
REMARK  6 active torsions:
REMARK  status: ('A' for Active; 'I' for Inactive)
REMARK    1  A    between atoms: C_1  and  C_2
REMARK    2  A    between atoms: C_2  and  C_22
REMARK    3  A    between atoms: N_5  and  C_9
REMARK    4  A    between atoms: C_9  and  C_10
REMARK    5  A    between atoms: N_12  and  C_13
REMARK    6  A    between atoms: C_25  and  C_28
REMARK                            x       y       z     vdW  Elec       q    Type
REMARK                         _______ _______ _______ _____ _____    ______ ____
ROOT
ATOM      1  C   UNL     1      -5.895   2.025  -0.339  0.00  0.00    +0.047 C 
ATOM      2  C   UNL     1      -5.337   0.686  -0.826  0.00  0.00    +0.135 C 
ATOM      3  C   UNL     1      -5.479  -0.373   0.248  0.00  0.00    +0.251 C 
ATOM      4  O   UNL     1      -6.508  -0.783   0.742  0.00  0.00    -0.272 OA
ATOM      5  N   UNL     1      -4.223  -0.766   0.540  0.00  0.00    -0.215 N 
ATOM      6  C   UNL     1      -3.317  -0.109  -0.193  0.00  0.00    +0.310 C 
ATOM      7  O   UNL     1      -2.119  -0.291  -0.108  0.00  0.00    -0.252 OA
ATOM      8  N   UNL     1      -3.882   0.776  -1.034  0.00  0.00    -0.281 N 
ATOM      9  H   UNL     1      -3.420   1.359  -1.657  0.00  0.00    +0.152 HD
ENDROOT
BRANCH   2  10
ATOM     10  C   UNL     1      -6.029   0.256  -2.094  0.00  0.00    -0.015 A 
ATOM     11  C   UNL     1      -7.167  -0.528  -2.026  0.00  0.00    +0.007 A 
ATOM     12  C   UNL     1      -7.804  -0.925  -3.183  0.00  0.00    +0.019 A 
ATOM     13  C   UNL     1      -7.300  -0.534  -4.425  0.00  0.00    +0.052 A 
ATOM     14  C   UNL     1      -6.151   0.258  -4.486  0.00  0.00    +0.019 A 
ATOM     15  C   UNL     1      -5.526   0.652  -3.321  0.00  0.00    +0.007 A 
BRANCH  13  16
ATOM     16  C   UNL     1      -7.956  -0.943  -5.630  0.00  0.00    +0.099 C 
ATOM     17  N   UNL     1      -8.477  -1.268  -6.585  0.00  0.00    -0.191 NA
ENDBRANCH  13  16
ENDBRANCH   2  10
BRANCH   5  18
ATOM     18  C   UNL     1      -3.891  -1.787   1.538  0.00  0.00    +0.214 C 
BRANCH  18  19
ATOM     19  C   UNL     1      -3.859  -3.142   0.879  0.00  0.00    +0.235 C 
ATOM     20  O   UNL     1      -4.091  -3.245  -0.307  0.00  0.00    -0.274 OA
ATOM     21  N   UNL     1      -3.573  -4.239   1.608  0.00  0.00    -0.282 N 
ATOM     22  H   UNL     1      -3.317  -4.149   2.539  0.00  0.00    +0.155 HD
BRANCH  21  23
ATOM     23  C   UNL     1      -3.646  -5.508   1.020  0.00  0.00    +0.071 A 
ATOM     24  C   UNL     1      -2.522  -6.065   0.424  0.00  0.00    +0.065 A 
ATOM     25  C   UNL     1      -2.597  -7.318  -0.155  0.00  0.00    +0.042 A 
ATOM     26  C   UNL     1      -3.791  -8.018  -0.140  0.00  0.00    +0.044 A 
ATOM     27  C   UNL     1      -4.912  -7.466   0.454  0.00  0.00    +0.042 A 
ATOM     28  C   UNL     1      -4.842  -6.216   1.039  0.00  0.00    +0.065 A 
ATOM     29 CL   UNL     1      -6.248  -5.527   1.789  0.00  0.00    -0.082 Cl
ATOM     30 CL   UNL     1      -3.881  -9.591  -0.868  0.00  0.00    -0.083 Cl
ATOM     31 CL   UNL     1      -1.024  -5.187   0.404  0.00  0.00    -0.082 Cl
ENDBRANCH  21  23
ENDBRANCH  18  19
ENDBRANCH   5  18
TORSDOF 5
