REMARK  Name = ZINC55297302
REMARK  4 active torsions:
REMARK  status: ('A' for Active; 'I' for Inactive)
REMARK    1  A    between atoms: C_1  and  C_2
REMARK    2  A    between atoms: C_4  and  N_18
REMARK    3  A    between atoms: C_7  and  N_8
REMARK    4  A    between atoms: C_9  and  C_11
REMARK                            x       y       z     vdW  Elec       q    Type
REMARK                         _______ _______ _______ _____ _____    ______ ____
ROOT
ATOM      1  C   UNL     1      -1.265   1.183   0.182  0.00  0.00    +0.046 C 
ATOM      2  C   UNL     1      -0.585  -0.158   0.085  0.00  0.00    -0.028 A 
ATOM      3  C   UNL     1      -0.572  -0.840  -1.116  0.00  0.00    +0.028 A 
ATOM      4  C   UNL     1       0.056  -2.076  -1.205  0.00  0.00    +0.025 A 
ATOM      5  C   UNL     1       0.669  -2.626  -0.087  0.00  0.00    +0.024 A 
ATOM      6  C   UNL     1       0.656  -1.944   1.113  0.00  0.00    +0.025 A 
ATOM      7  C   UNL     1       0.034  -0.705   1.201  0.00  0.00    +0.037 A 
ENDROOT
BRANCH   7   8
ATOM      8  N   UNL     1       0.025  -0.010   2.418  0.00  0.00    -0.283 N 
ATOM      9  C   UNL     1      -0.057  -0.688   3.580  0.00  0.00    +0.248 C 
ATOM     10  O   UNL     1      -0.040  -1.901   3.578  0.00  0.00    -0.273 OA
ATOM     11  H   UNL     1       0.078   0.958   2.424  0.00  0.00    +0.155 HD
BRANCH   9  12
ATOM     12  C   UNL     1      -0.168   0.062   4.883  0.00  0.00    +0.229 C 
ATOM     13  C   UNL     1       1.116   0.860   5.125  0.00  0.00    +0.201 C 
ATOM     14  O   UNL     1       1.048   1.478   6.414  0.00  0.00    -0.374 OA
ATOM     15  C   UNL     1       0.864   0.549   7.486  0.00  0.00    +0.188 C 
ATOM     16  C   UNL     1      -0.420  -0.250   7.243  0.00  0.00    +0.189 C 
ATOM     17  O   UNL     1      -0.354  -0.868   5.955  0.00  0.00    -0.363 OA
ENDBRANCH   9  12
ENDBRANCH   7   8
BRANCH   4  18
ATOM     18  N   UNL     1       0.069  -2.767  -2.422  0.00  0.00    -0.358 N 
ATOM     19  H   UNL     1      -0.360  -2.383  -3.202  0.00  0.00    +0.142 HD
ATOM     20  H   UNL     1       0.507  -3.630  -2.484  0.00  0.00    +0.142 HD
ENDBRANCH   4  18
TORSDOF 3
