REMARK  Name = ZINC13655809
REMARK  4 active torsions:
REMARK  status: ('A' for Active; 'I' for Inactive)
REMARK    1  A    between atoms: C_4  and  N_7
REMARK    2  A    between atoms: C_14  and  C_20
REMARK    3  A    between atoms: C_20  and  S_21
REMARK    4  A    between atoms: S_21  and  C_22
REMARK                            x       y       z     vdW  Elec       q    Type
REMARK                         _______ _______ _______ _____ _____    ______ ____
ROOT
ATOM      1  N   UNL     1       3.621  -0.650  -0.037  0.00  0.00    -0.217 N 
ATOM      2  C   UNL     1       4.841  -0.072  -0.041  0.00  0.00    +0.285 A 
ATOM      3  O   UNL     1       5.079   1.121  -0.032  0.00  0.00    -0.265 OA
ATOM      4  C   UNL     1       5.822  -1.157  -0.059  0.00  0.00    +0.129 A 
ATOM      5  C   UNL     1       7.282  -1.209  -0.070  0.00  0.00    +0.196 A 
ATOM      6  O   UNL     1       7.950  -0.186  -0.065  0.00  0.00    -0.287 OA
ATOM      7  C   UNL     1       7.898  -2.488  -0.087  0.00  0.00    +0.073 A 
ATOM      8  C   UNL     1       7.131  -3.595  -0.092  0.00  0.00    +0.031 A 
ATOM      9  N   UNL     1       5.773  -3.537  -0.082  0.00  0.00    -0.342 N 
ATOM     10  H   UNL     1       5.267  -4.365  -0.086  0.00  0.00    +0.167 HD
ATOM     11  C   UNL     1       5.104  -2.356  -0.065  0.00  0.00    +0.140 A 
ATOM     12  N   UNL     1       3.776  -2.040  -0.046  0.00  0.00    -0.274 N 
ATOM     13  H   UNL     1       3.049  -2.683  -0.043  0.00  0.00    +0.189 HD
ENDROOT
BRANCH   1  17
ATOM     14  C   UNL     1      -0.017   1.379   0.010  0.00  0.00    +0.000 A 
ATOM     15  C   UNL     1       1.170   2.089   0.002  0.00  0.00    +0.002 A 
ATOM     16  C   UNL     1       2.377   1.420  -0.013  0.00  0.00    +0.028 A 
ATOM     17  C   UNL     1       2.400   0.031  -0.021  0.00  0.00    +0.067 A 
ATOM     18  C   UNL     1       1.206  -0.680  -0.013  0.00  0.00    +0.028 A 
ATOM     19  C   UNL     1       0.002  -0.004   0.002  0.00  0.00    +0.002 A 
ENDBRANCH   1  17
BRANCH   8  20
ATOM     20  C   UNL     1       7.802  -4.944  -0.111  0.00  0.00    +0.127 C 
BRANCH  20  21
ATOM     21  S   UNL     1       7.687  -5.698   1.535  0.00  0.00    -0.119 S 
BRANCH  21  22
ATOM     22  C   UNL     1       8.505  -7.248   1.352  0.00  0.00    +0.008 A 
ATOM     23  C   UNL     1       9.051  -7.606   0.125  0.00  0.00    +0.016 A 
ATOM     24  C   UNL     1       9.691  -8.822  -0.016  0.00  0.00    +0.021 A 
ATOM     25  C   UNL     1       9.790  -9.682   1.063  0.00  0.00    +0.041 A 
ATOM     26  C   UNL     1       9.248  -9.329   2.286  0.00  0.00    +0.021 A 
ATOM     27  C   UNL     1       8.611  -8.112   2.435  0.00  0.00    +0.016 A 
ATOM     28 CL   UNL     1      10.595 -11.210   0.882  0.00  0.00    -0.084 Cl
ENDBRANCH  21  22
ENDBRANCH  20  21
ENDBRANCH   8  20
TORSDOF 4
