REMARK  Name = ZINC36897320
REMARK  5 active torsions:
REMARK  status: ('A' for Active; 'I' for Inactive)
REMARK    1  A    between atoms: C_1  and  C_2
REMARK    2  A    between atoms: N_8  and  C_9
REMARK    3  A    between atoms: C_9  and  C_11
REMARK    4  A    between atoms: C_9  and  C_13
REMARK    5  A    between atoms: C_11  and  N_12
REMARK                            x       y       z     vdW  Elec       q    Type
REMARK                         _______ _______ _______ _____ _____    ______ ____
ROOT
ATOM      1  C   UNL     1       2.052   0.020   1.510  0.00  0.00    +0.070 C 
ENDROOT
BRANCH   1   2
ATOM      2  C   UNL     1       2.829  -0.638   2.622  0.00  0.00    -0.027 A 
ATOM      3  C   UNL     1       4.100  -1.126   2.380  0.00  0.00    +0.054 A 
ATOM      4  C   UNL     1       4.816  -1.732   3.400  0.00  0.00    +0.168 A 
ATOM      5  C   UNL     1       4.252  -1.847   4.668  0.00  0.00    +0.180 A 
ATOM      6  C   UNL     1       2.978  -1.355   4.904  0.00  0.00    +0.064 A 
ATOM      7  C   UNL     1       2.271  -0.747   3.882  0.00  0.00    +0.024 A 
ATOM      8 BR   UNL     1       2.208  -1.509   6.624  0.00  0.00    -0.046 Br
ATOM      9  O   UNL     1       5.147  -2.473   5.488  0.00  0.00    -0.451 OA
ATOM     10  C   UNL     1       6.097  -3.103   4.609  0.00  0.00    +0.466 C 
ATOM     11  O   UNL     1       6.063  -2.285   3.425  0.00  0.00    -0.453 OA
ENDBRANCH   1   2
BRANCH   1  18
ATOM     12  C   UNL     1       2.581  -2.386   0.149  0.00  0.00    +0.024 C 
ATOM     13  C   UNL     1       1.357  -2.255   1.057  0.00  0.00    +0.054 C 
ATOM     14  C   UNL     1       0.216  -3.109   0.501  0.00  0.00    +0.019 C 
ATOM     15  C   UNL     1      -1.013  -2.959   1.402  0.00  0.00    +0.003 C 
ATOM     16  C   UNL     1      -1.401  -1.480   1.481  0.00  0.00    +0.015 C 
ATOM     17  C   UNL     1      -0.213  -0.673   2.009  0.00  0.00    +0.085 C 
ATOM     18  N   UNL     1       0.936  -0.849   1.112  0.00  0.00    -0.295 NA
ENDBRANCH   1  18
BRANCH   1  19
ATOM     19  C   UNL     1       1.505   1.363   1.996  0.00  0.00    -0.063 C 
BRANCH  19  20
ATOM     20  N   UNL     1       0.676   1.964   0.943  0.00  0.00    +0.379 N 
ATOM     21  H   UNL     1       0.320   2.853   1.261  0.00  0.00    -0.090 HD
ATOM     22  H   UNL     1       1.234   2.103   0.114  0.00  0.00    -0.090 HD
ATOM     23  H   UNL     1      -0.096   1.349   0.730  0.00  0.00    -0.090 HD
ENDBRANCH  19  20
ENDBRANCH   1  19
TORSDOF 4
