REMARK  Name = ZINC50640171
REMARK  4 active torsions:
REMARK  status: ('A' for Active; 'I' for Inactive)
REMARK    1  A    between atoms: C_1  and  N_2
REMARK    2  A    between atoms: C_5  and  S_9
REMARK    3  A    between atoms: S_9  and  N_12
REMARK    4  A    between atoms: N_12  and  C_13
REMARK                            x       y       z     vdW  Elec       q    Type
REMARK                         _______ _______ _______ _____ _____    ______ ____
ROOT
ATOM      1  S   UNL     1      -5.141   0.073   0.039  0.00  0.00    +0.092 S 
ATOM      2  O   UNL     1      -6.078  -0.839   0.596  0.00  0.00    -0.148 OA
ATOM      3  O   UNL     1      -4.914   1.363   0.591  0.00  0.00    -0.148 OA
ENDROOT
BRANCH   1   8
ATOM      4  C   UNL     1      -0.018   1.461   0.010  0.00  0.00    +0.127 C 
ATOM      5  N   UNL     1       0.002  -0.004   0.002  0.00  0.00    -0.334 N 
ATOM      6  C   UNL     1      -1.192  -0.715   0.010  0.00  0.00    +0.098 A 
ATOM      7  C   UNL     1      -2.403  -0.030   0.019  0.00  0.00    +0.070 A 
ATOM      8  C   UNL     1      -3.583  -0.750   0.027  0.00  0.00    +0.115 A 
ATOM      9  C   UNL     1      -3.514  -2.137   0.024  0.00  0.00    +0.046 A 
ATOM     10  C   UNL     1      -2.278  -2.752   0.015  0.00  0.00    +0.086 A 
ATOM     11  N   UNL     1      -1.167  -2.039   0.002  0.00  0.00    -0.350 N 
ATOM     12  H   UNL     1       0.849  -0.478  -0.009  0.00  0.00    +0.147 HD
ATOM     13  H   UNL     1      -0.312  -2.496  -0.008  0.00  0.00    +0.166 HD
ENDBRANCH   1   8
BRANCH   1  14
ATOM     14  N   UNL     1      -5.585   0.305  -1.539  0.00  0.00    -0.098 NA
BRANCH  14  15
ATOM     15  C   UNL     1      -6.792   0.942  -1.839  0.00  0.00    +0.077 A 
ATOM     16  C   UNL     1      -7.617   1.387  -0.813  0.00  0.00    +0.027 A 
ATOM     17  C   UNL     1      -8.809   2.017  -1.112  0.00  0.00    +0.005 A 
ATOM     18  C   UNL     1      -9.183   2.205  -2.429  0.00  0.00    +0.038 A 
ATOM     19  C   UNL     1      -8.364   1.763  -3.455  0.00  0.00    +0.125 A 
ATOM     20  C   UNL     1      -7.166   1.137  -3.162  0.00  0.00    +0.065 A 
ATOM     21  F   UNL     1      -8.732   1.949  -4.741  0.00  0.00    -0.205 F 
ENDBRANCH  14  15
ENDBRANCH   1  14
TORSDOF 3
