REMARK  Name = ZINC13298314
REMARK  14 active torsions:
REMARK  status: ('A' for Active; 'I' for Inactive)
REMARK    1  A    between atoms: C_1  and  C_2
REMARK    2  A    between atoms: C_2  and  C_3
REMARK    3  A    between atoms: C_3  and  C_4
REMARK    4  A    between atoms: C_7  and  C_11
REMARK    5  A    between atoms: C_10  and  N_60
REMARK    6  A    between atoms: N_13  and  C_14
REMARK    7  A    between atoms: C_14  and  C_16
REMARK    8  A    between atoms: C_14  and  C_32
REMARK    9  A    between atoms: C_18  and  O_31
REMARK   10  A    between atoms: C_20  and  O_30
REMARK   11  A    between atoms: C_22  and  O_29
REMARK   12  A    between atoms: C_24  and  S_27
REMARK   13  A    between atoms: S_27  and  C_28
REMARK   14  A    between atoms: C_32  and  C_34
REMARK                            x       y       z     vdW  Elec       q    Type
REMARK                         _______ _______ _______ _____ _____    ______ ____
ROOT
ATOM      1  C   UNL     1      -1.504   4.097  -2.534  0.00  0.00    +0.122 C 
ENDROOT
BRANCH   1   2
ATOM      2  C   UNL     1      -0.770   3.708  -1.250  0.00  0.00    +0.172 C 
ATOM      3  C   UNL     1      -1.517   4.278  -0.042  0.00  0.00    +0.176 C 
ATOM      4  C   UNL     1      -0.809   3.834   1.242  0.00  0.00    +0.177 C 
ATOM      5  C   UNL     1      -0.740   2.304   1.271  0.00  0.00    +0.184 C 
ATOM      6  C   UNL     1      -0.022   1.810   0.012  0.00  0.00    +0.207 C 
ATOM      7  O   UNL     1      -0.714   2.283  -1.145  0.00  0.00    -0.356 OA
BRANCH   6   8
ATOM      8  S   UNL     1       0.002  -0.004   0.002  0.00  0.00    -0.131 S 
ATOM      9  C   UNL     1       1.126  -0.420  -1.359  0.00  0.00    +0.087 C 
ENDBRANCH   6   8
BRANCH   5  10
ATOM     10  O   UNL     1      -2.063   1.766   1.309  0.00  0.00    -0.386 OA
ATOM     11  H   UNL     1      -2.095   0.800   1.324  0.00  0.00    +0.210 HD
ENDBRANCH   5  10
BRANCH   4  12
ATOM     12  O   UNL     1       0.513   4.375   1.272  0.00  0.00    -0.386 OA
ATOM     13  H   UNL     1       1.019   4.133   2.059  0.00  0.00    +0.210 HD
ENDBRANCH   4  12
BRANCH   3  14
ATOM     14  O   UNL     1      -1.524   5.705  -0.114  0.00  0.00    -0.387 OA
ATOM     15  H   UNL     1      -1.981   6.134   0.622  0.00  0.00    +0.210 HD
ENDBRANCH   3  14
ENDBRANCH   1   2
BRANCH   1  18
ATOM     16  C   UNL     1      -2.539   6.142  -3.360  0.00  0.00    +0.200 C 
ATOM     17  O   UNL     1      -3.373   5.460  -3.918  0.00  0.00    -0.278 OA
ATOM     18  N   UNL     1      -1.561   5.557  -2.641  0.00  0.00    -0.310 N 
ATOM     19  H   UNL     1      -0.894   6.102  -2.195  0.00  0.00    +0.149 HD
BRANCH  16  22
ATOM     20  C   UNL     1      -4.110   9.432  -2.751  0.00  0.00    -0.029 C 
ATOM     21  C   UNL     1      -3.273   8.249  -2.220  0.00  0.00    -0.005 C 
ATOM     22  C   UNL     1      -2.598   7.644  -3.470  0.00  0.00    +0.019 C 
ATOM     23  C   UNL     1      -3.870   9.441  -4.276  0.00  0.00    -0.075 C 
ATOM     24  C   UNL     1      -2.740   7.991  -5.876  0.00  0.00    -0.095 C 
ATOM     25  N   UNL     1      -3.471   8.066  -4.571  0.00  0.00    +0.386 N 
ATOM     26  H   UNL     1      -4.300   7.462  -4.614  0.00  0.00    -0.081 HD
BRANCH  20  27
ATOM     27  C   UNL     1      -3.630  10.744  -2.129  0.00  0.00    +0.001 C 
BRANCH  27  29
ATOM     28  C   UNL     1      -4.069  13.197  -1.948  0.00  0.00    +0.004 C 
ATOM     29  C   UNL     1      -4.549  11.885  -2.570  0.00  0.00    -0.003 C 
ENDBRANCH  27  29
ENDBRANCH  20  27
ENDBRANCH  16  22
ENDBRANCH   1  18
BRANCH   1  30
ATOM     30  C   UNL     1      -0.758   3.525  -3.742  0.00  0.00    +0.100 C 
ATOM     31  C   UNL     1      -1.421   4.018  -5.030  0.00  0.00    +0.026 C 
ATOM     32 CL   UNL     1       0.959   4.074  -3.701  0.00  0.00    -0.120 Cl
ENDBRANCH   1  30
TORSDOF 10
