REMARK  Name = ZINC66220197
REMARK  4 active torsions:
REMARK  status: ('A' for Active; 'I' for Inactive)
REMARK    1  A    between atoms: C_4  and  C_7
REMARK    2  A    between atoms: C_7  and  N_11
REMARK    3  A    between atoms: N_14  and  N_15
REMARK    4  A    between atoms: C_16  and  C_18
REMARK                            x       y       z     vdW  Elec       q    Type
REMARK                         _______ _______ _______ _____ _____    ______ ____
ROOT
ATOM      1  N   UNL     1       4.838   0.173   0.281  0.00  0.00    -0.289 N 
ATOM      2  C   UNL     1       4.930   1.387  -0.297  0.00  0.00    +0.317 C 
ATOM      3  O   UNL     1       4.032   1.789  -1.011  0.00  0.00    -0.251 OA
ATOM      4  N   UNL     1       6.016   2.155  -0.083  0.00  0.00    -0.218 N 
ATOM      5  H   UNL     1       5.518  -0.118   0.909  0.00  0.00    +0.151 HD
ATOM      6  H   UNL     1       6.082   3.029  -0.499  0.00  0.00    +0.174 HD
ENDROOT
BRANCH   1   7
ATOM      7  C   UNL     1       3.712  -0.708  -0.039  0.00  0.00    +0.061 C 
ATOM      8  C   UNL     1       3.697  -1.185  -1.501  0.00  0.00    +0.031 C 
ATOM      9  C   UNL     1       4.562  -2.370  -1.041  0.00  0.00    +0.005 C 
ATOM     10  C   UNL     1       3.947  -2.176   0.355  0.00  0.00    +0.031 C 
BRANCH   7  14
ATOM     11  C   UNL     1      -0.038   0.845   1.291  0.00  0.00    +0.000 A 
ATOM     12  C   UNL     1       1.140   1.317   1.840  0.00  0.00    +0.000 A 
ATOM     13  C   UNL     1       2.353   0.814   1.410  0.00  0.00    +0.006 A 
ATOM     14  C   UNL     1       2.389  -0.161   0.431  0.00  0.00    -0.024 A 
ATOM     15  C   UNL     1       1.212  -0.633  -0.118  0.00  0.00    +0.006 A 
ATOM     16  C   UNL     1      -0.002  -0.130   0.312  0.00  0.00    +0.000 A 
ENDBRANCH   7  14
ENDBRANCH   1   7
BRANCH   4  17
ATOM     17  N   UNL     1       7.051   1.691   0.740  0.00  0.00    -0.228 N 
ATOM     18  C   UNL     1       8.137   2.459   0.955  0.00  0.00    +0.281 C 
ATOM     19  O   UNL     1       8.220   3.555   0.433  0.00  0.00    -0.267 OA
ATOM     20  H   UNL     1       6.985   0.817   1.156  0.00  0.00    +0.173 HD
BRANCH  18  21
ATOM     21  C   UNL     1       9.228   1.971   1.822  0.00  0.00    +0.155 A 
ATOM     22  C   UNL     1      10.415   2.805   2.067  0.00  0.00    +0.020 A 
ATOM     23  C   UNL     1      10.576   4.069   1.509  0.00  0.00    +0.011 A 
ATOM     24  C   UNL     1      11.718   4.790   1.785  0.00  0.00    +0.001 A 
ATOM     25  C   UNL     1      12.706   4.269   2.611  0.00  0.00    +0.001 A 
ATOM     26  C   UNL     1      12.566   3.018   3.174  0.00  0.00    +0.014 A 
ATOM     27  C   UNL     1      11.421   2.274   2.908  0.00  0.00    +0.050 A 
ATOM     28  C   UNL     1      11.192   0.934   3.465  0.00  0.00    +0.272 A 
ATOM     29  O   UNL     1      12.014   0.415   4.197  0.00  0.00    -0.266 OA
ATOM     30  N   UNL     1      10.048   0.293   3.147  0.00  0.00    -0.242 N 
ATOM     31  H   UNL     1       9.900  -0.592   3.516  0.00  0.00    +0.192 HD
ATOM     32  N   UNL     1       9.147   0.791   2.388  0.00  0.00    -0.166 NA
ENDBRANCH  18  21
ENDBRANCH   4  17
TORSDOF 4
