REMARK  Name = ZINC21715382
REMARK  6 active torsions:
REMARK  status: ('A' for Active; 'I' for Inactive)
REMARK    1  A    between atoms: C_1  and  C_2
REMARK    2  A    between atoms: C_5  and  N_8
REMARK    3  A    between atoms: C_9  and  C_11
REMARK    4  A    between atoms: C_11  and  N_12
REMARK    5  A    between atoms: C_20  and  C_29
REMARK    6  A    between atoms: C_23  and  N_28
REMARK                            x       y       z     vdW  Elec       q    Type
REMARK                         _______ _______ _______ _____ _____    ______ ____
ROOT
ATOM      1  N   UNL     1       0.457  -6.801   2.554  0.00  0.00    -0.291 NA
ATOM      2  C   UNL     1      -0.781  -6.559   3.308  0.00  0.00    +0.104 C 
ATOM      3  C   UNL     1      -0.567  -6.951   4.774  0.00  0.00    +0.122 C 
ATOM      4  N   UNL     1      -0.072  -8.335   4.820  0.00  0.00    -0.314 N 
ATOM      5  C   UNL     1       1.085  -8.688   3.984  0.00  0.00    +0.122 C 
ATOM      6  C   UNL     1       0.807  -8.228   2.549  0.00  0.00    +0.104 C 
ATOM      7  C   UNL     1      -0.680  -9.283   5.633  0.00  0.00    +0.100 A 
ATOM      8  C   UNL     1      -0.090 -10.548   5.753  0.00  0.00    +0.057 A 
ATOM      9  C   UNL     1      -0.688 -11.505   6.562  0.00  0.00    +0.075 A 
ATOM     10  C   UNL     1      -1.921 -11.124   7.254  0.00  0.00    +0.014 A 
ATOM     11  C   UNL     1      -2.595 -12.018   8.090  0.00  0.00    +0.033 A 
ATOM     12  C   UNL     1      -3.754 -11.615   8.722  0.00  0.00    +0.025 A 
ATOM     13  C   UNL     1      -4.255 -10.322   8.529  0.00  0.00    +0.025 A 
ATOM     14  C   UNL     1      -3.616  -9.437   7.720  0.00  0.00    +0.028 A 
ATOM     15  C   UNL     1      -2.431  -9.815   7.061  0.00  0.00    +0.049 A 
ATOM     16  N   UNL     1      -1.784  -8.959   6.266  0.00  0.00    -0.343 N 
ATOM     17  H   UNL     1      -2.145  -8.066   6.149  0.00  0.00    +0.167 HD
ENDROOT
BRANCH  12  18
ATOM     18  N   UNL     1      -4.432 -12.503   9.557  0.00  0.00    -0.358 N 
ATOM     19  H   UNL     1      -4.088 -13.400   9.693  0.00  0.00    +0.142 HD
ATOM     20  H   UNL     1      -5.247 -12.224  10.003  0.00  0.00    +0.142 HD
ENDBRANCH  12  18
BRANCH   9  21
ATOM     21  C   UNL     1      -0.104 -12.851   6.720  0.00  0.00    +0.387 C 
ATOM     22  O   UNL     1       0.864 -13.180   6.048  0.00  0.00    -0.241 OA
ATOM     23  O   UNL     1      -0.589 -13.638   7.521  0.00  0.00    -0.241 OA
ENDBRANCH   9  21
BRANCH   1  24
ATOM     24  C   UNL     1       0.351  -6.280   1.185  0.00  0.00    +0.180 C 
BRANCH  24  26
ATOM     25  N   UNL     1       0.126  -4.079   0.080  0.00  0.00    -0.284 N 
ATOM     26  C   UNL     1       0.236  -4.778   1.227  0.00  0.00    +0.231 C 
ATOM     27  O   UNL     1       0.242  -4.199   2.292  0.00  0.00    -0.274 OA
ATOM     28  H   UNL     1       0.045  -4.545  -0.767  0.00  0.00    +0.155 HD
BRANCH  25  33
ATOM     29  C   UNL     1       0.141   1.593   0.205  0.00  0.00    +0.044 C 
ATOM     30  C   UNL     1       0.137   0.087   0.172  0.00  0.00    -0.050 A 
ATOM     31  C   UNL     1       0.883  -0.626   1.092  0.00  0.00    +0.005 A 
ATOM     32  C   UNL     1       0.882  -2.006   1.065  0.00  0.00    +0.023 A 
ATOM     33  C   UNL     1       0.129  -2.680   0.111  0.00  0.00    +0.033 A 
ATOM     34  C   UNL     1      -0.620  -1.961  -0.812  0.00  0.00    +0.023 A 
ATOM     35  C   UNL     1      -0.618  -0.581  -0.776  0.00  0.00    +0.005 A 
ENDBRANCH  25  33
ENDBRANCH  24  26
ENDBRANCH   1  24
TORSDOF 5
