REMARK  Name = ZINC48445705
REMARK  8 active torsions:
REMARK  status: ('A' for Active; 'I' for Inactive)
REMARK    1  A    between atoms: C_1  and  C_2
REMARK    2  A    between atoms: C_2  and  C_4
REMARK    3  A    between atoms: C_2  and  N_8
REMARK    4  A    between atoms: N_6  and  C_7
REMARK    5  A    between atoms: N_8  and  S_9
REMARK    6  A    between atoms: S_9  and  C_12
REMARK    7  A    between atoms: C_15  and  C_17
REMARK    8  A    between atoms: C_17  and  C_18
REMARK                            x       y       z     vdW  Elec       q    Type
REMARK                         _______ _______ _______ _____ _____    ______ ____
ROOT
ATOM      1  S   UNL     1      -2.119  -0.907  -1.411  0.00  0.00    +0.065 S 
ATOM      2  O   UNL     1      -3.414  -1.386  -1.071  0.00  0.00    -0.153 OA
ATOM      3  O   UNL     1      -1.920   0.189  -2.293  0.00  0.00    -0.153 OA
ENDROOT
BRANCH   1   4
ATOM      4  C   UNL     1      -1.242  -2.272  -2.098  0.00  0.00    +0.143 A 
ATOM      5  C   UNL     1      -1.452  -3.599  -1.918  0.00  0.00    +0.036 A 
ATOM      6  C   UNL     1      -0.629  -4.502  -2.566  0.00  0.00    +0.014 A 
ATOM      7  C   UNL     1       0.362  -4.033  -3.362  0.00  0.00    +0.002 A 
ATOM      8  S   UNL     1       0.149  -2.267  -3.217  0.00  0.00    -0.073 S 
BRANCH   7   9
ATOM      9  C   UNL     1       1.378  -4.803  -4.166  0.00  0.00    +0.167 C 
BRANCH   9  10
ATOM     10  C   UNL     1       0.831  -5.070  -5.544  0.00  0.00    +0.361 C 
ATOM     11  O   UNL     1      -0.281  -4.672  -5.846  0.00  0.00    -0.246 OA
ATOM     12  O   UNL     1       1.500  -5.684  -6.358  0.00  0.00    -0.246 OA
ENDBRANCH   9  10
ENDBRANCH   7   9
ENDBRANCH   1   4
BRANCH   1  13
ATOM     13  N   UNL     1      -1.372  -0.511   0.012  0.00  0.00    -0.178 NA
ATOM     14  H   UNL     1      -1.845  -0.615   0.853  0.00  0.00    +0.149 HD
BRANCH  13  16
ATOM     15  C   UNL     1      -0.019   1.526   0.010  0.00  0.00    +0.035 C 
ATOM     16  C   UNL     1       0.002  -0.004   0.002  0.00  0.00    +0.159 C 
BRANCH  16  17
ATOM     17  C   UNL     1       0.731  -0.503   1.223  0.00  0.00    +0.231 C 
ATOM     18  O   UNL     1       0.159  -1.213   2.023  0.00  0.00    -0.274 OA
ATOM     19  N   UNL     1       2.019  -0.161   1.426  0.00  0.00    -0.317 N 
ATOM     20  C   UNL     1       2.727  -0.647   2.613  0.00  0.00    +0.128 C 
ATOM     21  H   UNL     1       2.476   0.406   0.786  0.00  0.00    +0.148 HD
ENDBRANCH  16  17
ENDBRANCH  13  16
ENDBRANCH   1  13
TORSDOF 6
