REMARK  Name = ZINC06860678
REMARK  11 active torsions:
REMARK  status: ('A' for Active; 'I' for Inactive)
REMARK    1  A    between atoms: C_1  and  C_2
REMARK    2  A    between atoms: C_2  and  C_3
REMARK    3  A    between atoms: C_8  and  N_9
REMARK    4  A    between atoms: N_9  and  C_10
REMARK    5  A    between atoms: C_10  and  C_12
REMARK    6  A    between atoms: C_10  and  C_19
REMARK    7  A    between atoms: N_21  and  C_22
REMARK    8  A    between atoms: C_22  and  C_23
REMARK    9  A    between atoms: C_29  and  C_31
REMARK   10  A    between atoms: C_32  and  N_39
REMARK   11  A    between atoms: C_33  and  C_36
REMARK                            x       y       z     vdW  Elec       q    Type
REMARK                         _______ _______ _______ _____ _____    ______ ____
ROOT
ATOM      1  N   UNL     1      -0.356   1.276  -5.423  0.00  0.00    -0.251 N 
ATOM      2  C   UNL     1      -0.983   0.405  -6.238  0.00  0.00    +0.262 C 
ATOM      3  O   UNL     1      -2.170   0.176  -6.087  0.00  0.00    -0.269 OA
ENDROOT
BRANCH   1   9
ATOM      4  C   UNL     1       1.953   0.757  -4.947  0.00  0.00    -0.026 A 
ATOM      5  C   UNL     1       3.298   1.019  -5.120  0.00  0.00    +0.005 A 
ATOM      6  C   UNL     1       3.703   2.057  -5.939  0.00  0.00    +0.000 A 
ATOM      7  C   UNL     1       2.762   2.837  -6.587  0.00  0.00    +0.002 A 
ATOM      8  C   UNL     1       1.416   2.578  -6.422  0.00  0.00    +0.024 A 
ATOM      9  C   UNL     1       1.006   1.539  -5.596  0.00  0.00    +0.041 A 
BRANCH   4  11
ATOM     10  C   UNL     1       1.125  -1.580  -4.914  0.00  0.00    +0.009 C 
ATOM     11  C   UNL     1       1.513  -0.375  -4.055  0.00  0.00    +0.033 C 
ENDBRANCH   4  11
ENDBRANCH   1   9
BRANCH   2  12
ATOM     12  C   UNL     1      -0.238  -0.268  -7.303  0.00  0.00    +0.116 A 
ATOM     13  C   UNL     1      -0.685  -1.195  -8.247  0.00  0.00    +0.076 A 
ATOM     14  C   UNL     1       0.331  -1.613  -9.107  0.00  0.00    +0.155 A 
ATOM     15  N   UNL     1       1.542  -1.125  -8.957  0.00  0.00    -0.203 NA
ATOM     16  S   UNL     1       1.480  -0.117  -7.747  0.00  0.00    +0.019 S 
BRANCH  14  17
ATOM     17  C   UNL     1       0.049  -2.593 -10.172  0.00  0.00    +0.262 C 
ATOM     18  O   UNL     1      -1.075  -3.040 -10.305  0.00  0.00    -0.269 OA
ATOM     19  N   UNL     1       1.035  -2.993 -10.999  0.00  0.00    -0.324 N 
ATOM     20  H   UNL     1       1.931  -2.636 -10.893  0.00  0.00    +0.145 HD
ATOM     21  H   UNL     1       0.849  -3.637 -11.700  0.00  0.00    +0.145 HD
ENDBRANCH  14  17
BRANCH  13  22
ATOM     22  N   UNL     1      -1.995  -1.649  -8.322  0.00  0.00    -0.355 N 
ATOM     23  H   UNL     1      -2.659  -1.320  -7.696  0.00  0.00    +0.142 HD
ATOM     24  H   UNL     1      -2.246  -2.294  -9.001  0.00  0.00    +0.142 HD
ENDBRANCH  13  22
ENDBRANCH   2  12
BRANCH   1  25
ATOM     25  C   UNL     1      -1.102   1.949  -4.357  0.00  0.00    +0.197 C 
BRANCH  25  26
ATOM     26  C   UNL     1      -2.290   2.664  -4.949  0.00  0.00    -0.018 A 
ATOM     27  C   UNL     1      -2.135   3.438  -6.085  0.00  0.00    +0.009 A 
ATOM     28  C   UNL     1      -3.224   4.090  -6.631  0.00  0.00    +0.038 A 
ATOM     29  C   UNL     1      -4.468   3.978  -6.035  0.00  0.00    +0.123 A 
ATOM     30  C   UNL     1      -4.621   3.207  -4.894  0.00  0.00    +0.038 A 
ATOM     31  C   UNL     1      -3.532   2.551  -4.353  0.00  0.00    +0.009 A 
ATOM     32  F   UNL     1      -5.532   4.619  -6.565  0.00  0.00    -0.205 F 
ENDBRANCH  25  26
BRANCH  25  33
ATOM     33  C   UNL     1      -0.206   2.947  -3.670  0.00  0.00    +0.239 C 
ATOM     34  O   UNL     1       0.554   3.630  -4.323  0.00  0.00    -0.273 OA
ATOM     35  N   UNL     1      -0.250   3.081  -2.329  0.00  0.00    -0.311 N 
ATOM     36  H   UNL     1      -0.858   2.535  -1.807  0.00  0.00    +0.149 HD
BRANCH  35  37
ATOM     37  C   UNL     1       0.621   4.051  -1.661  0.00  0.00    +0.135 C 
BRANCH  37  38
ATOM     38  C   UNL     1       0.375   4.002  -0.152  0.00  0.00    +0.135 C 
ATOM     39  C   UNL     1       1.287   5.020   0.561  0.00  0.00    +0.035 C 
ATOM     40  C   UNL     1       0.303   5.953   1.308  0.00  0.00    +0.031 C 
ATOM     41  C   UNL     1      -0.973   5.077   1.395  0.00  0.00    +0.160 C 
ATOM     42  O   UNL     1      -0.984   4.373   0.134  0.00  0.00    -0.375 OA
ENDBRANCH  37  38
ENDBRANCH  35  37
ENDBRANCH  25  33
ENDBRANCH   1  25
TORSDOF 10
