REMARK  Name = ZINC16857002
REMARK  15 active torsions:
REMARK  status: ('A' for Active; 'I' for Inactive)
REMARK    1  A    between atoms: C_1  and  C_2
REMARK    2  A    between atoms: C_2  and  C_3
REMARK    3  A    between atoms: C_2  and  C_4
REMARK    4  A    between atoms: C_4  and  S_5
REMARK    5  A    between atoms: S_5  and  C_6
REMARK    6  A    between atoms: C_8  and  O_26
REMARK    7  A    between atoms: C_9  and  C_13
REMARK    8  A    between atoms: C_10  and  O_12
REMARK    9  A    between atoms: C_14  and  O_25
REMARK   10  A    between atoms: C_16  and  S_20
REMARK   11  A    between atoms: C_18  and  O_19
REMARK   12  A    between atoms: S_20  and  C_21
REMARK   13  A    between atoms: C_21  and  C_22
REMARK   14  A    between atoms: C_22  and  C_23
REMARK   15  A    between atoms: C_22  and  C_24
REMARK                            x       y       z     vdW  Elec       q    Type
REMARK                         _______ _______ _______ _____ _____    ______ ____
ROOT
ATOM      1  C   UNL     1       0.174   0.961   2.735  0.00  0.00    +0.195 A 
ATOM      2  N   UNL     1       1.219   0.236   2.362  0.00  0.00    -0.187 NA
ATOM      3  C   UNL     1       2.026  -0.312   3.264  0.00  0.00    +0.228 A 
ATOM      4  C   UNL     1       1.752  -0.122   4.625  0.00  0.00    +0.115 A 
ATOM      5  C   UNL     1       0.634   0.647   4.975  0.00  0.00    +0.228 A 
ATOM      6  N   UNL     1      -0.119   1.164   4.012  0.00  0.00    -0.187 NA
ENDROOT
BRANCH   4   7
ATOM      7  C   UNL     1       2.622  -0.719   5.667  0.00  0.00    +0.115 A 
ATOM      8  C   UNL     1       3.728  -0.020   6.167  0.00  0.00    +0.228 A 
ATOM      9  N   UNL     1       4.478  -0.589   7.104  0.00  0.00    -0.187 NA
ATOM     10  C   UNL     1       4.199  -1.803   7.556  0.00  0.00    +0.195 A 
ATOM     11  N   UNL     1       3.165  -2.499   7.105  0.00  0.00    -0.187 NA
ATOM     12  C   UNL     1       2.362  -2.000   6.173  0.00  0.00    +0.228 A 
BRANCH  12  13
ATOM     13  O   UNL     1       1.308  -2.719   5.717  0.00  0.00    -0.492 OA
ATOM     14  H   UNL     1       1.513  -3.280   4.956  0.00  0.00    +0.294 HD
ENDBRANCH  12  13
BRANCH   8  15
ATOM     15  O   UNL     1       4.025   1.219   5.706  0.00  0.00    -0.492 OA
ATOM     16  H   UNL     1       3.603   1.934   6.201  0.00  0.00    +0.294 HD
ENDBRANCH   8  15
BRANCH  10  17
ATOM     17  S   UNL     1       5.232  -2.512   8.795  0.00  0.00    -0.086 S 
BRANCH  17  18
ATOM     18  C   UNL     1       6.426  -1.170   9.014  0.00  0.00    +0.080 C 
BRANCH  18  19
ATOM     19  C   UNL     1       7.454  -1.570  10.075  0.00  0.00    -0.007 C 
ATOM     20  C   UNL     1       8.271  -2.761   9.570  0.00  0.00    +0.008 C 
ATOM     21  C   UNL     1       8.388  -0.391  10.351  0.00  0.00    +0.008 C 
ENDBRANCH  18  19
ENDBRANCH  17  18
ENDBRANCH  10  17
ENDBRANCH   4   7
BRANCH   5  22
ATOM     22  O   UNL     1       0.326   0.860   6.278  0.00  0.00    -0.492 OA
ATOM     23  H   UNL     1      -0.264   0.193   6.656  0.00  0.00    +0.294 HD
ENDBRANCH   5  22
BRANCH   3  24
ATOM     24  O   UNL     1       3.095  -1.047   2.873  0.00  0.00    -0.492 OA
ATOM     25  H   UNL     1       2.905  -1.989   2.760  0.00  0.00    +0.294 HD
ENDBRANCH   3  24
BRANCH   1  26
ATOM     26  S   UNL     1      -0.860   1.669   1.497  0.00  0.00    -0.086 S 
BRANCH  26  27
ATOM     27  C   UNL     1      -0.013   1.086   0.008  0.00  0.00    +0.080 C 
BRANCH  27  29
ATOM     28  C   UNL     1      -0.666   3.119  -1.289  0.00  0.00    +0.008 C 
ATOM     29  C   UNL     1      -0.753   1.593  -1.232  0.00  0.00    -0.007 C 
ATOM     30  C   UNL     1      -0.111   0.998  -2.487  0.00  0.00    +0.008 C 
ENDBRANCH  27  29
ENDBRANCH  26  27
ENDBRANCH   1  26
TORSDOF 11
