REMARK  Name = ZINC37021916
REMARK  5 active torsions:
REMARK  status: ('A' for Active; 'I' for Inactive)
REMARK    1  A    between atoms: C_2  and  N_24
REMARK    2  A    between atoms: C_4  and  S_9
REMARK    3  A    between atoms: S_9  and  C_10
REMARK    4  A    between atoms: C_10  and  C_11
REMARK    5  A    between atoms: N_13  and  C_14
REMARK                            x       y       z     vdW  Elec       q    Type
REMARK                         _______ _______ _______ _____ _____    ______ ____
ROOT
ATOM      1  C   UNL     1       5.158   0.613   0.343  0.00  0.00    +0.173 C 
ENDROOT
BRANCH   1   2
ATOM      2  C   UNL     1       6.540   0.014   0.326  0.00  0.00    +0.224 C 
ATOM      3  O   UNL     1       6.706  -1.139   0.666  0.00  0.00    -0.275 OA
ATOM      4  N   UNL     1       7.593   0.758  -0.066  0.00  0.00    -0.309 N 
ATOM      5  H   UNL     1       7.460   1.680  -0.338  0.00  0.00    +0.149 HD
BRANCH   4   6
ATOM      6  C   UNL     1       8.937   0.176  -0.082  0.00  0.00    +0.113 C 
ATOM      7  C   UNL     1       9.926   1.202   0.513  0.00  0.00    +0.189 C 
ATOM      8  S   UNL     1      11.417   0.917  -0.537  0.00  0.00    -0.028 S 
ATOM      9  O   UNL     1      12.135  -0.204  -0.041  0.00  0.00    -0.174 OA
ATOM     10  O   UNL     1      12.091   2.151  -0.743  0.00  0.00    -0.174 OA
ATOM     11  C   UNL     1      10.529   0.439  -2.083  0.00  0.00    +0.187 C 
ATOM     12  C   UNL     1       9.269  -0.239  -1.508  0.00  0.00    +0.123 C 
ATOM     13 CL   UNL     1       7.867   0.164  -2.566  0.00  0.00    -0.118 Cl
ENDBRANCH   4   6
ENDBRANCH   1   2
BRANCH   1  14
ATOM     14  S   UNL     1       3.966  -0.630   0.913  0.00  0.00    -0.078 S 
BRANCH  14  18
ATOM     15  C   UNL     1       0.046   1.516   0.818  0.00  0.00    +0.113 A 
ATOM     16  C   UNL     1       1.225   2.145   0.444  0.00  0.00    +0.124 A 
ATOM     17  N   UNL     1       2.379   1.470   0.485  0.00  0.00    -0.209 NA
ATOM     18  C   UNL     1       2.420   0.213   0.877  0.00  0.00    +0.171 A 
ATOM     19  N   UNL     1       1.290  -0.449   1.254  0.00  0.00    -0.302 N 
ATOM     20  H   UNL     1       1.343  -1.374   1.539  0.00  0.00    +0.171 HD
ATOM     21  C   UNL     1       0.097   0.182   1.233  0.00  0.00    +0.254 A 
ATOM     22  O   UNL     1      -0.920  -0.404   1.570  0.00  0.00    -0.268 OA
BRANCH  16  23
ATOM     23  N   UNL     1       1.207   3.461   0.029  0.00  0.00    -0.343 N 
ATOM     24  H   UNL     1       0.369   3.949  -0.000  0.00  0.00    +0.144 HD
ATOM     25  H   UNL     1       2.032   3.899  -0.232  0.00  0.00    +0.144 HD
ENDBRANCH  16  23
ENDBRANCH  14  18
ENDBRANCH   1  14
TORSDOF 5
