REMARK  Name = ZINC43769576
REMARK  5 active torsions:
REMARK  status: ('A' for Active; 'I' for Inactive)
REMARK    1  A    between atoms: C_1  and  O_2
REMARK    2  A    between atoms: O_2  and  C_3
REMARK    3  A    between atoms: C_3  and  C_5
REMARK    4  A    between atoms: C_12  and  C_21
REMARK    5  A    between atoms: C_24  and  C_27
REMARK                            x       y       z     vdW  Elec       q    Type
REMARK                         _______ _______ _______ _____ _____    ______ ____
ROOT
ATOM      1  C   UNL     1      -1.247  -2.104   0.003  0.00  0.00    +0.080 A 
ATOM      2  C   UNL     1      -0.071  -2.849  -0.112  0.00  0.00    +0.017 A 
ATOM      3  C   UNL     1      -0.125  -4.225  -0.111  0.00  0.00    +0.001 A 
ATOM      4  C   UNL     1      -1.343  -4.875   0.012  0.00  0.00    +0.006 A 
ATOM      5  C   UNL     1      -2.513  -4.159   0.127  0.00  0.00    -0.019 A 
ATOM      6  C   UNL     1      -2.484  -2.760   0.117  0.00  0.00    +0.045 A 
ATOM      7  N   UNL     1      -3.651  -2.006   0.191  0.00  0.00    -0.336 N 
ATOM      8  C   UNL     1      -4.975  -2.649   0.330  0.00  0.00    +0.105 C 
ATOM      9  C   UNL     1      -4.887  -3.945  -0.455  0.00  0.00    +0.029 C 
ATOM     10  C   UNL     1      -3.831  -4.812   0.281  0.00  0.00    +0.049 C 
ATOM     11  C   UNL     1      -4.095  -6.184  -0.223  0.00  0.00    -0.023 C 
ATOM     12  C   UNL     1      -5.373  -6.268  -0.572  0.00  0.00    -0.030 C 
ATOM     13  C   UNL     1      -6.078  -4.907  -0.354  0.00  0.00    +0.033 C 
ATOM     14  H   UNL     1      -3.595  -1.038   0.150  0.00  0.00    +0.147 HD
ENDROOT
BRANCH   8  15
ATOM     15  C   UNL     1      -6.048  -1.761  -0.245  0.00  0.00    -0.027 A 
ATOM     16  C   UNL     1      -5.813  -1.071  -1.421  0.00  0.00    +0.006 A 
ATOM     17  C   UNL     1      -6.790  -0.256  -1.954  0.00  0.00    +0.015 A 
ATOM     18  C   UNL     1      -8.020  -0.128  -1.303  0.00  0.00    +0.063 A 
ATOM     19  C   UNL     1      -8.250  -0.829  -0.116  0.00  0.00    +0.015 A 
ATOM     20  C   UNL     1      -7.266  -1.644   0.402  0.00  0.00    +0.006 A 
BRANCH  18  21
ATOM     21  C   UNL     1      -9.070   0.742  -1.866  0.00  0.00    +0.387 C 
ATOM     22  O   UNL     1      -8.865   1.354  -2.905  0.00  0.00    -0.241 OA
ATOM     23  O   UNL     1     -10.145   0.851  -1.294  0.00  0.00    -0.241 OA
ENDBRANCH  18  21
ENDBRANCH   8  15
BRANCH   1  24
ATOM     24  C   UNL     1      -1.190  -0.632   0.010  0.00  0.00    +0.341 C 
ATOM     25  O   UNL     1      -2.218   0.016   0.002  0.00  0.00    -0.245 OA
BRANCH  24  27
ATOM     26  C   UNL     1      -0.017   1.425   0.032  0.00  0.00    +0.280 C 
ATOM     27  O   UNL     1       0.002  -0.004   0.026  0.00  0.00    -0.464 OA
ENDBRANCH  24  27
ENDBRANCH   1  24
TORSDOF 4
