REMARK  Name = ZINC08686562
REMARK  8 active torsions:
REMARK  status: ('A' for Active; 'I' for Inactive)
REMARK    1  A    between atoms: C_1  and  C_2
REMARK    2  A    between atoms: C_2  and  C_31
REMARK    3  A    between atoms: C_3  and  N_28
REMARK    4  A    between atoms: C_5  and  C_21
REMARK    5  A    between atoms: C_7  and  C_14
REMARK    6  A    between atoms: C_9  and  N_11
REMARK    7  A    between atoms: C_17  and  O_20
REMARK    8  A    between atoms: C_24  and  O_27
REMARK                            x       y       z     vdW  Elec       q    Type
REMARK                         _______ _______ _______ _____ _____    ______ ____
ROOT
ATOM      1  C   UNL     1       4.183  -1.161  -1.008  0.00  0.00    +0.015 C 
ATOM      2  C   UNL     1       4.388   0.289  -1.451  0.00  0.00    +0.017 C 
ATOM      3  C   UNL     1       3.043   1.022  -1.443  0.00  0.00    +0.168 C 
ATOM      4  C   UNL     1       2.490   1.045  -0.016  0.00  0.00    -0.010 C 
ATOM      5  C   UNL     1       4.727   1.013   0.914  0.00  0.00    -0.010 C 
ATOM      6  C   UNL     1       5.348   0.989  -0.484  0.00  0.00    +0.168 C 
ATOM      7  C   UNL     1       4.976   0.315  -2.863  0.00  0.00    +0.015 C 
ATOM      8  N   UNL     1       3.441   1.735   0.876  0.00  0.00    +0.391 N 
ATOM      9  H   UNL     1       3.048   1.776   1.823  0.00  0.00    -0.084 HD
ATOM     10  H   UNL     1       3.599   2.689   0.529  0.00  0.00    -0.084 HD
ENDROOT
BRANCH   5  11
ATOM     11  C   UNL     1       5.660   1.718   1.865  0.00  0.00    -0.059 A 
ATOM     12  C   UNL     1       5.703   3.100   1.891  0.00  0.00    +0.005 A 
ATOM     13  C   UNL     1       6.553   3.749   2.766  0.00  0.00    +0.045 A 
ATOM     14  C   UNL     1       7.372   3.013   3.610  0.00  0.00    +0.117 A 
ATOM     15  C   UNL     1       7.330   1.626   3.578  0.00  0.00    +0.045 A 
ATOM     16  C   UNL     1       6.474   0.982   2.706  0.00  0.00    +0.005 A 
BRANCH  14  17
ATOM     17  O   UNL     1       8.212   3.649   4.468  0.00  0.00    -0.507 OA
ATOM     18  H   UNL     1       9.088   3.828   4.100  0.00  0.00    +0.292 HD
ENDBRANCH  14  17
ENDBRANCH   5  11
BRANCH   4  19
ATOM     19  C   UNL     1       1.176   1.783   0.000  0.00  0.00    -0.059 A 
ATOM     20  C   UNL     1      -0.013   1.076   0.008  0.00  0.00    +0.005 A 
ATOM     21  C   UNL     1      -1.218   1.750   0.017  0.00  0.00    +0.045 A 
ATOM     22  C   UNL     1      -1.237   3.137   0.031  0.00  0.00    +0.117 A 
ATOM     23  C   UNL     1      -0.043   3.844   0.023  0.00  0.00    +0.045 A 
ATOM     24  C   UNL     1       1.160   3.165   0.007  0.00  0.00    +0.005 A 
BRANCH  22  25
ATOM     25  O   UNL     1      -2.422   3.802   0.046  0.00  0.00    -0.507 OA
ATOM     26  H   UNL     1      -2.773   3.999  -0.833  0.00  0.00    +0.292 HD
ENDBRANCH  22  25
ENDBRANCH   4  19
BRANCH   6  27
ATOM     27  N   UNL     1       5.585   2.361  -0.938  0.00  0.00    +0.025 N 
ATOM     28  O   UNL     1       4.652   3.138  -1.041  0.00  0.00    -0.131 OA
ATOM     29  O   UNL     1       6.714   2.725  -1.213  0.00  0.00    -0.131 OA
ENDBRANCH   6  27
BRANCH   3  30
ATOM     30  N   UNL     1       2.101   0.326  -2.322  0.00  0.00    +0.025 N 
ATOM     31  O   UNL     1       1.611   0.908  -3.273  0.00  0.00    -0.131 OA
ATOM     32  O   UNL     1       1.806  -0.836  -2.102  0.00  0.00    -0.131 OA
ENDBRANCH   3  30
TORSDOF 6
