REMARK  Name = ZINC44500825
REMARK  7 active torsions:
REMARK  status: ('A' for Active; 'I' for Inactive)
REMARK    1  A    between atoms: C_1  and  C_2
REMARK    2  A    between atoms: C_2  and  N_3
REMARK    3  A    between atoms: C_5  and  C_8
REMARK    4  A    between atoms: C_8  and  C_10
REMARK    5  A    between atoms: C_8  and  N_11
REMARK    6  A    between atoms: C_12  and  N_18
REMARK    7  A    between atoms: C_14  and  C_16
REMARK                            x       y       z     vdW  Elec       q    Type
REMARK                         _______ _______ _______ _____ _____    ______ ____
ROOT
ATOM      1  N   UNL     1       4.148  -1.552  -3.799  0.00  0.00    -0.242 N 
ATOM      2  C   UNL     1       5.466  -1.388  -3.513  0.00  0.00    +0.134 A 
ATOM      3  C   UNL     1       5.987  -0.551  -4.452  0.00  0.00    +0.103 A 
ATOM      4  C   UNL     1       4.958  -0.200  -5.331  0.00  0.00    +0.080 A 
ATOM      5  N   UNL     1       3.862  -0.801  -4.946  0.00  0.00    -0.173 NA
ATOM      6  C   UNL     1       5.091   0.712  -6.524  0.00  0.00    +0.069 C 
ATOM      7 CL   UNL     1       7.636  -0.015  -4.543  0.00  0.00    -0.078 Cl
ENDROOT
BRANCH   2   8
ATOM      8  N   UNL     1       6.157  -1.968  -2.451  0.00  0.00    -0.342 N 
ATOM      9  H   UNL     1       5.693  -2.552  -1.832  0.00  0.00    +0.144 HD
ATOM     10  H   UNL     1       7.103  -1.786  -2.332  0.00  0.00    +0.144 HD
ENDBRANCH   2   8
BRANCH   1  11
ATOM     11  C   UNL     1       3.198  -2.374  -3.046  0.00  0.00    +0.139 C 
ATOM     12  C   UNL     1       2.627  -3.460  -3.960  0.00  0.00    +0.038 C 
BRANCH  11  15
ATOM     13  N   UNL     1       0.688  -0.476  -1.203  0.00  0.00    -0.271 N 
ATOM     14  C   UNL     1       1.740  -1.321  -1.239  0.00  0.00    +0.114 A 
ATOM     15  C   UNL     1       2.076  -1.506  -2.536  0.00  0.00    +0.014 A 
ATOM     16  C   UNL     1       1.200  -0.749  -3.321  0.00  0.00    +0.140 A 
ATOM     17  N   UNL     1       0.363  -0.136  -2.523  0.00  0.00    -0.179 NA
BRANCH  13  19
ATOM     18  C   UNL     1      -0.019   1.526   0.010  0.00  0.00    +0.029 C 
ATOM     19  C   UNL     1       0.002  -0.004   0.002  0.00  0.00    +0.140 C 
ENDBRANCH  13  19
ENDBRANCH  11  15
ENDBRANCH   1  11
TORSDOF 4
