REMARK  Name = ZINC26976671
REMARK  8 active torsions:
REMARK  status: ('A' for Active; 'I' for Inactive)
REMARK    1  A    between atoms: C_1  and  C_2
REMARK    2  A    between atoms: C_2  and  C_3
REMARK    3  A    between atoms: C_3  and  C_5
REMARK    4  A    between atoms: C_3  and  N_6
REMARK    5  A    between atoms: C_7  and  C_9
REMARK    6  A    between atoms: C_12  and  C_14
REMARK    7  A    between atoms: C_14  and  S_15
REMARK    8  A    between atoms: S_15  and  C_18
REMARK                            x       y       z     vdW  Elec       q    Type
REMARK                         _______ _______ _______ _____ _____    ______ ____
ROOT
ATOM      1  C   UNL     1       0.025  -2.075  -0.721  0.00  0.00    +0.189 A 
ATOM      2  C   UNL     1       0.038  -2.125   0.643  0.00  0.00    +0.055 A 
ATOM      3  C   UNL     1       0.029  -0.797   1.096  0.00  0.00    +0.047 A 
ATOM      4  C   UNL     1       0.002  -0.004   0.002  0.00  0.00    +0.127 A 
ATOM      5  O   UNL     1       0.003  -0.778  -1.091  0.00  0.00    -0.453 OA
ENDROOT
BRANCH   1   7
ATOM      6  N   UNL     1       0.018  -3.040  -2.960  0.00  0.00    -0.306 N 
ATOM      7  C   UNL     1       0.033  -3.229  -1.626  0.00  0.00    +0.280 C 
ATOM      8  O   UNL     1       0.053  -4.358  -1.172  0.00  0.00    -0.267 OA
ATOM      9  H   UNL     1      -0.001  -2.019  -3.370  0.00  0.00    +0.149 HD
BRANCH   6  10
ATOM     10  C   UNL     1       0.026  -4.193  -3.864  0.00  0.00    +0.070 C 
ATOM     11  C   UNL     1      -1.406  -4.692  -4.066  0.00  0.00    +0.028 C 
BRANCH  10  13
ATOM     12  C   UNL     1       2.087  -3.397  -5.030  0.00  0.00    +0.005 C 
ATOM     13  C   UNL     1       0.617  -3.779  -5.213  0.00  0.00    +0.018 C 
ENDBRANCH  10  13
ENDBRANCH   6  10
ENDBRANCH   1   7
BRANCH   4  14
ATOM     14  C   UNL     1      -0.018   1.503   0.010  0.00  0.00    +0.245 C 
BRANCH  14  15
ATOM     15  S   UNL     1       1.683   2.131  -0.003  0.00  0.00    +0.004 S 
ATOM     16  O   UNL     1       2.329   1.819   1.224  0.00  0.00    -0.169 OA
ATOM     17  O   UNL     1       2.306   1.833  -1.245  0.00  0.00    -0.169 OA
BRANCH  15  18
ATOM     18  C   UNL     1       1.519   3.885   0.008  0.00  0.00    +0.089 A 
ATOM     19  C   UNL     1       1.449   4.580  -1.184  0.00  0.00    +0.027 A 
ATOM     20  C   UNL     1       1.314   5.956  -1.176  0.00  0.00    +0.002 A 
ATOM     21  C   UNL     1       1.261   6.638   0.026  0.00  0.00    +0.000 A 
ATOM     22  C   UNL     1       1.337   5.943   1.218  0.00  0.00    +0.002 A 
ATOM     23  C   UNL     1       1.466   4.567   1.210  0.00  0.00    +0.027 A 
ENDBRANCH  15  18
ENDBRANCH  14  15
ENDBRANCH   4  14
TORSDOF 6
