REMARK  Name = ZINC63193886
REMARK  5 active torsions:
REMARK  status: ('A' for Active; 'I' for Inactive)
REMARK    1  A    between atoms: C_1  and  C_2
REMARK    2  A    between atoms: C_2  and  C_4
REMARK    3  A    between atoms: C_2  and  N_22
REMARK    4  A    between atoms: N_10  and  S_11
REMARK    5  A    between atoms: S_11  and  C_14
REMARK                            x       y       z     vdW  Elec       q    Type
REMARK                         _______ _______ _______ _____ _____    ______ ____
ROOT
ATOM      1  C   UNL     1       0.845  -1.352   1.969  0.00  0.00    +0.065 C 
ATOM      2  C   UNL     1       2.339  -1.030   2.077  0.00  0.00    +0.019 C 
ATOM      3  C   UNL     1       3.057  -2.189   2.773  0.00  0.00    +0.003 C 
ATOM      4  C   UNL     1       2.897  -3.464   1.942  0.00  0.00    +0.017 C 
ATOM      5  C   UNL     1       1.409  -3.813   1.833  0.00  0.00    +0.110 C 
ATOM      6  N   UNL     1       0.685  -2.651   1.300  0.00  0.00    -0.175 NA
ENDROOT
BRANCH   6   7
ATOM      7  S   UNL     1      -0.289  -2.800  -0.031  0.00  0.00    +0.061 S 
ATOM      8  O   UNL     1      -1.010  -4.014   0.127  0.00  0.00    -0.153 OA
ATOM      9  O   UNL     1      -0.936  -1.546  -0.203  0.00  0.00    -0.153 OA
BRANCH   7  10
ATOM     10  C   UNL     1       0.766  -3.018  -1.426  0.00  0.00    +0.108 A 
ATOM     11  C   UNL     1       0.898  -2.005  -2.357  0.00  0.00    +0.048 A 
ATOM     12  C   UNL     1       1.726  -2.175  -3.452  0.00  0.00    +0.044 A 
ATOM     13  C   UNL     1       2.420  -3.360  -3.616  0.00  0.00    +0.040 A 
ATOM     14  C   UNL     1       2.287  -4.374  -2.684  0.00  0.00    +0.044 A 
ATOM     15  C   UNL     1       1.464  -4.200  -1.586  0.00  0.00    +0.048 A 
ATOM     16 CL   UNL     1       3.158  -5.862  -2.889  0.00  0.00    -0.083 Cl
ATOM     17 CL   UNL     1       1.891  -0.903  -4.622  0.00  0.00    -0.083 Cl
ENDBRANCH   7  10
ENDBRANCH   6   7
BRANCH   1  19
ATOM     18  C   UNL     1       0.781  -0.178  -0.235  0.00  0.00    -0.013 C 
ATOM     19  C   UNL     1       0.143  -0.265   1.153  0.00  0.00    -0.059 C 
BRANCH  19  20
ATOM     20  N   UNL     1       0.282   1.027   1.837  0.00  0.00    +0.381 N 
ATOM     21  H   UNL     1      -0.254   1.727   1.347  0.00  0.00    -0.090 HD
ATOM     22  H   UNL     1      -0.058   0.945   2.784  0.00  0.00    -0.090 HD
ATOM     23  H   UNL     1       1.254   1.298   1.852  0.00  0.00    -0.090 HD
ENDBRANCH  19  20
ENDBRANCH   1  19
TORSDOF 4
