REMARK  Name = ZINC03026687
REMARK  5 active torsions:
REMARK  status: ('A' for Active; 'I' for Inactive)
REMARK    1  A    between atoms: C_1  and  N_2
REMARK    2  A    between atoms: N_2  and  C_3
REMARK    3  A    between atoms: N_2  and  C_4
REMARK    4  A    between atoms: C_7  and  C_10
REMARK    5  A    between atoms: N_15  and  C_18
REMARK                            x       y       z     vdW  Elec       q    Type
REMARK                         _______ _______ _______ _____ _____    ______ ____
ROOT
ATOM      1  C   UNL     1       1.382   4.320   0.081  0.00  0.00    +0.026 C 
ATOM      2  C   UNL     1       0.634   3.241  -0.343  0.00  0.00    +0.102 C 
ATOM      3  C   UNL     1       1.131   1.970  -0.906  0.00  0.00    +0.266 C 
ATOM      4  O   UNL     1       2.293   1.664  -1.089  0.00  0.00    -0.268 OA
ATOM      5  N   UNL     1       0.050   1.215  -1.178  0.00  0.00    -0.223 N 
ATOM      6  N   UNL     1      -1.121   1.895  -0.842  0.00  0.00    -0.184 N 
ATOM      7  C   UNL     1      -0.835   3.108  -0.333  0.00  0.00    +0.272 C 
ATOM      8  O   UNL     1      -1.635   3.937   0.057  0.00  0.00    -0.268 OA
ATOM      9  H   UNL     1       0.081   0.323  -1.558  0.00  0.00    +0.174 HD
ENDROOT
BRANCH   6  10
ATOM     10  C   UNL     1      -2.413   1.385  -1.008  0.00  0.00    +0.056 A 
ATOM     11  C   UNL     1      -3.514   2.145  -0.635  0.00  0.00    +0.026 A 
ATOM     12  C   UNL     1      -4.789   1.641  -0.804  0.00  0.00    +0.022 A 
ATOM     13  C   UNL     1      -4.970   0.376  -1.334  0.00  0.00    +0.041 A 
ATOM     14  C   UNL     1      -3.874  -0.386  -1.702  0.00  0.00    +0.022 A 
ATOM     15  C   UNL     1      -2.597   0.115  -1.540  0.00  0.00    +0.026 A 
ATOM     16 CL   UNL     1      -6.573  -0.257  -1.539  0.00  0.00    -0.084 Cl
ENDBRANCH   6  10
BRANCH   1  20
ATOM     17  C   UNL     1       5.591   4.016   0.307  0.00  0.00    +0.029 A 
ATOM     18  C   UNL     1       5.001   5.219  -0.080  0.00  0.00    +0.023 A 
ATOM     19  C   UNL     1       3.643   5.322  -0.154  0.00  0.00    +0.010 A 
ATOM     20  C   UNL     1       2.839   4.215   0.159  0.00  0.00    -0.024 A 
ATOM     21  C   UNL     1       3.438   3.008   0.553  0.00  0.00    +0.010 A 
ATOM     22  C   UNL     1       4.797   2.914   0.620  0.00  0.00    +0.023 A 
BRANCH  17  24
ATOM     23  C   UNL     1       7.814   5.029  -0.068  0.00  0.00    +0.129 C 
ATOM     24  N   UNL     1       6.974   3.917   0.382  0.00  0.00    -0.336 N 
ATOM     25  C   UNL     1       7.593   2.699   0.910  0.00  0.00    +0.129 C 
ENDBRANCH  17  24
ENDBRANCH   1  20
TORSDOF 3
