REMARK  Name = ZINC50654114
REMARK  4 active torsions:
REMARK  status: ('A' for Active; 'I' for Inactive)
REMARK    1  A    between atoms: C_1  and  N_2
REMARK    2  A    between atoms: C_4  and  S_10
REMARK    3  A    between atoms: S_10  and  N_13
REMARK    4  A    between atoms: N_13  and  C_14
REMARK                            x       y       z     vdW  Elec       q    Type
REMARK                         _______ _______ _______ _____ _____    ______ ____
ROOT
ATOM      1  S   UNL     1       0.369  -2.971  -0.005  0.00  0.00    +0.095 S 
ATOM      2  O   UNL     1       1.170  -2.390   1.015  0.00  0.00    -0.148 OA
ATOM      3  O   UNL     1       0.056  -4.356  -0.032  0.00  0.00    -0.148 OA
ENDROOT
BRANCH   1   7
ATOM      4  C   UNL     1      -0.018   1.461   0.010  0.00  0.00    +0.127 C 
ATOM      5  N   UNL     1       0.002  -0.004   0.002  0.00  0.00    -0.331 N 
ATOM      6  C   UNL     1      -1.192  -0.716   0.010  0.00  0.00    +0.145 A 
ATOM      7  C   UNL     1      -1.166  -2.107   0.008  0.00  0.00    +0.151 A 
ATOM      8  C   UNL     1      -2.362  -2.802   0.015  0.00  0.00    +0.049 A 
ATOM      9  C   UNL     1      -3.549  -2.080   0.025  0.00  0.00    +0.038 A 
ATOM     10  C   UNL     1      -3.500  -0.700   0.026  0.00  0.00    +0.128 A 
ATOM     11  N   UNL     1      -2.344  -0.063   0.024  0.00  0.00    -0.237 NA
ATOM     12 BR   UNL     1      -5.213  -2.978   0.035  0.00  0.00    -0.049 Br
ATOM     13  H   UNL     1       0.849  -0.478  -0.009  0.00  0.00    +0.147 HD
ENDBRANCH   1   7
BRANCH   1  14
ATOM     14  N   UNL     1       1.113  -2.626  -1.444  0.00  0.00    -0.095 NA
BRANCH  14  15
ATOM     15  C   UNL     1       2.364  -3.180  -1.735  0.00  0.00    +0.111 A 
ATOM     16  C   UNL     1       2.980  -4.024  -0.821  0.00  0.00    +0.049 A 
ATOM     17  C   UNL     1       4.217  -4.570  -1.112  0.00  0.00    +0.043 A 
ATOM     18  C   UNL     1       4.840  -4.277  -2.312  0.00  0.00    +0.023 A 
ATOM     19  C   UNL     1       4.229  -3.437  -3.225  0.00  0.00    +0.042 A 
ATOM     20  C   UNL     1       2.990  -2.892  -2.943  0.00  0.00    +0.148 A 
ATOM     21  F   UNL     1       2.390  -2.076  -3.838  0.00  0.00    -0.203 F 
ATOM     22 CL   UNL     1       4.989  -5.625   0.031  0.00  0.00    -0.083 Cl
ENDBRANCH  14  15
ENDBRANCH   1  14
TORSDOF 3
