REMARK  Name = ZINC15619332
REMARK  7 active torsions:
REMARK  status: ('A' for Active; 'I' for Inactive)
REMARK    1  A    between atoms: C_1  and  C_2
REMARK    2  A    between atoms: C_7  and  N_8
REMARK    3  A    between atoms: C_9  and  C_11
REMARK    4  A    between atoms: C_11  and  N_12
REMARK    5  A    between atoms: C_13  and  C_15
REMARK    6  A    between atoms: C_15  and  N_16
REMARK    7  A    between atoms: C_24  and  C_26
REMARK                            x       y       z     vdW  Elec       q    Type
REMARK                         _______ _______ _______ _____ _____    ______ ____
ROOT
ATOM      1  N   UNL     1      -4.228  -2.768   2.713  0.00  0.00    -0.305 N 
ATOM      2  C   UNL     1      -3.246  -1.895   2.415  0.00  0.00    +0.231 C 
ATOM      3  O   UNL     1      -2.330  -2.234   1.695  0.00  0.00    -0.274 OA
ATOM      4  H   UNL     1      -4.960  -2.497   3.289  0.00  0.00    +0.149 HD
ENDROOT
BRANCH   1   5
ATOM      5  C   UNL     1      -4.189  -4.128   2.168  0.00  0.00    +0.200 C 
BRANCH   5   7
ATOM      6  N   UNL     1      -5.570  -6.178   2.271  0.00  0.00    -0.284 N 
ATOM      7  C   UNL     1      -5.393  -4.896   2.649  0.00  0.00    +0.234 C 
ATOM      8  O   UNL     1      -6.204  -4.361   3.376  0.00  0.00    -0.274 OA
ATOM      9  H   UNL     1      -4.967  -6.581   1.627  0.00  0.00    +0.155 HD
BRANCH   6  16
ATOM     10  C   UNL     1      -6.570  -8.368   0.756  0.00  0.00    +0.046 C 
ATOM     11  C   UNL     1      -7.141  -8.004   2.102  0.00  0.00    -0.028 A 
ATOM     12  C   UNL     1      -8.176  -8.745   2.637  0.00  0.00    +0.020 A 
ATOM     13  C   UNL     1      -8.705  -8.408   3.870  0.00  0.00    +0.018 A 
ATOM     14  C   UNL     1      -8.194  -7.332   4.574  0.00  0.00    +0.017 A 
ATOM     15  C   UNL     1      -7.155  -6.591   4.046  0.00  0.00    +0.024 A 
ATOM     16  C   UNL     1      -6.623  -6.927   2.808  0.00  0.00    +0.036 A 
ATOM     17 BR   UNL     1     -10.127  -9.421   4.597  0.00  0.00    -0.050 Br
ENDBRANCH   6  16
ENDBRANCH   5   7
ENDBRANCH   1   5
BRANCH   2  18
ATOM     18  C   UNL     1      -3.285  -0.497   2.976  0.00  0.00    +0.213 C 
BRANCH  18  19
ATOM     19  N   UNL     1      -2.115   0.250   2.508  0.00  0.00    -0.215 N 
ATOM     20  C   UNL     1      -2.084   0.979   1.373  0.00  0.00    +0.247 C 
ATOM     21  O   UNL     1      -2.985   1.134   0.577  0.00  0.00    -0.273 OA
ATOM     22  C   UNL     1      -0.691   1.561   1.305  0.00  0.00    +0.115 C 
ATOM     23  C   UNL     1       0.029   1.068   0.054  0.00  0.00    +0.035 C 
ATOM     24  C   UNL     1      -0.700   1.579  -1.191  0.00  0.00    +0.003 C 
ATOM     25  C   UNL     1      -0.732   3.108  -1.170  0.00  0.00    +0.000 C 
ATOM     26  C   UNL     1      -1.476   3.588   0.078  0.00  0.00    +0.006 C 
ATOM     27  C   UNL     1      -0.749   3.084   1.328  0.00  0.00    +0.018 C 
ATOM     28  C   UNL     1      -1.503   3.546   2.577  0.00  0.00    +0.010 C 
ATOM     29  N   UNL     1      -0.032   1.052   2.514  0.00  0.00    -0.285 N 
ATOM     30  C   UNL     1      -0.943   0.295   3.154  0.00  0.00    +0.310 C 
ATOM     31  O   UNL     1      -0.726  -0.283   4.201  0.00  0.00    -0.252 OA
ATOM     32  H   UNL     1       0.880   1.226   2.796  0.00  0.00    +0.151 HD
ENDBRANCH  18  19
ENDBRANCH   2  18
TORSDOF 5
