REMARK  Name = ZINC66947411
REMARK  8 active torsions:
REMARK  status: ('A' for Active; 'I' for Inactive)
REMARK    1  A    between atoms: C_1  and  C_2
REMARK    2  A    between atoms: C_2  and  C_23
REMARK    3  A    between atoms: N_5  and  C_9
REMARK    4  A    between atoms: C_9  and  C_10
REMARK    5  A    between atoms: C_17  and  C_19
REMARK    6  A    between atoms: C_19  and  N_20
REMARK    7  A    between atoms: N_20  and  C_21
REMARK    8  A    between atoms: N_20  and  C_22
REMARK                            x       y       z     vdW  Elec       q    Type
REMARK                         _______ _______ _______ _____ _____    ______ ____
ROOT
ATOM      1  C   UNL     1       0.057   1.616   0.196  0.00  0.00    +0.047 C 
ATOM      2  C   UNL     1       0.008   0.092   0.074  0.00  0.00    +0.135 C 
ATOM      3  C   UNL     1       0.773  -0.371  -1.149  0.00  0.00    +0.251 C 
ATOM      4  O   UNL     1       0.539  -0.096  -2.307  0.00  0.00    -0.272 OA
ATOM      5  N   UNL     1       1.769  -1.151  -0.684  0.00  0.00    -0.215 N 
ATOM      6  C   UNL     1       1.739  -1.244   0.650  0.00  0.00    +0.310 C 
ATOM      7  O   UNL     1       2.536  -1.893   1.300  0.00  0.00    -0.252 OA
ATOM      8  N   UNL     1       0.729  -0.541   1.193  0.00  0.00    -0.281 N 
ATOM      9  H   UNL     1       0.516  -0.464   2.136  0.00  0.00    +0.152 HD
ENDROOT
BRANCH   2  10
ATOM     10  C   UNL     1      -1.420  -0.389   0.024  0.00  0.00    -0.015 A 
ATOM     11  C   UNL     1      -2.057  -0.534  -1.194  0.00  0.00    +0.009 A 
ATOM     12  C   UNL     1      -3.366  -0.975  -1.241  0.00  0.00    +0.039 A 
ATOM     13  C   UNL     1      -4.039  -1.272  -0.068  0.00  0.00    +0.123 A 
ATOM     14  C   UNL     1      -3.399  -1.127   1.152  0.00  0.00    +0.039 A 
ATOM     15  C   UNL     1      -2.088  -0.690   1.196  0.00  0.00    +0.009 A 
ATOM     16  F   UNL     1      -5.318  -1.703  -0.113  0.00  0.00    -0.205 F 
ENDBRANCH   2  10
BRANCH   5  17
ATOM     17  C   UNL     1       2.760  -1.814  -1.534  0.00  0.00    +0.213 C 
BRANCH  17  18
ATOM     18  C   UNL     1       3.946  -0.904  -1.727  0.00  0.00    +0.234 C 
ATOM     19  O   UNL     1       3.961   0.191  -1.207  0.00  0.00    -0.274 OA
ATOM     20  N   UNL     1       4.989  -1.308  -2.479  0.00  0.00    -0.299 N 
ATOM     21  C   UNL     1       5.035  -2.670  -3.027  0.00  0.00    +0.108 C 
ATOM     22  C   UNL     1       5.258  -2.586  -4.540  0.00  0.00    +0.019 C 
ATOM     23  C   UNL     1       6.511  -1.753  -4.821  0.00  0.00    +0.003 C 
ATOM     24  C   UNL     1       6.314  -0.334  -4.282  0.00  0.00    +0.021 C 
ATOM     25  C   UNL     1       6.100  -0.391  -2.771  0.00  0.00    +0.059 C 
BRANCH  25  26
ATOM     26  C   UNL     1       5.761   1.007  -2.251  0.00  0.00    -0.057 C 
BRANCH  26  27
ATOM     27  N   UNL     1       6.845   1.935  -2.599  0.00  0.00    +0.377 N 
ATOM     28  C   UNL     1       6.463   3.301  -2.217  0.00  0.00    -0.097 C 
ATOM     29  C   UNL     1       8.069   1.550  -1.883  0.00  0.00    -0.097 C 
ATOM     30  H   UNL     1       7.013   1.899  -3.594  0.00  0.00    -0.083 HD
ENDBRANCH  26  27
ENDBRANCH  25  26
ENDBRANCH  17  18
ENDBRANCH   5  17
TORSDOF 5
