REMARK  Name = ZINC49549920
REMARK  7 active torsions:
REMARK  status: ('A' for Active; 'I' for Inactive)
REMARK    1  A    between atoms: C_2  and  N_9
REMARK    2  A    between atoms: C_10  and  C_12
REMARK    3  A    between atoms: C_12  and  O_13
REMARK    4  A    between atoms: O_13  and  C_14
REMARK    5  A    between atoms: C_17  and  C_21
REMARK    6  A    between atoms: C_21  and  N_22
REMARK    7  A    between atoms: C_26  and  C_28
REMARK                            x       y       z     vdW  Elec       q    Type
REMARK                         _______ _______ _______ _____ _____    ______ ____
ROOT
ATOM      1  C   UNL     1       3.789   7.515   0.424  0.00  0.00    +0.202 A 
ATOM      2  C   UNL     1       2.713   8.331   0.461  0.00  0.00    +0.244 A 
ATOM      3  O   UNL     1       2.860   9.658   0.574  0.00  0.00    -0.466 OA
ATOM      4  C   UNL     1       4.065  10.234   0.656  0.00  0.00    +0.092 A 
ATOM      5  C   UNL     1       5.192   9.495   0.627  0.00  0.00    +0.094 A 
ATOM      6  C   UNL     1       5.088   8.086   0.514  0.00  0.00    +0.226 A 
ATOM      7  O   UNL     1       6.086   7.383   0.490  0.00  0.00    -0.284 OA
ENDROOT
BRANCH   1   8
ATOM      8  O   UNL     1       3.632   6.168   0.310  0.00  0.00    -0.476 OA
BRANCH   8   9
ATOM      9  C   UNL     1       2.293   5.675   0.225  0.00  0.00    +0.325 C 
BRANCH   9  11
ATOM     10  N   UNL     1       1.161   3.487   0.009  0.00  0.00    -0.283 N 
ATOM     11  C   UNL     1       2.317   4.173   0.104  0.00  0.00    +0.255 C 
ATOM     12  O   UNL     1       3.376   3.583   0.091  0.00  0.00    -0.272 OA
ATOM     13  H   UNL     1       0.318   3.962  -0.058  0.00  0.00    +0.155 HD
BRANCH  10  15
ATOM     14  C   UNL     1       2.132   1.402   0.746  0.00  0.00    +0.043 A 
ATOM     15  C   UNL     1       1.177   2.087   0.008  0.00  0.00    +0.036 A 
ATOM     16  C   UNL     1       0.236   1.382  -0.732  0.00  0.00    +0.043 A 
ATOM     17  C   UNL     1       0.254  -0.000  -0.731  0.00  0.00    +0.044 A 
ATOM     18  C   UNL     1       1.207  -0.681   0.006  0.00  0.00    +0.040 A 
ATOM     19  C   UNL     1       2.145   0.020   0.744  0.00  0.00    +0.044 A 
ATOM     20 CL   UNL     1       3.340  -0.838   1.666  0.00  0.00    -0.083 Cl
ATOM     21 CL   UNL     1      -0.921  -0.883  -1.655  0.00  0.00    -0.083 Cl
ENDBRANCH  10  15
ENDBRANCH   9  11
ENDBRANCH   8   9
ENDBRANCH   1   8
BRANCH   4  22
ATOM     22  C   UNL     1       4.163  11.733   0.782  0.00  0.00    -0.002 C 
BRANCH  22  23
ATOM     23  N   UNL     1       3.647  12.362  -0.441  0.00  0.00    +0.392 N 
ATOM     24  C   UNL     1       4.526  12.027  -1.582  0.00  0.00    -0.077 C 
ATOM     25  C   UNL     1       4.539  13.304  -2.459  0.00  0.00    -0.020 C 
ATOM     26  C   UNL     1       4.523  14.423  -1.385  0.00  0.00    -0.008 C 
ATOM     27  C   UNL     1       3.630  13.827  -0.276  0.00  0.00    +0.020 C 
ATOM     28  H   UNL     1       2.713  12.030  -0.626  0.00  0.00    -0.080 HD
BRANCH  27  29
ATOM     29  C   UNL     1       2.221  14.342  -0.420  0.00  0.00    +0.197 C 
ATOM     30  O   UNL     1       1.312  13.570  -0.640  0.00  0.00    -0.278 OA
ATOM     31  N   UNL     1       1.971  15.662  -0.306  0.00  0.00    -0.331 N 
ATOM     32  H   UNL     1       2.698  16.280  -0.130  0.00  0.00    +0.145 HD
ATOM     33  H   UNL     1       1.064  15.993  -0.399  0.00  0.00    +0.145 HD
ENDBRANCH  27  29
ENDBRANCH  22  23
ENDBRANCH   4  22
TORSDOF 7
