REMARK  Name = ZINC15959890
REMARK  6 active torsions:
REMARK  status: ('A' for Active; 'I' for Inactive)
REMARK    1  A    between atoms: C_1  and  C_2
REMARK    2  A    between atoms: C_2  and  C_4
REMARK    3  A    between atoms: C_2  and  O_35
REMARK    4  A    between atoms: N_12  and  C_15
REMARK    5  A    between atoms: C_15  and  C_16
REMARK    6  A    between atoms: C_16  and  C_17
REMARK                            x       y       z     vdW  Elec       q    Type
REMARK                         _______ _______ _______ _____ _____    ______ ____
ROOT
ATOM      1  C   UNL     1       0.718  -0.497  -1.257  0.00  0.00    +0.096 C 
ATOM      2  C   UNL     1       0.784  -2.040  -1.267  0.00  0.00    +0.109 C 
ATOM      3  C   UNL     1       2.175  -2.373  -1.877  0.00  0.00    +0.122 C 
ATOM      4  C   UNL     1       1.829  -3.047  -3.186  0.00  0.00    +0.228 C 
ATOM      5  O   UNL     1       2.632  -3.469  -3.990  0.00  0.00    -0.275 OA
ATOM      6  N   UNL     1       0.498  -3.105  -3.318  0.00  0.00    -0.241 N 
ATOM      7  C   UNL     1      -0.197  -2.571  -2.287  0.00  0.00    +0.227 C 
ATOM      8  O   UNL     1      -1.405  -2.521  -2.190  0.00  0.00    -0.275 OA
ATOM      9  C   UNL     1       2.823  -1.008  -2.135  0.00  0.00    +0.136 C 
ATOM     10  N   UNL     1       2.137  -0.052  -1.253  0.00  0.00    -0.293 NA
ATOM     11  C   UNL     1       4.304  -1.046  -1.885  0.00  0.00    +0.005 A 
ATOM     12  C   UNL     1       5.072  -1.350  -0.782  0.00  0.00    +0.008 A 
ATOM     13  C   UNL     1       6.452  -1.293  -0.863  0.00  0.00    +0.002 A 
ATOM     14  C   UNL     1       7.058  -0.930  -2.051  0.00  0.00    +0.022 A 
ATOM     15  C   UNL     1       6.293  -0.624  -3.159  0.00  0.00    +0.062 A 
ATOM     16  C   UNL     1       4.902  -0.680  -3.087  0.00  0.00    +0.057 A 
ATOM     17  N   UNL     1       3.926  -0.421  -4.053  0.00  0.00    -0.282 N 
ATOM     18  C   UNL     1       2.679  -0.593  -3.573  0.00  0.00    +0.243 C 
ATOM     19  O   UNL     1       1.642  -0.442  -4.183  0.00  0.00    -0.273 OA
ATOM     20 CL   UNL     1       7.065  -0.168  -4.645  0.00  0.00    -0.082 Cl
ATOM     21  H   UNL     1       2.221   0.892  -1.598  0.00  0.00    +0.124 HD
ATOM     22  H   UNL     1       4.124  -0.150  -4.963  0.00  0.00    +0.155 HD
ENDROOT
BRANCH   1  24
ATOM     23  C   UNL     1      -0.019   1.526   0.010  0.00  0.00    +0.039 C 
ATOM     24  C   UNL     1       0.002  -0.004   0.002  0.00  0.00    +0.129 C 
BRANCH  24  25
ATOM     25  O   UNL     1       0.693  -0.477   1.160  0.00  0.00    -0.390 OA
ATOM     26  H   UNL     1       0.294  -0.202   1.996  0.00  0.00    +0.210 HD
ENDBRANCH  24  25
ENDBRANCH   1  24
BRANCH   6  27
ATOM     27  C   UNL     1      -0.156  -3.704  -4.483  0.00  0.00    +0.121 C 
BRANCH  27  28
ATOM     28  C   UNL     1      -0.394  -5.193  -4.225  0.00  0.00    +0.054 C 
BRANCH  28  29
ATOM     29  C   UNL     1      -1.067  -5.810  -5.424  0.00  0.00    -0.046 A 
ATOM     30  C   UNL     1      -2.447  -5.835  -5.505  0.00  0.00    +0.004 A 
ATOM     31  C   UNL     1      -3.065  -6.400  -6.604  0.00  0.00    +0.000 A 
ATOM     32  C   UNL     1      -2.303  -6.941  -7.624  0.00  0.00    +0.000 A 
ATOM     33  C   UNL     1      -0.923  -6.915  -7.543  0.00  0.00    +0.000 A 
ATOM     34  C   UNL     1      -0.305  -6.346  -6.445  0.00  0.00    +0.004 A 
ENDBRANCH  28  29
ENDBRANCH  27  28
ENDBRANCH   6  27
TORSDOF 5
