REMARK  Name = ZINC40322820
REMARK  6 active torsions:
REMARK  status: ('A' for Active; 'I' for Inactive)
REMARK    1  A    between atoms: C_1  and  C_2
REMARK    2  A    between atoms: C_2  and  C_4
REMARK    3  A    between atoms: C_2  and  N_11
REMARK    4  A    between atoms: N_11  and  S_12
REMARK    5  A    between atoms: S_12  and  C_15
REMARK    6  A    between atoms: C_20  and  N_21
REMARK                            x       y       z     vdW  Elec       q    Type
REMARK                         _______ _______ _______ _____ _____    ______ ____
ROOT
ATOM      1  S   UNL     1      -2.188  -0.795  -1.433  0.00  0.00    +0.061 S 
ATOM      2  O   UNL     1      -3.545  -1.156  -1.214  0.00  0.00    -0.153 OA
ATOM      3  O   UNL     1      -1.817   0.338  -2.207  0.00  0.00    -0.153 OA
ENDROOT
BRANCH   1   4
ATOM      4  C   UNL     1      -1.411  -2.190  -2.177  0.00  0.00    +0.127 A 
ATOM      5  C   UNL     1      -0.650  -2.030  -3.320  0.00  0.00    +0.050 A 
ATOM      6  C   UNL     1      -0.038  -3.124  -3.904  0.00  0.00    +0.043 A 
ATOM      7  C   UNL     1      -0.187  -4.383  -3.347  0.00  0.00    +0.022 A 
ATOM      8  C   UNL     1      -0.946  -4.548  -2.205  0.00  0.00    +0.026 A 
ATOM      9  C   UNL     1      -1.556  -3.450  -1.613  0.00  0.00    +0.051 A 
ATOM     10 CL   UNL     1       0.916  -2.920  -5.339  0.00  0.00    -0.083 Cl
BRANCH   9  11
ATOM     11  N   UNL     1      -2.320  -3.614  -0.454  0.00  0.00    -0.356 N 
ATOM     12  H   UNL     1      -2.681  -2.838   0.003  0.00  0.00    +0.142 HD
ATOM     13  H   UNL     1      -2.490  -4.504  -0.107  0.00  0.00    +0.142 HD
ENDBRANCH   9  11
ENDBRANCH   1   4
BRANCH   1  14
ATOM     14  N   UNL     1      -1.505  -0.592   0.061  0.00  0.00    -0.183 NA
ATOM     15  H   UNL     1      -2.043  -0.704   0.860  0.00  0.00    +0.149 HD
BRANCH  14  17
ATOM     16  C   UNL     1       0.055   1.272   0.329  0.00  0.00    +0.031 C 
ATOM     17  C   UNL     1      -0.087  -0.243   0.177  0.00  0.00    +0.103 C 
BRANCH  17  18
ATOM     18  C   UNL     1       0.502  -0.926   1.384  0.00  0.00    -0.029 A 
ATOM     19  C   UNL     1      -0.231  -1.015   2.554  0.00  0.00    +0.006 A 
ATOM     20  C   UNL     1       0.308  -1.641   3.661  0.00  0.00    +0.020 A 
ATOM     21  C   UNL     1       1.581  -2.179   3.600  0.00  0.00    +0.041 A 
ATOM     22  C   UNL     1       2.314  -2.090   2.430  0.00  0.00    +0.020 A 
ATOM     23  C   UNL     1       1.772  -1.469   1.321  0.00  0.00    +0.006 A 
ATOM     24 CL   UNL     1       2.260  -2.965   4.992  0.00  0.00    -0.084 Cl
ENDBRANCH  17  18
ENDBRANCH  14  17
ENDBRANCH   1  14
TORSDOF 5
