REMARK  Name = ZINC25092611
REMARK  11 active torsions:
REMARK  status: ('A' for Active; 'I' for Inactive)
REMARK    1  A    between atoms: C_1  and  C_2
REMARK    2  A    between atoms: C_3  and  C_15
REMARK    3  A    between atoms: C_4  and  C_14
REMARK    4  A    between atoms: C_8  and  C_11
REMARK    5  A    between atoms: C_15  and  C_16
REMARK    6  A    between atoms: C_16  and  C_17
REMARK    7  A    between atoms: N_19  and  C_20
REMARK    8  A    between atoms: C_26  and  C_28
REMARK    9  A    between atoms: C_28  and  C_29
REMARK   10  A    between atoms: C_28  and  C_30
REMARK   11  A    between atoms: C_28  and  C_31
REMARK                            x       y       z     vdW  Elec       q    Type
REMARK                         _______ _______ _______ _____ _____    ______ ____
ROOT
ATOM      1  C   UNL     1      -1.816   6.376   3.095  0.00  0.00    +0.066 C 
ATOM      2  C   UNL     1      -0.979   6.609   4.326  0.00  0.00    +0.045 A 
ATOM      3  C   UNL     1       0.343   6.143   4.370  0.00  0.00    -0.006 A 
ATOM      4  C   UNL     1       1.091   6.362   5.480  0.00  0.00    +0.028 A 
ATOM      5  N   UNL     1       0.535   7.030   6.534  0.00  0.00    -0.287 N 
ATOM      6  C   UNL     1       1.012   7.396   7.755  0.00  0.00    +0.206 A 
ATOM      7  N   UNL     1       0.086   8.025   8.418  0.00  0.00    -0.229 NA
ATOM      8  C   UNL     1      -1.036   8.102   7.671  0.00  0.00    +0.169 A 
ATOM      9  C   UNL     1      -0.765   7.465   6.453  0.00  0.00    +0.170 A 
ATOM     10  N   UNL     1      -1.491   7.244   5.356  0.00  0.00    -0.232 NA
ATOM     11  C   UNL     1       2.516   5.877   5.549  0.00  0.00    +0.064 C 
ENDROOT
BRANCH   8  12
ATOM     12  C   UNL     1      -2.298   8.732   8.061  0.00  0.00    +0.264 C 
ATOM     13  O   UNL     1      -3.241   8.733   7.290  0.00  0.00    -0.269 OA
ATOM     14  N   UNL     1      -2.417   9.310   9.272  0.00  0.00    -0.324 N 
ATOM     15  H   UNL     1      -3.366   9.783   9.565  0.00  0.00    +0.145 HD
ATOM     16  H   UNL     1      -1.565   9.308   9.969  0.00  0.00    +0.145 HD
ENDBRANCH   8  12
BRANCH   3  17
ATOM     17  C   UNL     1       0.929   5.410   3.191  0.00  0.00    +0.048 C 
BRANCH  17  18
ATOM     18  C   UNL     1       0.674   3.909   3.345  0.00  0.00    +0.100 C 
BRANCH  18  19
ATOM     19  C   UNL     1       1.260   3.176   2.166  0.00  0.00    +0.214 C 
ATOM     20  O   UNL     1       1.827   3.794   1.289  0.00  0.00    -0.276 OA
ATOM     21  N   UNL     1       1.155   1.835   2.087  0.00  0.00    -0.312 N 
ATOM     22  H   UNL     1       0.642   1.276   2.882  0.00  0.00    +0.149 HD
BRANCH  21  23
ATOM     23  C   UNL     1       1.725   1.123   0.941  0.00  0.00    +0.077 C 
ATOM     24  C   UNL     1       0.678   1.023  -0.170  0.00  0.00    +0.022 C 
ATOM     25  C   UNL     1      -0.544   0.262   0.347  0.00  0.00    +0.002 C 
ATOM     26  C   UNL     1      -0.123  -1.145   0.779  0.00  0.00    +0.000 C 
ATOM     27  C   UNL     1       0.924  -1.045   1.890  0.00  0.00    +0.006 C 
ATOM     28  C   UNL     1       2.146  -0.284   1.372  0.00  0.00    +0.015 C 
BRANCH  28  29
ATOM     29  C   UNL     1       3.193  -0.184   2.483  0.00  0.00    -0.033 C 
ATOM     30  C   UNL     1       3.724  -1.581   2.810  0.00  0.00    +0.011 C 
ATOM     31  C   UNL     1       4.348   0.704   2.017  0.00  0.00    +0.011 C 
ATOM     32  C   UNL     1       2.554   0.424   3.733  0.00  0.00    +0.011 C 
ENDBRANCH  28  29
ENDBRANCH  21  23
ENDBRANCH  18  19
ENDBRANCH  17  18
ENDBRANCH   3  17
TORSDOF 6
