REMARK  Name = ZINC18117121
REMARK  5 active torsions:
REMARK  status: ('A' for Active; 'I' for Inactive)
REMARK    1  A    between atoms: C_10  and  C_11
REMARK    2  A    between atoms: N_12  and  N_13
REMARK    3  A    between atoms: C_18  and  C_21
REMARK    4  A    between atoms: C_21  and  C_22
REMARK    5  A    between atoms: C_27  and  N_28
REMARK                            x       y       z     vdW  Elec       q    Type
REMARK                         _______ _______ _______ _____ _____    ______ ____
ROOT
ATOM      1  N   UNL     1       6.270   2.023  -0.004  0.00  0.00    -0.127 NA
ATOM      2  C   UNL     1       6.200   3.330  -0.153  0.00  0.00    +0.183 C 
ATOM      3  N   UNL     1       7.237   4.228  -0.288  0.00  0.00    -0.263 N 
ATOM      4  C   UNL     1       7.039   5.527  -0.432  0.00  0.00    +0.232 C 
ATOM      5  O   UNL     1       7.957   6.310  -0.550  0.00  0.00    -0.274 OA
ATOM      6  C   UNL     1       5.586   5.976  -0.442  0.00  0.00    +0.144 C 
ATOM      7  S   UNL     1       4.739   4.355  -0.237  0.00  0.00    -0.075 S 
ATOM      8  H   UNL     1       8.148   3.893  -0.276  0.00  0.00    +0.157 HD
ENDROOT
BRANCH   1  10
ATOM      9  C   UNL     1       5.257   0.030   0.251  0.00  0.00    +0.143 C 
ATOM     10  N   UNL     1       5.188   1.328   0.103  0.00  0.00    -0.155 NA
BRANCH   9  20
ATOM     11  C   UNL     1       0.219   1.074   0.594  0.00  0.00    +0.001 A 
ATOM     12  C   UNL     1       1.363   1.859   0.480  0.00  0.00    +0.001 A 
ATOM     13  C   UNL     1       2.599   1.289   0.407  0.00  0.00    +0.009 A 
ATOM     14  C   UNL     1       2.722  -0.104   0.447  0.00  0.00    -0.009 A 
ATOM     15  C   UNL     1       1.560  -0.906   0.562  0.00  0.00    -0.017 A 
ATOM     16  C   UNL     1       0.301  -0.284   0.635  0.00  0.00    +0.008 A 
ATOM     17  C   UNL     1       1.687  -2.305   0.603  0.00  0.00    +0.008 A 
ATOM     18  C   UNL     1       2.912  -2.894   0.533  0.00  0.00    +0.001 A 
ATOM     19  C   UNL     1       4.077  -2.151   0.419  0.00  0.00    +0.010 A 
ATOM     20  C   UNL     1       4.027  -0.760   0.372  0.00  0.00    +0.002 A 
ENDBRANCH   9  20
ENDBRANCH   1  10
BRANCH   6  21
ATOM     21  C   UNL     1       5.289   6.916   0.729  0.00  0.00    +0.061 C 
BRANCH  21  22
ATOM     22  C   UNL     1       3.873   7.418   0.623  0.00  0.00    -0.016 A 
ATOM     23  C   UNL     1       2.886   6.881   1.429  0.00  0.00    +0.006 A 
ATOM     24  C   UNL     1       1.587   7.341   1.332  0.00  0.00    +0.000 A 
ATOM     25  C   UNL     1       1.273   8.340   0.429  0.00  0.00    +0.002 A 
ATOM     26  C   UNL     1       2.259   8.878  -0.377  0.00  0.00    +0.033 A 
ATOM     27  C   UNL     1       3.560   8.420  -0.276  0.00  0.00    +0.129 A 
BRANCH  27  28
ATOM     28  N   UNL     1       4.617   9.000  -1.135  0.00  0.00    +0.057 N 
ATOM     29  O   UNL     1       4.327   9.802  -1.993  0.00  0.00    -0.126 OA
ATOM     30  O   UNL     1       5.770   8.672  -0.980  0.00  0.00    -0.126 OA
ENDBRANCH  27  28
ENDBRANCH  21  22
ENDBRANCH   6  21
TORSDOF 5
