REMARK  Name = ZINC54444421
REMARK  5 active torsions:
REMARK  status: ('A' for Active; 'I' for Inactive)
REMARK    1  A    between atoms: C_5  and  C_7
REMARK    2  A    between atoms: C_10  and  S_13
REMARK    3  A    between atoms: S_13  and  C_14
REMARK    4  A    between atoms: C_14  and  C_15
REMARK    5  A    between atoms: C_17  and  N_20
REMARK                            x       y       z     vdW  Elec       q    Type
REMARK                         _______ _______ _______ _____ _____    ______ ____
ROOT
ATOM      1  C   UNL     1       1.246  -2.166  -0.022  0.00  0.00    +0.183 A 
ATOM      2  N   UNL     1       0.169  -2.965  -0.015  0.00  0.00    -0.201 NA
ATOM      3  H   UNL     1       2.468  -5.037  -0.052  0.00  0.00    +0.191 HD
ATOM      4  C   UNL     1       0.552  -4.223  -0.027  0.00  0.00    +0.185 A 
ATOM      5  N   UNL     1       1.903  -4.249  -0.041  0.00  0.00    -0.253 N 
ATOM      6  N   UNL     1       2.328  -2.910  -0.043  0.00  0.00    -0.152 NA
ENDROOT
BRANCH   1  11
ATOM      7  C   UNL     1      -0.017   1.376   0.010  0.00  0.00    +0.001 A 
ATOM      8  C   UNL     1       1.170   2.087   0.002  0.00  0.00    +0.001 A 
ATOM      9  C   UNL     1       2.382   1.420  -0.013  0.00  0.00    +0.016 A 
ATOM     10  C   UNL     1       2.413   0.039  -0.021  0.00  0.00    +0.029 A 
ATOM     11  C   UNL     1       1.220  -0.682  -0.013  0.00  0.00    +0.035 A 
ATOM     12  C   UNL     1       0.002  -0.004   0.002  0.00  0.00    +0.013 A 
ATOM     13 BR   UNL     1       4.070  -0.871  -0.043  0.00  0.00    -0.050 Br
ENDBRANCH   1  11
BRANCH   4  14
ATOM     14  S   UNL     1      -0.511  -5.628  -0.024  0.00  0.00    -0.082 S 
BRANCH  14  15
ATOM     15  C   UNL     1      -2.179  -4.917  -0.003  0.00  0.00    +0.113 C 
BRANCH  15  16
ATOM     16  C   UNL     1      -3.199  -6.027   0.002  0.00  0.00    -0.028 A 
ATOM     17  C   UNL     1      -3.681  -6.540  -1.187  0.00  0.00    +0.045 A 
ATOM     18  C   UNL     1      -4.597  -7.539  -1.148  0.00  0.00    +0.164 A 
ATOM     19  S   UNL     1      -4.803  -7.782   0.608  0.00  0.00    -0.073 S 
ATOM     20  C   UNL     1      -3.651  -6.540   1.172  0.00  0.00    +0.052 A 
BRANCH  18  21
ATOM     21  N   UNL     1      -5.256  -8.244  -2.271  0.00  0.00    +0.063 N 
ATOM     22  O   UNL     1      -4.992  -7.944  -3.412  0.00  0.00    -0.126 OA
ATOM     23  O   UNL     1      -6.058  -9.121  -2.047  0.00  0.00    -0.126 OA
ENDBRANCH  18  21
ENDBRANCH  15  16
ENDBRANCH  14  15
ENDBRANCH   4  14
TORSDOF 5
