REMARK  Name = ZINC40400533
REMARK  5 active torsions:
REMARK  status: ('A' for Active; 'I' for Inactive)
REMARK    1  A    between atoms: C_1  and  C_2
REMARK    2  A    between atoms: C_5  and  N_8
REMARK    3  A    between atoms: C_21  and  C_23
REMARK    4  A    between atoms: N_25  and  C_26
REMARK    5  A    between atoms: C_29  and  C_33
REMARK                            x       y       z     vdW  Elec       q    Type
REMARK                         _______ _______ _______ _____ _____    ______ ____
ROOT
ATOM      1  N   UNL     1       0.042  -3.966   0.097  0.00  0.00    -0.285 N 
ATOM      2  C   UNL     1       0.164  -4.695   1.251  0.00  0.00    +0.202 A 
ATOM      3  N   UNL     1       0.279  -6.050   1.173  0.00  0.00    -0.295 N 
ATOM      4  H   UNL     1       0.286  -6.486   0.307  0.00  0.00    +0.172 HD
ATOM      5  C   UNL     1       0.382  -6.785   2.301  0.00  0.00    +0.258 A 
ATOM      6  O   UNL     1       0.469  -8.002   2.245  0.00  0.00    -0.267 OA
ATOM      7  C   UNL     1       0.387  -6.125   3.533  0.00  0.00    +0.069 A 
ATOM      8  C   UNL     1       0.288  -4.745   3.559  0.00  0.00    +0.138 A 
ATOM      9  N   UNL     1       0.172  -4.070   2.409  0.00  0.00    -0.200 NA
ATOM     10  N   UNL     1       0.334  -4.065   4.763  0.00  0.00    -0.270 N 
ATOM     11  C   UNL     1       0.731  -4.681   5.890  0.00  0.00    +0.219 C 
ATOM     12  O   UNL     1       0.660  -4.095   6.949  0.00  0.00    -0.275 OA
ATOM     13  C   UNL     1       1.262  -6.089   5.853  0.00  0.00    +0.114 C 
ATOM     14  C   UNL     1       0.488  -6.905   4.816  0.00  0.00    +0.122 C 
ATOM     15  H   UNL     1      -0.043  -4.419  -0.757  0.00  0.00    +0.155 HD
ATOM     16  H   UNL     1       0.077  -3.130   4.795  0.00  0.00    +0.156 HD
ENDROOT
BRANCH   1  21
ATOM     17  C   UNL     1       0.034   1.703   0.311  0.00  0.00    +0.044 C 
ATOM     18  C   UNL     1       0.036   0.197   0.254  0.00  0.00    -0.050 A 
ATOM     19  C   UNL     1       0.799  -0.526   1.152  0.00  0.00    +0.005 A 
ATOM     20  C   UNL     1       0.803  -1.907   1.103  0.00  0.00    +0.023 A 
ATOM     21  C   UNL     1       0.039  -2.568   0.150  0.00  0.00    +0.034 A 
ATOM     22  C   UNL     1      -0.726  -1.839  -0.751  0.00  0.00    +0.023 A 
ATOM     23  C   UNL     1      -0.730  -0.459  -0.693  0.00  0.00    +0.005 A 
ENDBRANCH   1  21
BRANCH  14  24
ATOM     24  C   UNL     1      -0.896  -7.195   5.337  0.00  0.00    +0.225 C 
ATOM     25  O   UNL     1      -1.869  -6.806   4.726  0.00  0.00    -0.275 OA
ATOM     26  N   UNL     1      -1.054  -7.888   6.483  0.00  0.00    -0.284 N 
ATOM     27  H   UNL     1      -0.278  -8.140   7.008  0.00  0.00    +0.155 HD
BRANCH  26  28
ATOM     28  C   UNL     1      -2.337  -8.243   6.915  0.00  0.00    +0.052 A 
ATOM     29  C   UNL     1      -3.416  -7.408   6.653  0.00  0.00    +0.025 A 
ATOM     30  C   UNL     1      -4.681  -7.761   7.080  0.00  0.00    +0.005 A 
ATOM     31  C   UNL     1      -4.874  -8.944   7.770  0.00  0.00    -0.049 A 
ATOM     32  C   UNL     1      -3.803  -9.778   8.033  0.00  0.00    +0.025 A 
ATOM     33  C   UNL     1      -2.536  -9.434   7.603  0.00  0.00    +0.062 A 
ATOM     34 CL   UNL     1      -1.192 -10.484   7.928  0.00  0.00    -0.082 Cl
ATOM     35  C   UNL     1      -6.256  -9.326   8.235  0.00  0.00    +0.044 C 
ENDBRANCH  26  28
ENDBRANCH  14  24
TORSDOF 3
