REMARK  Name = ZINC60143259
REMARK  14 active torsions:
REMARK  status: ('A' for Active; 'I' for Inactive)
REMARK    1  A    between atoms: C_1  and  C_2
REMARK    2  A    between atoms: N_5  and  C_8
REMARK    3  A    between atoms: C_8  and  C_9
REMARK    4  A    between atoms: C_9  and  C_10
REMARK    5  A    between atoms: C_10  and  N_11
REMARK    6  A    between atoms: C_12  and  C_14
REMARK    7  A    between atoms: C_14  and  C_15
REMARK    8  A    between atoms: C_14  and  C_16
REMARK    9  A    between atoms: C_14  and  N_17
REMARK   10  A    between atoms: C_18  and  O_20
REMARK   11  A    between atoms: O_20  and  C_21
REMARK   12  A    between atoms: C_21  and  C_22
REMARK   13  A    between atoms: C_21  and  C_23
REMARK   14  A    between atoms: C_21  and  C_24
REMARK                            x       y       z     vdW  Elec       q    Type
REMARK                         _______ _______ _______ _____ _____    ______ ____
ROOT
ATOM      1  N   UNL     1       3.577  -6.276   2.265  0.00  0.00    -0.314 N 
ATOM      2  C   UNL     1       3.852  -7.581   2.458  0.00  0.00    +0.236 C 
ATOM      3  O   UNL     1       3.403  -8.414   1.700  0.00  0.00    -0.273 OA
ATOM      4  H   UNL     1       3.936  -5.609   2.871  0.00  0.00    +0.149 HD
ENDROOT
BRANCH   2   5
ATOM      5  C   UNL     1       4.716  -8.005   3.617  0.00  0.00    +0.108 C 
ATOM      6  C   UNL     1       3.852  -8.152   4.871  0.00  0.00    +0.041 C 
ATOM      7  C   UNL     1       5.380  -9.346   3.295  0.00  0.00    +0.041 C 
BRANCH   5   8
ATOM      8  N   UNL     1       5.749  -6.993   3.852  0.00  0.00    -0.268 N 
ATOM      9  C   UNL     1       6.644  -7.161   4.846  0.00  0.00    +0.402 C 
ATOM     10  O   UNL     1       6.594  -8.152   5.547  0.00  0.00    -0.226 OA
ATOM     11  H   UNL     1       5.790  -6.202   3.292  0.00  0.00    +0.153 HD
BRANCH   9  12
ATOM     12  O   UNL     1       7.593  -6.231   5.061  0.00  0.00    -0.445 OA
BRANCH  12  13
ATOM     13  C   UNL     1       8.508  -6.474   6.131  0.00  0.00    +0.107 C 
ATOM     14  C   UNL     1       9.263  -7.780   5.871  0.00  0.00    +0.055 C 
ATOM     15  C   UNL     1       9.506  -5.318   6.222  0.00  0.00    +0.055 C 
ATOM     16  C   UNL     1       7.736  -6.586   7.447  0.00  0.00    +0.055 C 
ENDBRANCH  12  13
ENDBRANCH   9  12
ENDBRANCH   5   8
ENDBRANCH   2   5
BRANCH   1  17
ATOM     17  C   UNL     1       2.736  -5.863   1.138  0.00  0.00    +0.102 C 
BRANCH  17  18
ATOM     18  C   UNL     1       2.582  -4.341   1.147  0.00  0.00    +0.000 C 
BRANCH  18  19
ATOM     19  C   UNL     1       1.704  -3.911  -0.029  0.00  0.00    -0.077 C 
BRANCH  19  24
ATOM     20  C   UNL     1      -0.019   1.526   0.010  0.00  0.00    +0.007 C 
ATOM     21  C   UNL     1       0.002  -0.004   0.002  0.00  0.00    -0.018 C 
ATOM     22  C   UNL     1       0.727  -0.499  -1.252  0.00  0.00    -0.016 C 
ATOM     23  C   UNL     1       0.814  -2.027  -1.215  0.00  0.00    -0.079 C 
ATOM     24  N   UNL     1       1.556  -2.449  -0.021  0.00  0.00    +0.380 N 
ATOM     25  C   UNL     1       0.829  -2.040   1.187  0.00  0.00    -0.079 C 
ATOM     26  C   UNL     1       0.743  -0.513   1.242  0.00  0.00    -0.016 C 
ATOM     27  H   UNL     1       2.469  -2.020  -0.024  0.00  0.00    -0.082 HD
ENDBRANCH  19  24
ENDBRANCH  18  19
ENDBRANCH  17  18
ENDBRANCH   1  17
TORSDOF 8
