REMARK  Name = ZINC17098727
REMARK  8 active torsions:
REMARK  status: ('A' for Active; 'I' for Inactive)
REMARK    1  A    between atoms: C_1  and  C_2
REMARK    2  A    between atoms: C_2  and  O_3
REMARK    3  A    between atoms: O_3  and  C_4
REMARK    4  A    between atoms: C_4  and  C_6
REMARK    5  A    between atoms: C_6  and  N_7
REMARK    6  A    between atoms: N_15  and  N_16
REMARK    7  A    between atoms: C_17  and  C_19
REMARK    8  A    between atoms: C_23  and  C_24
REMARK                            x       y       z     vdW  Elec       q    Type
REMARK                         _______ _______ _______ _____ _____    ______ ____
ROOT
ATOM      1  N   UNL     1       1.443  -3.845   2.351  0.00  0.00    -0.255 N 
ATOM      2  C   UNL     1       0.608  -4.642   3.126  0.00  0.00    +0.047 A 
ATOM      3  C   UNL     1      -0.436  -4.322   3.988  0.00  0.00    +0.025 A 
ATOM      4  C   UNL     1      -1.119  -5.322   4.651  0.00  0.00    +0.017 A 
ATOM      5  C   UNL     1      -0.776  -6.652   4.467  0.00  0.00    +0.019 A 
ATOM      6  C   UNL     1       0.258  -6.988   3.615  0.00  0.00    +0.027 A 
ATOM      7  C   UNL     1       0.951  -5.987   2.943  0.00  0.00    +0.029 A 
ATOM      8  C   UNL     1       2.080  -6.004   1.984  0.00  0.00    +0.153 C 
ATOM      9  N   UNL     1       2.721  -7.051   1.523  0.00  0.00    -0.174 NA
ATOM     10  C   UNL     1       2.322  -4.585   1.655  0.00  0.00    +0.272 C 
ATOM     11  O   UNL     1       3.170  -4.161   0.892  0.00  0.00    -0.268 OA
ATOM     12 BR   UNL     1      -1.724  -8.007   5.383  0.00  0.00    -0.050 Br
ENDROOT
BRANCH   9  13
ATOM     13  N   UNL     1       2.270  -8.341   1.833  0.00  0.00    -0.202 N 
ATOM     14  C   UNL     1       2.995  -9.415   1.464  0.00  0.00    +0.267 C 
ATOM     15  O   UNL     1       4.040  -9.265   0.861  0.00  0.00    -0.268 OA
ATOM     16  H   UNL     1       1.436  -8.460   2.314  0.00  0.00    +0.178 HD
BRANCH  14  17
ATOM     17  C   UNL     1       2.521 -10.771   1.790  0.00  0.00    +0.079 A 
ATOM     18  C   UNL     1       1.286 -11.134   2.501  0.00  0.00    +0.054 A 
ATOM     19  C   UNL     1       1.277 -12.474   2.564  0.00  0.00    +0.196 A 
ATOM     20  O   UNL     1       2.379 -12.950   1.963  0.00  0.00    -0.467 OA
ATOM     21  C   UNL     1       3.133 -11.954   1.489  0.00  0.00    +0.114 A 
ATOM     22  C   UNL     1       4.438 -12.109   0.751  0.00  0.00    +0.087 C 
ENDBRANCH  14  17
ENDBRANCH   9  13
BRANCH   1  23
ATOM     23  C   UNL     1       1.369  -2.382   2.295  0.00  0.00    +0.234 C 
BRANCH  23  24
ATOM     24  C   UNL     1       0.420  -1.969   1.200  0.00  0.00    +0.325 C 
ATOM     25  O   UNL     1      -0.138  -2.809   0.535  0.00  0.00    -0.249 OA
BRANCH  24  26
ATOM     26  O   UNL     1       0.194  -0.667   0.964  0.00  0.00    -0.464 OA
BRANCH  26  28
ATOM     27  C   UNL     1      -0.847   1.173  -0.207  0.00  0.00    +0.048 C 
ATOM     28  C   UNL     1      -0.718  -0.347  -0.089  0.00  0.00    +0.229 C 
ENDBRANCH  26  28
ENDBRANCH  24  26
ENDBRANCH  23  24
ENDBRANCH   1  23
TORSDOF 6
