REMARK  Name = ZINC10735526
REMARK  6 active torsions:
REMARK  status: ('A' for Active; 'I' for Inactive)
REMARK    1  A    between atoms: C_6  and  C_7
REMARK    2  A    between atoms: C_10  and  C_12
REMARK    3  A    between atoms: N_14  and  N_15
REMARK    4  A    between atoms: C_16  and  C_18
REMARK    5  A    between atoms: C_21  and  N_27
REMARK    6  A    between atoms: C_22  and  N_24
REMARK                            x       y       z     vdW  Elec       q    Type
REMARK                         _______ _______ _______ _____ _____    ______ ____
ROOT
ATOM      1  C   UNL     1      -5.257  -2.046  -0.315  0.00  0.00    +0.267 C 
ATOM      2  O   UNL     1      -5.686  -3.151  -0.591  0.00  0.00    -0.268 OA
ATOM      3  N   UNL     1      -6.112  -1.038  -0.051  0.00  0.00    -0.230 N 
ATOM      4  H   UNL     1      -5.771  -0.157   0.170  0.00  0.00    +0.173 HD
ENDROOT
BRANCH   1   8
ATOM      5  C   UNL     1      -1.269  -0.929  -0.070  0.00  0.00    +0.020 A 
ATOM      6  C   UNL     1      -1.489  -2.256  -0.405  0.00  0.00    +0.017 A 
ATOM      7  C   UNL     1      -2.776  -2.703  -0.506  0.00  0.00    +0.021 A 
ATOM      8  C   UNL     1      -3.812  -1.811  -0.269  0.00  0.00    +0.076 A 
ATOM      9  S   UNL     1      -2.932  -0.305   0.112  0.00  0.00    -0.084 S 
BRANCH   5  15
ATOM     10  C   UNL     1       0.022   1.137   0.447  0.00  0.00    +0.012 A 
ATOM     11  C   UNL     1       1.222   1.798   0.603  0.00  0.00    +0.039 A 
ATOM     12  C   UNL     1       2.418   1.123   0.414  0.00  0.00    +0.123 A 
ATOM     13  C   UNL     1       2.415  -0.219   0.068  0.00  0.00    +0.039 A 
ATOM     14  C   UNL     1       1.221  -0.890  -0.092  0.00  0.00    +0.012 A 
ATOM     15  C   UNL     1       0.014  -0.215   0.098  0.00  0.00    -0.011 A 
ATOM     16  F   UNL     1       3.591   1.776   0.569  0.00  0.00    -0.205 F 
ENDBRANCH   5  15
ENDBRANCH   1   8
BRANCH   3  17
ATOM     17  N   UNL     1      -7.495  -1.262  -0.095  0.00  0.00    -0.230 N 
ATOM     18  C   UNL     1      -8.350  -0.254   0.170  0.00  0.00    +0.260 C 
ATOM     19  O   UNL     1      -7.921   0.850   0.446  0.00  0.00    -0.269 OA
ATOM     20  H   UNL     1      -7.836  -2.143  -0.315  0.00  0.00    +0.173 HD
BRANCH  18  21
ATOM     21  C   UNL     1      -9.805  -0.490   0.124  0.00  0.00    +0.040 A 
ATOM     22  C   UNL     1     -10.299  -1.761  -0.188  0.00  0.00    +0.015 A 
ATOM     23  C   UNL     1     -11.657  -1.978  -0.230  0.00  0.00    +0.026 A 
ATOM     24  C   UNL     1     -12.539  -0.934   0.038  0.00  0.00    +0.055 A 
ATOM     25  C   UNL     1     -12.050   0.331   0.349  0.00  0.00    +0.147 A 
ATOM     26  C   UNL     1     -10.693   0.554   0.397  0.00  0.00    +0.047 A 
BRANCH  25  27
ATOM     27  N   UNL     1     -12.992   1.438   0.633  0.00  0.00    +0.058 N 
ATOM     28  O   UNL     1     -12.738   2.559   0.258  0.00  0.00    -0.126 OA
ATOM     29  O   UNL     1     -14.014   1.221   1.240  0.00  0.00    -0.126 OA
ENDBRANCH  25  27
BRANCH  24  30
ATOM     30  N   UNL     1     -13.911  -1.157  -0.005  0.00  0.00    -0.356 N 
ATOM     31  H   UNL     1     -14.253  -2.059  -0.109  0.00  0.00    +0.142 HD
ATOM     32  H   UNL     1     -14.526  -0.411   0.068  0.00  0.00    +0.142 HD
ENDBRANCH  24  30
ENDBRANCH  18  21
ENDBRANCH   3  17
TORSDOF 6
