REMARK  Name = ZINC02387291
REMARK  6 active torsions:
REMARK  status: ('A' for Active; 'I' for Inactive)
REMARK    1  A    between atoms: C_3  and  O_23
REMARK    2  A    between atoms: C_4  and  C_8
REMARK    3  A    between atoms: N_9  and  N_10
REMARK    4  A    between atoms: C_11  and  C_13
REMARK    5  A    between atoms: N_15  and  C_16
REMARK    6  A    between atoms: C_16  and  C_17
REMARK                            x       y       z     vdW  Elec       q    Type
REMARK                         _______ _______ _______ _____ _____    ______ ____
ROOT
ATOM      1  N   UNL     1       6.030  -0.706  -0.061  0.00  0.00    -0.199 N 
ATOM      2  C   UNL     1       7.188  -0.016  -0.069  0.00  0.00    +0.318 C 
ATOM      3  O   UNL     1       7.170   1.199  -0.062  0.00  0.00    -0.263 OA
ATOM      4  H   UNL     1       6.044  -1.676  -0.066  0.00  0.00    +0.178 HD
ENDROOT
BRANCH   2   5
ATOM      5  C   UNL     1       8.490  -0.743  -0.085  0.00  0.00    +0.301 C 
ATOM      6  O   UNL     1       8.508  -1.956  -0.092  0.00  0.00    -0.265 OA
ATOM      7  N   UNL     1       9.647  -0.052  -0.093  0.00  0.00    -0.305 N 
ATOM      8  H   UNL     1       9.633   0.918  -0.088  0.00  0.00    +0.149 HD
BRANCH   7   9
ATOM      9  C   UNL     1      10.926  -0.766  -0.110  0.00  0.00    +0.136 C 
BRANCH   9  10
ATOM     10  C   UNL     1      12.075   0.245  -0.116  0.00  0.00    +0.135 C 
ATOM     11  C   UNL     1      13.438  -0.490  -0.169  0.00  0.00    +0.035 C 
ATOM     12  C   UNL     1      14.339   0.605  -0.802  0.00  0.00    +0.031 C 
ATOM     13  C   UNL     1      13.363   1.317  -1.763  0.00  0.00    +0.160 C 
ATOM     14  O   UNL     1      12.030   1.043  -1.309  0.00  0.00    -0.375 OA
ENDBRANCH   9  10
ENDBRANCH   7   9
ENDBRANCH   2   5
BRANCH   1  16
ATOM     15  C   UNL     1       3.691  -0.689  -0.037  0.00  0.00    +0.142 C 
ATOM     16  N   UNL     1       4.807  -0.023  -0.045  0.00  0.00    -0.187 NA
BRANCH  15  20
ATOM     17  C   UNL     1      -0.017   1.381   0.010  0.00  0.00    +0.023 A 
ATOM     18  C   UNL     1       1.166   2.096   0.002  0.00  0.00    +0.047 A 
ATOM     19  C   UNL     1       2.381   1.431  -0.013  0.00  0.00    +0.126 A 
ATOM     20  C   UNL     1       2.405   0.029  -0.021  0.00  0.00    +0.037 A 
ATOM     21  C   UNL     1       1.203  -0.683  -0.013  0.00  0.00    +0.033 A 
ATOM     22  C   UNL     1       0.002  -0.004   0.002  0.00  0.00    +0.042 A 
ATOM     23 CL   UNL     1      -1.491  -0.889   0.012  0.00  0.00    -0.084 Cl
BRANCH  19  24
ATOM     24  O   UNL     1       3.543   2.133  -0.021  0.00  0.00    -0.506 OA
ATOM     25  H   UNL     1       3.888   2.332   0.860  0.00  0.00    +0.292 HD
ENDBRANCH  19  24
ENDBRANCH  15  20
ENDBRANCH   1  16
TORSDOF 6
