REMARK  Name = ZINC05237564
REMARK  8 active torsions:
REMARK  status: ('A' for Active; 'I' for Inactive)
REMARK    1  A    between atoms: C_1  and  C_2
REMARK    2  A    between atoms: C_3  and  C_21
REMARK    3  A    between atoms: C_9  and  S_13
REMARK    4  A    between atoms: S_13  and  C_14
REMARK    5  A    between atoms: C_14  and  C_16
REMARK    6  A    between atoms: C_14  and  C_17
REMARK    7  A    between atoms: C_17  and  O_19
REMARK    8  A    between atoms: O_19  and  C_20
REMARK                            x       y       z     vdW  Elec       q    Type
REMARK                         _______ _______ _______ _____ _____    ______ ____
ROOT
ATOM      1  C   UNL     1       7.454   2.906  -1.701  0.00  0.00    +0.052 C 
ATOM      2  C   UNL     1       6.290   2.223  -1.031  0.00  0.00    -0.003 A 
ATOM      3  C   UNL     1       6.274   1.554   0.146  0.00  0.00    +0.007 A 
ATOM      4  C   UNL     1       5.018   0.968   0.604  0.00  0.00    +0.080 A 
ATOM      5  C   UNL     1       4.751   0.225   1.794  0.00  0.00    +0.261 A 
ATOM      6  O   UNL     1       5.641   0.004   2.597  0.00  0.00    -0.267 OA
ATOM      7  N   UNL     1       3.504  -0.228   2.019  0.00  0.00    -0.301 N 
ATOM      8  H   UNL     1       3.313  -0.748   2.851  0.00  0.00    +0.171 HD
ATOM      9  C   UNL     1       2.495   0.010   1.131  0.00  0.00    +0.171 A 
ATOM     10  N   UNL     1       2.715   0.687   0.023  0.00  0.00    -0.216 NA
ATOM     11  C   UNL     1       3.922   1.166  -0.254  0.00  0.00    +0.117 A 
ATOM     12  S   UNL     1       4.605   2.103  -1.598  0.00  0.00    -0.073 S 
ENDROOT
BRANCH   3  13
ATOM     13  C   UNL     1       7.509   1.421   0.955  0.00  0.00    -0.016 A 
ATOM     14  C   UNL     1       7.593   2.025   2.208  0.00  0.00    +0.008 A 
ATOM     15  C   UNL     1       8.744   1.894   2.959  0.00  0.00    +0.001 A 
ATOM     16  C   UNL     1       9.816   1.172   2.466  0.00  0.00    +0.000 A 
ATOM     17  C   UNL     1       9.740   0.574   1.220  0.00  0.00    +0.001 A 
ATOM     18  C   UNL     1       8.593   0.694   0.463  0.00  0.00    +0.008 A 
ENDBRANCH   3  13
BRANCH   9  19
ATOM     19  S   UNL     1       0.877  -0.604   1.468  0.00  0.00    -0.073 S 
BRANCH  19  20
ATOM     20  C   UNL     1       0.002  -0.004   0.002  0.00  0.00    +0.159 C 
ATOM     21  C   UNL     1      -0.019   1.526   0.010  0.00  0.00    +0.031 C 
BRANCH  20  22
ATOM     22  C   UNL     1      -1.412  -0.526   0.013  0.00  0.00    +0.320 C 
ATOM     23  O   UNL     1      -1.937  -0.826   1.059  0.00  0.00    -0.250 OA
BRANCH  22  24
ATOM     24  O   UNL     1      -2.087  -0.657  -1.140  0.00  0.00    -0.467 OA
ATOM     25  C   UNL     1      -3.445  -1.165  -1.054  0.00  0.00    +0.280 C 
ENDBRANCH  22  24
ENDBRANCH  20  22
ENDBRANCH  19  20
ENDBRANCH   9  19
TORSDOF 5
