REMARK  Name = ZINC36736643
REMARK  7 active torsions:
REMARK  status: ('A' for Active; 'I' for Inactive)
REMARK    1  A    between atoms: C_4  and  N_8
REMARK    2  A    between atoms: C_5  and  N_7
REMARK    3  A    between atoms: N_8  and  C_9
REMARK    4  A    between atoms: C_9  and  C_10
REMARK    5  A    between atoms: C_10  and  O_11
REMARK    6  A    between atoms: C_12  and  C_14
REMARK    7  A    between atoms: C_19  and  O_20
REMARK                            x       y       z     vdW  Elec       q    Type
REMARK                         _______ _______ _______ _____ _____    ______ ____
ROOT
ATOM      1  N   UNL     1       3.795  -0.481  -0.055  0.00  0.00    -0.263 N 
ATOM      2  C   UNL     1       4.234  -0.998  -1.220  0.00  0.00    +0.255 C 
ATOM      3  O   UNL     1       5.114  -1.838  -1.219  0.00  0.00    -0.270 OA
ENDROOT
BRANCH   2   4
ATOM      4  C   UNL     1       3.648  -0.545  -2.495  0.00  0.00    +0.080 A 
ATOM      5  C   UNL     1       3.608   0.817  -2.806  0.00  0.00    +0.036 A 
ATOM      6  C   UNL     1       3.059   1.234  -4.000  0.00  0.00    +0.042 A 
ATOM      7  C   UNL     1       2.546   0.307  -4.894  0.00  0.00    +0.023 A 
ATOM      8  C   UNL     1       2.578  -1.041  -4.599  0.00  0.00    +0.047 A 
ATOM      9  C   UNL     1       3.132  -1.478  -3.405  0.00  0.00    +0.129 A 
ATOM     10 CL   UNL     1       3.011   2.926  -4.385  0.00  0.00    -0.084 Cl
BRANCH   9  11
ATOM     11  O   UNL     1       3.169  -2.803  -3.116  0.00  0.00    -0.506 OA
ATOM     12  H   UNL     1       2.388  -3.126  -2.646  0.00  0.00    +0.292 HD
ENDBRANCH   9  11
ENDBRANCH   2   4
BRANCH   1  16
ATOM     13  C   UNL     1       0.560   2.153  -0.030  0.00  0.00    +0.002 A 
ATOM     14  C   UNL     1       1.848   2.638  -0.161  0.00  0.00    +0.002 A 
ATOM     15  C   UNL     1       2.922   1.768  -0.169  0.00  0.00    +0.025 A 
ATOM     16  C   UNL     1       2.708   0.403  -0.046  0.00  0.00    +0.057 A 
ATOM     17  C   UNL     1       1.409  -0.087   0.086  0.00  0.00    +0.046 A 
ATOM     18  C   UNL     1       0.338   0.794   0.093  0.00  0.00    +0.024 A 
BRANCH  17  19
ATOM     19  N   UNL     1       1.187  -1.463   0.209  0.00  0.00    -0.357 N 
ATOM     20  H   UNL     1       1.937  -2.078   0.204  0.00  0.00    +0.142 HD
ATOM     21  H   UNL     1       0.283  -1.802   0.301  0.00  0.00    +0.142 HD
ENDBRANCH  17  19
ENDBRANCH   1  16
BRANCH   1  22
ATOM     22  C   UNL     1       4.454  -0.845   1.202  0.00  0.00    +0.142 C 
BRANCH  22  23
ATOM     23  C   UNL     1       3.715  -2.020   1.845  0.00  0.00    +0.175 C 
BRANCH  23  24
ATOM     24  O   UNL     1       3.834  -3.172   1.008  0.00  0.00    -0.393 OA
ATOM     25  H   UNL     1       3.388  -3.958   1.354  0.00  0.00    +0.209 HD
ENDBRANCH  23  24
ENDBRANCH  22  23
ENDBRANCH   1  22
TORSDOF 7
