REMARK  Name = ZINC36365135
REMARK  5 active torsions:
REMARK  status: ('A' for Active; 'I' for Inactive)
REMARK    1  A    between atoms: C_1  and  O_2
REMARK    2  A    between atoms: O_2  and  C_3
REMARK    3  A    between atoms: C_6  and  C_9
REMARK    4  A    between atoms: C_13  and  C_14
REMARK    5  A    between atoms: C_19  and  O_21
REMARK                            x       y       z     vdW  Elec       q    Type
REMARK                         _______ _______ _______ _____ _____    ______ ____
ROOT
ATOM      1  C   UNL     1       2.575  -2.539   4.292  0.00  0.00    +0.029 A 
ATOM      2  C   UNL     1       3.737  -3.296   4.115  0.00  0.00    +0.087 A 
ATOM      3  C   UNL     1       4.278  -3.869   5.259  0.00  0.00    +0.036 A 
ATOM      4  S   UNL     1       3.280  -3.422   6.512  0.00  0.00    -0.082 S 
ATOM      5  C   UNL     1       2.096  -2.446   5.603  0.00  0.00    +0.110 A 
ATOM      6  C   UNL     1       5.519  -4.702   5.263  0.00  0.00    +0.115 C 
ATOM      7  C   UNL     1       6.409  -4.255   4.101  0.00  0.00    +0.121 C 
ATOM      8  C   UNL     1       5.586  -3.969   2.878  0.00  0.00    +0.189 C 
ATOM      9  N   UNL     1       4.376  -3.519   2.899  0.00  0.00    -0.216 NA
ATOM     10  C   UNL     1       5.205  -6.161   5.169  0.00  0.00    -0.006 A 
ATOM     11  C   UNL     1       4.549  -6.895   4.204  0.00  0.00    +0.009 A 
ATOM     12  C   UNL     1       4.422  -8.261   4.427  0.00  0.00    +0.039 A 
ATOM     13  C   UNL     1       4.931  -8.854   5.567  0.00  0.00    +0.125 A 
ATOM     14  C   UNL     1       5.593  -8.121   6.542  0.00  0.00    +0.062 A 
ATOM     15  C   UNL     1       5.727  -6.748   6.328  0.00  0.00    +0.041 A 
ATOM     16  N   UNL     1       6.334  -5.790   7.121  0.00  0.00    -0.284 N 
ATOM     17  C   UNL     1       6.260  -4.558   6.573  0.00  0.00    +0.233 C 
ATOM     18  O   UNL     1       6.704  -3.532   7.042  0.00  0.00    -0.274 OA
ATOM     19  F   UNL     1       4.780 -10.185   5.737  0.00  0.00    -0.205 F 
ATOM     20  H   UNL     1       6.761  -5.981   7.971  0.00  0.00    +0.155 HD
ENDROOT
BRANCH   1  24
ATOM     21  C   UNL     1       0.626  -0.618   1.041  0.00  0.00    +0.120 A 
ATOM     22  C   UNL     1       1.202   0.142   2.050  0.00  0.00    +0.046 A 
ATOM     23  C   UNL     1       1.835  -0.477   3.107  0.00  0.00    +0.012 A 
ATOM     24  C   UNL     1       1.896  -1.871   3.161  0.00  0.00    -0.014 A 
ATOM     25  C   UNL     1       1.316  -2.631   2.144  0.00  0.00    +0.012 A 
ATOM     26  C   UNL     1       0.680  -2.005   1.094  0.00  0.00    +0.046 A 
BRANCH  21  28
ATOM     27  C   UNL     1      -0.017   1.425   0.010  0.00  0.00    +0.277 C 
ATOM     28  O   UNL     1       0.002  -0.004   0.002  0.00  0.00    -0.495 OA
ENDBRANCH  21  28
ENDBRANCH   1  24
BRANCH   5  29
ATOM     29  C   UNL     1       0.961  -1.756   6.085  0.00  0.00    +0.394 C 
ATOM     30  O   UNL     1       0.249  -1.130   5.308  0.00  0.00    -0.240 OA
ATOM     31  O   UNL     1       0.689  -1.784   7.280  0.00  0.00    -0.240 OA
ENDBRANCH   5  29
BRANCH   8  32
ATOM     32  O   UNL     1       6.151  -4.197   1.673  0.00  0.00    -0.495 OA
ATOM     33  H   UNL     1       5.574  -3.995   0.924  0.00  0.00    +0.293 HD
ENDBRANCH   8  32
TORSDOF 4
