REMARK  Name = ZINC19136698
REMARK  9 active torsions:
REMARK  status: ('A' for Active; 'I' for Inactive)
REMARK    1  A    between atoms: C_1  and  C_2
REMARK    2  A    between atoms: C_5  and  C_8
REMARK    3  A    between atoms: C_8  and  C_10
REMARK    4  A    between atoms: C_8  and  N_16
REMARK    5  A    between atoms: C_17  and  C_19
REMARK    6  A    between atoms: C_19  and  N_20
REMARK    7  A    between atoms: C_22  and  C_25
REMARK    8  A    between atoms: C_25  and  C_26
REMARK    9  A    between atoms: C_25  and  C_27
REMARK                            x       y       z     vdW  Elec       q    Type
REMARK                         _______ _______ _______ _____ _____    ______ ____
ROOT
ATOM      1  C   UNL     1      -0.997   1.758  -3.630  0.00  0.00    +0.135 C 
ENDROOT
BRANCH   1   6
ATOM      2  C   UNL     1       2.671   2.026  -8.087  0.00  0.00    +0.044 C 
ATOM      3  C   UNL     1       1.714   1.956  -6.925  0.00  0.00    -0.050 A 
ATOM      4  C   UNL     1       0.777   2.956  -6.739  0.00  0.00    +0.004 A 
ATOM      5  C   UNL     1      -0.100   2.891  -5.673  0.00  0.00    +0.006 A 
ATOM      6  C   UNL     1      -0.041   1.828  -4.792  0.00  0.00    -0.023 A 
ATOM      7  C   UNL     1       0.900   0.831  -4.974  0.00  0.00    +0.006 A 
ATOM      8  C   UNL     1       1.774   0.893  -6.043  0.00  0.00    +0.004 A 
ENDBRANCH   1   6
BRANCH   1   9
ATOM      9  C   UNL     1      -2.124   0.814  -3.963  0.00  0.00    -0.005 A 
ATOM     10  C   UNL     1      -3.352   1.306  -4.379  0.00  0.00    +0.009 A 
ATOM     11  C   UNL     1      -4.358   0.401  -4.679  0.00  0.00    +0.020 A 
ATOM     12  C   UNL     1      -4.109  -0.952  -4.544  0.00  0.00    +0.111 A 
ATOM     13  N   UNL     1      -2.931  -1.384  -4.141  0.00  0.00    -0.263 NA
ATOM     14  C   UNL     1      -1.949  -0.552  -3.852  0.00  0.00    +0.116 A 
ENDBRANCH   1   9
BRANCH   1  15
ATOM     15  N   UNL     1      -0.288   1.272  -2.443  0.00  0.00    -0.303 N 
ATOM     16  C   UNL     1      -0.742   1.585  -1.213  0.00  0.00    +0.235 C 
ATOM     17  O   UNL     1      -1.736   2.268  -1.088  0.00  0.00    -0.274 OA
ATOM     18  H   UNL     1       0.507   0.726  -2.543  0.00  0.00    +0.150 HD
BRANCH  16  19
ATOM     19  C   UNL     1      -0.013   1.086   0.008  0.00  0.00    +0.240 C 
BRANCH  19  20
ATOM     20  N   UNL     1      -0.698   1.558   1.213  0.00  0.00    -0.243 N 
ATOM     21  C   UNL     1      -1.156   0.780   2.221  0.00  0.00    +0.134 A 
ATOM     22  C   UNL     1      -1.715   1.621   3.123  0.00  0.00    +0.085 A 
ATOM     23  N   UNL     1      -1.580   2.856   2.625  0.00  0.00    -0.134 NA
ATOM     24  N   UNL     1      -0.974   2.784   1.493  0.00  0.00    -0.065 NA
BRANCH  22  25
ATOM     25  C   UNL     1      -2.365   1.242   4.428  0.00  0.00    +0.035 C 
ATOM     26  C   UNL     1      -3.826   0.861   4.178  0.00  0.00    +0.014 C 
ATOM     27  C   UNL     1      -1.625   0.050   5.039  0.00  0.00    +0.014 C 
ENDBRANCH  22  25
ENDBRANCH  19  20
ENDBRANCH  16  19
ENDBRANCH   1  15
TORSDOF 6
