REMARK  Name = ZINC16788560
REMARK  13 active torsions:
REMARK  status: ('A' for Active; 'I' for Inactive)
REMARK    1  A    between atoms: C_1  and  C_2
REMARK    2  A    between atoms: C_2  and  O_3
REMARK    3  A    between atoms: O_3  and  C_4
REMARK    4  A    between atoms: C_6  and  C_16
REMARK    5  A    between atoms: C_9  and  O_10
REMARK    6  A    between atoms: O_10  and  C_11
REMARK    7  A    between atoms: C_11  and  C_12
REMARK    8  A    between atoms: C_12  and  C_13
REMARK    9  A    between atoms: C_13  and  C_14
REMARK   10  A    between atoms: C_13  and  C_15
REMARK   11  A    between atoms: C_21  and  N_30
REMARK   12  A    between atoms: C_25  and  N_29
REMARK   13  A    between atoms: C_26  and  C_27
REMARK                            x       y       z     vdW  Elec       q    Type
REMARK                         _______ _______ _______ _____ _____    ______ ____
ROOT
ATOM      1  C   UNL     1      -1.294  -0.774   0.010  0.00  0.00    +0.098 C 
ATOM      2  C   UNL     1      -1.380  -1.618  -1.234  0.00  0.00    +0.008 A 
ATOM      3  C   UNL     1      -1.696  -1.020  -2.441  0.00  0.00    +0.010 A 
ATOM      4  C   UNL     1      -1.780  -1.777  -3.592  0.00  0.00    +0.023 A 
ATOM      5  C   UNL     1      -1.546  -3.146  -3.541  0.00  0.00    +0.028 A 
ATOM      6  C   UNL     1      -1.230  -3.748  -2.332  0.00  0.00    +0.069 A 
ATOM      7  C   UNL     1      -1.147  -2.983  -1.176  0.00  0.00    +0.136 A 
ATOM      8  O   UNL     1      -0.836  -3.587  -0.002  0.00  0.00    -0.441 OA
ATOM      9  C   UNL     1      -1.120  -2.977   1.161  0.00  0.00    +0.199 C 
ATOM     10  C   UNL     1      -1.348  -1.644   1.234  0.00  0.00    +0.098 C 
ENDROOT
BRANCH   1  13
ATOM     11  C   UNL     1       1.174   2.087   0.002  0.00  0.00    +0.162 A 
ATOM     12  C   UNL     1      -0.017   1.378   0.010  0.00  0.00    +0.054 A 
ATOM     13  C   UNL     1       0.002  -0.004   0.002  0.00  0.00    -0.031 A 
ATOM     14  C   UNL     1       1.207  -0.682  -0.013  0.00  0.00    +0.008 A 
ATOM     15  C   UNL     1       2.398   0.019  -0.021  0.00  0.00    +0.050 A 
ATOM     16  C   UNL     1       2.386   1.405  -0.014  0.00  0.00    +0.162 A 
BRANCH  11  17
ATOM     17  O   UNL     1       1.157   3.447   0.009  0.00  0.00    -0.489 OA
BRANCH  17  19
ATOM     18  C   UNL     1       0.058   5.599   0.032  0.00  0.00    +0.048 C 
ATOM     19  C   UNL     1      -0.124   4.080   0.025  0.00  0.00    +0.226 C 
ENDBRANCH  17  19
ENDBRANCH  11  17
BRANCH  16  20
ATOM     20  O   UNL     1       3.557   2.096  -0.021  0.00  0.00    -0.488 OA
BRANCH  20  21
ATOM     21  C   UNL     1       4.763   1.330  -0.036  0.00  0.00    +0.229 C 
BRANCH  21  22
ATOM     22  C   UNL     1       5.968   2.274  -0.043  0.00  0.00    +0.044 C 
BRANCH  22  23
ATOM     23  C   UNL     1       7.259   1.453  -0.059  0.00  0.00    -0.014 C 
ATOM     24  C   UNL     1       8.459   2.393  -0.191  0.00  0.00    +0.007 C 
ATOM     25  C   UNL     1       7.374   0.658   1.243  0.00  0.00    +0.007 C 
ENDBRANCH  22  23
ENDBRANCH  21  22
ENDBRANCH  20  21
ENDBRANCH  16  20
ENDBRANCH   1  13
BRANCH   9  26
ATOM     26  N   UNL     1      -1.181  -3.727   2.309  0.00  0.00    -0.328 N 
ATOM     27  H   UNL     1      -1.385  -3.301   3.156  0.00  0.00    +0.145 HD
ATOM     28  H   UNL     1      -1.020  -4.683   2.273  0.00  0.00    +0.145 HD
ENDBRANCH   9  26
BRANCH   5  29
ATOM     29  N   UNL     1      -1.631  -3.915  -4.704  0.00  0.00    -0.358 N 
ATOM     30  H   UNL     1      -1.852  -3.493  -5.549  0.00  0.00    +0.142 HD
ATOM     31  H   UNL     1      -1.468  -4.870  -4.667  0.00  0.00    +0.142 HD
ENDBRANCH   5  29
BRANCH  10  32
ATOM     32  C   UNL     1      -1.646  -1.052   2.503  0.00  0.00    +0.101 C 
ATOM     33  N   UNL     1      -1.883  -0.582   3.510  0.00  0.00    -0.191 NA
ENDBRANCH  10  32
TORSDOF 10
