REMARK  Name = ZINC40267461
REMARK  3 active torsions:
REMARK  status: ('A' for Active; 'I' for Inactive)
REMARK    1  A    between atoms: C_1  and  C_2
REMARK    2  A    between atoms: C_6  and  C_7
REMARK    3  A    between atoms: C_15  and  C_27
REMARK                            x       y       z     vdW  Elec       q    Type
REMARK                         _______ _______ _______ _____ _____    ______ ____
ROOT
ATOM      1  C   UNL     1       0.030  -0.179   2.581  0.00  0.00    +0.070 C 
ATOM      2  C   UNL     1      -1.198  -0.705   3.330  0.00  0.00    +0.109 C 
ATOM      3  C   UNL     1      -1.037  -0.549   4.816  0.00  0.00    +0.219 C 
ATOM      4  O   UNL     1      -2.000  -0.230   5.481  0.00  0.00    -0.275 OA
ATOM      5  N   UNL     1       0.146  -0.752   5.434  0.00  0.00    -0.270 N 
ATOM      6  C   UNL     1       1.280  -0.922   4.641  0.00  0.00    +0.134 A 
ATOM      7  C   UNL     1       1.265  -0.665   3.295  0.00  0.00    +0.024 A 
ATOM      8  C   UNL     1       2.531  -0.931   2.793  0.00  0.00    +0.066 A 
ATOM      9  N   UNL     1       3.295  -1.320   3.787  0.00  0.00    -0.168 NA
ATOM     10  N   UNL     1       2.529  -1.315   4.966  0.00  0.00    -0.198 N 
ATOM     11  C   UNL     1       2.981  -1.651   6.246  0.00  0.00    +0.176 A 
ATOM     12  C   UNL     1       4.322  -2.038   6.429  0.00  0.00    +0.054 A 
ATOM     13  C   UNL     1       4.773  -2.368   7.669  0.00  0.00    +0.054 A 
ATOM     14  C   UNL     1       3.883  -2.316   8.758  0.00  0.00    +0.178 A 
ATOM     15  N   UNL     1       4.003  -2.566  10.052  0.00  0.00    -0.128 NA
ATOM     16  N   UNL     1       2.871  -2.363  10.630  0.00  0.00    -0.136 NA
ATOM     17  C   UNL     1       1.978  -1.977   9.753  0.00  0.00    +0.249 A 
ATOM     18  N   UNL     1       2.581  -1.933   8.546  0.00  0.00    -0.198 N 
ATOM     19  N   UNL     1       2.152  -1.597   7.260  0.00  0.00    -0.144 NA
ATOM     20  C   UNL     1       2.957  -0.796   1.354  0.00  0.00    +0.068 C 
ATOM     21  H   UNL     1       0.206  -0.779   6.401  0.00  0.00    +0.156 HD
ENDROOT
BRANCH   1  27
ATOM     22  C   UNL     1      -0.018   1.503   0.010  0.00  0.00    +0.044 C 
ATOM     23  C   UNL     1       0.002  -0.004   0.002  0.00  0.00    -0.040 A 
ATOM     24  C   UNL     1       0.006  -0.699  -1.193  0.00  0.00    +0.011 A 
ATOM     25  C   UNL     1       0.024  -2.054  -1.165  0.00  0.00    +0.046 A 
ATOM     26  S   UNL     1       0.037  -2.387   0.589  0.00  0.00    -0.101 S 
ATOM     27  C   UNL     1       0.023  -0.698   1.166  0.00  0.00    +0.001 A 
ENDBRANCH   1  27
TORSDOF 1
