REMARK  Name = ZINC39685747
REMARK  11 active torsions:
REMARK  status: ('A' for Active; 'I' for Inactive)
REMARK    1  A    between atoms: C_1  and  C_2
REMARK    2  A    between atoms: C_2  and  C_3
REMARK    3  A    between atoms: C_2  and  C_4
REMARK    4  A    between atoms: C_4  and  C_6
REMARK    5  A    between atoms: C_4  and  N_13
REMARK    6  A    between atoms: N_8  and  C_9
REMARK    7  A    between atoms: C_9  and  C_10
REMARK    8  A    between atoms: C_9  and  C_11
REMARK    9  A    between atoms: C_9  and  C_12
REMARK   10  A    between atoms: C_14  and  C_16
REMARK   11  A    between atoms: C_27  and  C_29
REMARK                            x       y       z     vdW  Elec       q    Type
REMARK                         _______ _______ _______ _____ _____    ______ ____
ROOT
ATOM      1  C   UNL     1       0.575  -4.337   1.816  0.00  0.00    +0.100 C 
ATOM      2  C   UNL     1       1.781  -4.110   0.878  0.00  0.00    +0.121 C 
ATOM      3  N   UNL     1       2.881  -3.688   1.777  0.00  0.00    -0.296 N 
ATOM      4  C   UNL     1       2.719  -4.539   2.981  0.00  0.00    +0.115 C 
ATOM      5  C   UNL     1       1.194  -4.622   3.195  0.00  0.00    -0.004 C 
ATOM      6  C   UNL     1       0.803  -6.017   3.672  0.00  0.00    -0.010 C 
ATOM      7  C   UNL     1       1.382  -6.255   5.069  0.00  0.00    -0.082 C 
ATOM      8  N   UNL     1       0.868  -5.237   5.994  0.00  0.00    +0.379 N 
ATOM      9  C   UNL     1       1.327  -3.906   5.579  0.00  0.00    -0.082 C 
ATOM     10  C   UNL     1       0.746  -3.569   4.203  0.00  0.00    -0.010 C 
ATOM     11  C   UNL     1       3.817  -2.745   1.552  0.00  0.00    +0.247 C 
ATOM     12  O   UNL     1       3.751  -2.049   0.558  0.00  0.00    -0.270 OA
ATOM     13  H   UNL     1      -0.141  -5.260   5.990  0.00  0.00    -0.086 HD
ATOM     14  H   UNL     1       1.202  -5.432   6.926  0.00  0.00    -0.086 HD
ENDROOT
BRANCH  11  15
ATOM     15  C   UNL     1       4.925  -2.558   2.514  0.00  0.00    +0.040 A 
ATOM     16  C   UNL     1       5.290  -3.597   3.372  0.00  0.00    +0.033 A 
ATOM     17  C   UNL     1       6.325  -3.416   4.268  0.00  0.00    +0.043 A 
ATOM     18  C   UNL     1       7.000  -2.208   4.316  0.00  0.00    +0.040 A 
ATOM     19  C   UNL     1       6.642  -1.174   3.467  0.00  0.00    +0.043 A 
ATOM     20  C   UNL     1       5.612  -1.345   2.563  0.00  0.00    +0.033 A 
ATOM     21 CL   UNL     1       7.493   0.337   3.535  0.00  0.00    -0.083 Cl
ATOM     22 CL   UNL     1       6.780  -4.706   5.337  0.00  0.00    -0.083 Cl
ENDBRANCH  11  15
BRANCH   1  24
ATOM     23  N   UNL     1      -1.597  -3.206   2.165  0.00  0.00    -0.303 N 
ATOM     24  C   UNL     1      -0.286  -3.101   1.873  0.00  0.00    +0.219 C 
ATOM     25  O   UNL     1       0.202  -2.012   1.656  0.00  0.00    -0.275 OA
ATOM     26  H   UNL     1      -1.987  -4.077   2.339  0.00  0.00    +0.149 HD
BRANCH  23  27
ATOM     27  C   UNL     1      -2.434  -2.004   2.221  0.00  0.00    +0.161 C 
BRANCH  27  28
ATOM     28  C   UNL     1      -3.617  -2.257   3.118  0.00  0.00    +0.234 C 
ATOM     29  O   UNL     1      -3.965  -3.394   3.357  0.00  0.00    -0.274 OA
ATOM     30  N   UNL     1      -4.289  -1.220   3.656  0.00  0.00    -0.309 N 
ATOM     31  H   UNL     1      -3.971  -0.314   3.521  0.00  0.00    +0.149 HD
BRANCH  30  32
ATOM     32  C   UNL     1      -5.501  -1.461   4.443  0.00  0.00    +0.026 C 
ATOM     33  C   UNL     1      -5.160  -2.343   5.646  0.00  0.00    +0.031 C 
ATOM     34  C   UNL     1      -6.064  -0.126   4.934  0.00  0.00    +0.031 C 
ATOM     35  C   UNL     1      -6.543  -2.166   3.573  0.00  0.00    +0.031 C 
ENDBRANCH  30  32
ENDBRANCH  27  28
BRANCH  27  37
ATOM     36  C   UNL     1      -1.731  -1.278  -0.065  0.00  0.00    +0.009 C 
ATOM     37  C   UNL     1      -2.925  -1.660   0.813  0.00  0.00    +0.012 C 
ATOM     38  C   UNL     1      -3.635  -2.873   0.210  0.00  0.00    +0.009 C 
ENDBRANCH  27  37
ENDBRANCH  23  27
ENDBRANCH   1  24
TORSDOF 6
