REMARK  Name = ZINC46586719
REMARK  7 active torsions:
REMARK  status: ('A' for Active; 'I' for Inactive)
REMARK    1  A    between atoms: C_1  and  C_2
REMARK    2  A    between atoms: C_2  and  C_4
REMARK    3  A    between atoms: C_2  and  N_13
REMARK    4  A    between atoms: N_13  and  C_14
REMARK    5  A    between atoms: N_13  and  C_15
REMARK    6  A    between atoms: C_15  and  C_16
REMARK    7  A    between atoms: C_20  and  C_29
REMARK                            x       y       z     vdW  Elec       q    Type
REMARK                         _______ _______ _______ _____ _____    ______ ____
ROOT
ATOM      1  C   UNL     1      -3.532  -0.445  -1.106  0.00  0.00    +0.203 C 
ATOM      2  O   UNL     1      -3.909  -1.173  -0.212  0.00  0.00    -0.277 OA
ATOM      3  N   UNL     1      -4.404  -0.023  -2.044  0.00  0.00    -0.266 N 
ATOM      4  C   UNL     1      -3.950   0.752  -3.212  0.00  0.00    +0.168 C 
ATOM      5  C   UNL     1      -4.698   0.216  -4.441  0.00  0.00    +0.276 C 
ATOM      6  O   UNL     1      -6.104   0.347  -4.219  0.00  0.00    -0.476 OA
ATOM      7  C   UNL     1      -6.605  -0.116  -3.044  0.00  0.00    +0.143 A 
ATOM      8  C   UNL     1      -5.776  -0.311  -1.944  0.00  0.00    +0.078 A 
ATOM      9  C   UNL     1      -6.301  -0.785  -0.753  0.00  0.00    +0.027 A 
ATOM     10  C   UNL     1      -7.651  -1.071  -0.661  0.00  0.00    +0.002 A 
ATOM     11  C   UNL     1      -8.475  -0.884  -1.756  0.00  0.00    +0.004 A 
ATOM     12  C   UNL     1      -7.958  -0.401  -2.940  0.00  0.00    +0.047 A 
ENDROOT
BRANCH   5  13
ATOM     13  C   UNL     1      -4.300   1.010  -5.659  0.00  0.00    +0.253 C 
ATOM     14  O   UNL     1      -5.122   1.693  -6.233  0.00  0.00    -0.272 OA
ATOM     15  N   UNL     1      -3.031   0.961  -6.111  0.00  0.00    -0.326 N 
ATOM     16  H   UNL     1      -2.374   0.414  -5.652  0.00  0.00    +0.145 HD
ATOM     17  H   UNL     1      -2.775   1.471  -6.895  0.00  0.00    +0.145 HD
ENDBRANCH   5  13
BRANCH   1  18
ATOM     18  C   UNL     1      -2.090  -0.011  -1.168  0.00  0.00    +0.020 C 
BRANCH  18  19
ATOM     19  N   UNL     1      -1.323  -0.714  -0.130  0.00  0.00    +0.390 N 
ATOM     20  C   UNL     1      -1.309  -2.153  -0.422  0.00  0.00    -0.095 C 
ATOM     21  H   UNL     1      -1.752  -0.557   0.769  0.00  0.00    -0.081 HD
BRANCH  19  23
ATOM     22  C   UNL     1       0.040   1.295   0.193  0.00  0.00    -0.005 C 
ATOM     23  C   UNL     1       0.055  -0.204  -0.111  0.00  0.00    -0.004 C 
BRANCH  23  24
ATOM     24  C   UNL     1       0.842  -0.925   0.953  0.00  0.00    +0.093 A 
ATOM     25  C   UNL     1       2.114  -1.326   0.827  0.00  0.00    +0.051 A 
ATOM     26  C   UNL     1       2.466  -1.975   2.095  0.00  0.00    +0.020 A 
ATOM     27  C   UNL     1       3.615  -2.590   2.590  0.00  0.00    +0.011 A 
ATOM     28  C   UNL     1       3.615  -3.112   3.854  0.00  0.00    +0.001 A 
ATOM     29  C   UNL     1       2.478  -3.034   4.646  0.00  0.00    +0.004 A 
ATOM     30  C   UNL     1       1.332  -2.430   4.173  0.00  0.00    +0.047 A 
ATOM     31  C   UNL     1       1.312  -1.893   2.892  0.00  0.00    +0.135 A 
ATOM     32  O   UNL     1       0.371  -1.253   2.169  0.00  0.00    -0.461 OA
ENDBRANCH  23  24
ENDBRANCH  19  23
ENDBRANCH  18  19
ENDBRANCH   1  18
TORSDOF 5
