REMARK  Name = ZINC07653322
REMARK  10 active torsions:
REMARK  status: ('A' for Active; 'I' for Inactive)
REMARK    1  A    between atoms: C_1  and  C_2
REMARK    2  A    between atoms: C_5  and  C_17
REMARK    3  A    between atoms: C_7  and  S_8
REMARK    4  A    between atoms: S_8  and  N_11
REMARK    5  A    between atoms: C_17  and  O_19
REMARK    6  A    between atoms: O_19  and  C_20
REMARK    7  A    between atoms: C_20  and  C_22
REMARK    8  A    between atoms: C_20  and  C_25
REMARK    9  A    between atoms: C_22  and  C_23
REMARK   10  A    between atoms: C_22  and  C_24
REMARK                            x       y       z     vdW  Elec       q    Type
REMARK                         _______ _______ _______ _____ _____    ______ ____
ROOT
ATOM      1  C   UNL     1       3.255   0.247   1.773  0.00  0.00    +0.046 C 
ATOM      2  C   UNL     1       1.883  -0.095   1.251  0.00  0.00    -0.024 A 
ATOM      3  C   UNL     1       1.663  -1.319   0.644  0.00  0.00    +0.006 A 
ATOM      4  C   UNL     1       0.411  -1.639   0.164  0.00  0.00    +0.015 A 
ATOM      5  C   UNL     1      -0.637  -0.725   0.291  0.00  0.00    +0.061 A 
ATOM      6  C   UNL     1      -0.408   0.508   0.904  0.00  0.00    +0.043 A 
ATOM      7  C   UNL     1       0.850   0.815   1.380  0.00  0.00    +0.109 A 
ENDROOT
BRANCH   7   8
ATOM      8  S   UNL     1       1.141   2.371   2.155  0.00  0.00    +0.061 S 
ATOM      9  O   UNL     1      -0.112   3.039   2.208  0.00  0.00    -0.153 OA
ATOM     10  O   UNL     1       1.914   2.108   3.317  0.00  0.00    -0.153 OA
BRANCH   8  11
ATOM     11  N   UNL     1       2.104   3.253   1.136  0.00  0.00    -0.177 NA
ATOM     12  C   UNL     1       3.564   3.255   1.300  0.00  0.00    +0.109 C 
ATOM     13  C   UNL     1       4.207   2.867  -0.041  0.00  0.00    +0.017 C 
ATOM     14  C   UNL     1       3.696   3.807  -1.135  0.00  0.00    +0.003 C 
ATOM     15  C   UNL     1       2.179   3.661  -1.269  0.00  0.00    +0.017 C 
ATOM     16  C   UNL     1       1.514   4.053   0.054  0.00  0.00    +0.109 C 
ENDBRANCH   8  11
ENDBRANCH   7   8
BRANCH   5  17
ATOM     17  C   UNL     1      -1.981  -1.060  -0.222  0.00  0.00    +0.340 C 
ATOM     18  O   UNL     1      -2.890  -0.263  -0.110  0.00  0.00    -0.245 OA
BRANCH  17  19
ATOM     19  O   UNL     1      -2.198  -2.251  -0.813  0.00  0.00    -0.448 OA
BRANCH  19  20
ATOM     20  C   UNL     1      -3.544  -2.513  -1.293  0.00  0.00    +0.265 C 
BRANCH  20  21
ATOM     21  C   UNL     1      -3.821  -3.993  -1.228  0.00  0.00    +0.261 C 
ATOM     22  O   UNL     1      -2.950  -4.758  -0.874  0.00  0.00    -0.271 OA
ATOM     23  N   UNL     1      -5.037  -4.466  -1.564  0.00  0.00    -0.237 N 
ATOM     24  C   UNL     1      -5.255  -5.795  -1.607  0.00  0.00    +0.303 C 
ATOM     25  O   UNL     1      -4.355  -6.567  -1.342  0.00  0.00    -0.253 OA
ATOM     26  N   UNL     1      -6.472  -6.268  -1.943  0.00  0.00    -0.313 N 
ATOM     27  H   UNL     1      -5.756  -3.850  -1.776  0.00  0.00    +0.159 HD
ATOM     28  H   UNL     1      -7.190  -5.652  -2.154  0.00  0.00    +0.146 HD
ATOM     29  H   UNL     1      -6.629  -7.225  -1.973  0.00  0.00    +0.146 HD
ENDBRANCH  20  21
BRANCH  20  30
ATOM     30  C   UNL     1      -3.671  -2.033  -2.740  0.00  0.00    +0.033 C 
ATOM     31  C   UNL     1      -3.518  -0.512  -2.788  0.00  0.00    +0.011 C 
ATOM     32  C   UNL     1      -2.578  -2.683  -3.591  0.00  0.00    +0.011 C 
ENDBRANCH  20  30
ENDBRANCH  19  20
ENDBRANCH  17  19
ENDBRANCH   5  17
TORSDOF 7
