REMARK  Name = ZINC58950614
REMARK  7 active torsions:
REMARK  status: ('A' for Active; 'I' for Inactive)
REMARK    1  A    between atoms: C_1  and  C_2
REMARK    2  A    between atoms: C_9  and  N_27
REMARK    3  A    between atoms: C_10  and  C_23
REMARK    4  A    between atoms: C_11  and  C_13
REMARK    5  A    between atoms: C_15  and  N_20
REMARK    6  A    between atoms: C_23  and  O_25
REMARK    7  A    between atoms: O_25  and  C_26
REMARK                            x       y       z     vdW  Elec       q    Type
REMARK                         _______ _______ _______ _____ _____    ______ ____
ROOT
ATOM      1  C   UNL     1       0.517   1.529  -0.093  0.00  0.00    +0.068 C 
ATOM      2  C   UNL     1       0.296   0.039  -0.055  0.00  0.00    +0.068 A 
ATOM      3  C   UNL     1       0.170  -0.795  -1.158  0.00  0.00    +0.049 A 
ATOM      4  C   UNL     1      -0.019  -2.071  -0.704  0.00  0.00    +0.222 A 
ATOM      5  N   UNL     1      -0.009  -2.030   0.638  0.00  0.00    -0.246 N 
ATOM      6  H   UNL     1      -0.119  -2.788   1.233  0.00  0.00    +0.192 HD
ATOM      7  N   UNL     1       0.196  -0.697   1.026  0.00  0.00    -0.176 NA
ATOM      8  O   UNL     1      -0.182  -3.128  -1.538  0.00  0.00    -0.424 OA
ATOM      9  C   UNL     1      -0.428  -2.868  -2.836  0.00  0.00    +0.197 C 
ATOM     10  C   UNL     1      -0.266  -1.648  -3.404  0.00  0.00    +0.105 C 
ATOM     11  C   UNL     1       0.218  -0.452  -2.624  0.00  0.00    +0.099 C 
ENDROOT
BRANCH  11  12
ATOM     12  C   UNL     1       1.634  -0.123  -3.023  0.00  0.00    -0.015 A 
ATOM     13  C   UNL     1       2.630  -1.070  -2.877  0.00  0.00    +0.038 A 
ATOM     14  C   UNL     1       3.929  -0.769  -3.242  0.00  0.00    +0.127 A 
ATOM     15  C   UNL     1       4.232   0.480  -3.753  0.00  0.00    +0.034 A 
ATOM     16  C   UNL     1       3.237   1.427  -3.900  0.00  0.00    +0.022 A 
ATOM     17  C   UNL     1       1.935   1.124  -3.540  0.00  0.00    +0.045 A 
ATOM     18 CL   UNL     1       0.683   2.311  -3.730  0.00  0.00    -0.083 Cl
BRANCH  14  19
ATOM     19  N   UNL     1       4.996  -1.783  -3.086  0.00  0.00    +0.056 N 
ATOM     20  O   UNL     1       4.731  -2.874  -2.638  0.00  0.00    -0.126 OA
ATOM     21  O   UNL     1       6.132  -1.520  -3.405  0.00  0.00    -0.126 OA
ENDBRANCH  14  19
ENDBRANCH  11  12
BRANCH   9  22
ATOM     22  N   UNL     1      -0.869  -3.894  -3.628  0.00  0.00    -0.329 N 
ATOM     23  H   UNL     1      -0.911  -4.796  -3.273  0.00  0.00    +0.145 HD
ATOM     24  H   UNL     1      -1.139  -3.720  -4.543  0.00  0.00    +0.145 HD
ENDBRANCH   9  22
BRANCH  10  25
ATOM     25  C   UNL     1      -0.558  -1.493  -4.767  0.00  0.00    +0.341 C 
ATOM     26  O   UNL     1      -1.611  -0.987  -5.110  0.00  0.00    -0.245 OA
BRANCH  25  27
ATOM     27  O   UNL     1       0.328  -1.906  -5.699  0.00  0.00    -0.465 OA
ATOM     28  C   UNL     1      -0.035  -1.717  -7.068  0.00  0.00    +0.280 C 
ENDBRANCH  25  27
ENDBRANCH  10  25
TORSDOF 5
