REMARK  Name = ZINC66223440
REMARK  3 active torsions:
REMARK  status: ('A' for Active; 'I' for Inactive)
REMARK    1  A    between atoms: C_5  and  N_8
REMARK    2  A    between atoms: C_9  and  C_11
REMARK    3  A    between atoms: C_16  and  N_19
REMARK                            x       y       z     vdW  Elec       q    Type
REMARK                         _______ _______ _______ _____ _____    ______ ____
ROOT
ATOM      1  N   UNL     1       1.230  -2.083  -0.021  0.00  0.00    -0.276 N 
ATOM      2  C   UNL     1       2.399  -2.744  -0.138  0.00  0.00    +0.303 C 
ATOM      3  O   UNL     1       3.446  -2.128  -0.145  0.00  0.00    -0.265 OA
ATOM      4  H   UNL     1       0.400  -2.578   0.065  0.00  0.00    +0.155 HD
ENDROOT
BRANCH   1   9
ATOM      5  C   UNL     1       0.149   1.381   0.587  0.00  0.00    +0.048 A 
ATOM      6  C   UNL     1       1.173   2.085  -0.026  0.00  0.00    +0.077 A 
ATOM      7  C   UNL     1       2.221   1.403  -0.642  0.00  0.00    +0.144 A 
ATOM      8  C   UNL     1       2.240   0.020  -0.640  0.00  0.00    +0.072 A 
ATOM      9  C   UNL     1       1.213  -0.685  -0.024  0.00  0.00    +0.056 A 
ATOM     10  C   UNL     1       0.169  -0.002   0.589  0.00  0.00    +0.064 A 
ATOM     11 CL   UNL     1      -1.113  -0.886   1.356  0.00  0.00    -0.082 Cl
ATOM     12  O   UNL     1       3.217   2.108  -1.242  0.00  0.00    -0.481 OA
ATOM     13  C   UNL     1       2.852   3.352  -1.844  0.00  0.00    +0.325 C 
ATOM     14  C   UNL     1       1.985   4.139  -0.894  0.00  0.00    +0.255 C 
ATOM     15  O   UNL     1       2.021   5.352  -0.900  0.00  0.00    -0.272 OA
ATOM     16  N   UNL     1       1.169   3.489  -0.037  0.00  0.00    -0.280 N 
ATOM     17  H   UNL     1       0.589   3.984   0.563  0.00  0.00    +0.155 HD
ENDBRANCH   1   9
BRANCH   2  18
ATOM     18  C   UNL     1       2.407  -4.232  -0.259  0.00  0.00    +0.302 C 
ATOM     19  O   UNL     1       1.361  -4.847  -0.252  0.00  0.00    -0.265 OA
ATOM     20  N   UNL     1       3.576  -4.892  -0.376  0.00  0.00    -0.295 N 
ATOM     21  C   UNL     1       4.911  -4.276  -0.391  0.00  0.00    +0.106 C 
ATOM     22  C   UNL     1       5.942  -5.417  -0.514  0.00  0.00    +0.005 C 
ATOM     23  C   UNL     1       5.159  -6.650   0.009  0.00  0.00    -0.049 C 
ATOM     24  C   UNL     1       3.729  -6.353  -0.502  0.00  0.00    +0.093 C 
BRANCH  23  25
ATOM     25  N   UNL     1       5.682  -7.893  -0.574  0.00  0.00    +0.383 N 
ATOM     26  C   UNL     1       7.088  -8.107  -0.145  0.00  0.00    -0.078 C 
ATOM     27  C   UNL     1       7.289  -9.631  -0.339  0.00  0.00    -0.020 C 
ATOM     28  C   UNL     1       5.923 -10.217   0.086  0.00  0.00    -0.020 C 
ATOM     29  C   UNL     1       4.923  -9.055  -0.064  0.00  0.00    -0.078 C 
ATOM     30  H   UNL     1       5.626  -7.856  -1.581  0.00  0.00    -0.081 HD
ENDBRANCH  23  25
ENDBRANCH   2  18
TORSDOF 3
