REMARK  Name = ZINC11237656
REMARK  10 active torsions:
REMARK  status: ('A' for Active; 'I' for Inactive)
REMARK    1  A    between atoms: C_1  and  C_2
REMARK    2  A    between atoms: C_2  and  C_3
REMARK    3  A    between atoms: C_3  and  C_4
REMARK    4  A    between atoms: C_4  and  N_5
REMARK    5  A    between atoms: C_6  and  N_25
REMARK    6  A    between atoms: C_7  and  N_14
REMARK    7  A    between atoms: N_14  and  C_15
REMARK    8  A    between atoms: N_14  and  C_16
REMARK    9  A    between atoms: C_16  and  C_17
REMARK   10  A    between atoms: C_21  and  C_23
REMARK                            x       y       z     vdW  Elec       q    Type
REMARK                         _______ _______ _______ _____ _____    ______ ____
ROOT
ATOM      1  N   UNL     1       1.671  -2.643   2.379  0.00  0.00    -0.280 N 
ATOM      2  C   UNL     1       3.029  -2.850   2.467  0.00  0.00    +0.127 A 
ATOM      3  C   UNL     1       3.569  -3.261   3.656  0.00  0.00    +0.133 A 
ATOM      4  C   UNL     1       2.719  -3.461   4.758  0.00  0.00    +0.277 A 
ATOM      5  O   UNL     1       3.178  -3.827   5.828  0.00  0.00    -0.266 OA
ATOM      6  N   UNL     1       1.395  -3.246   4.626  0.00  0.00    -0.273 N 
ATOM      7  H   UNL     1       0.808  -3.383   5.386  0.00  0.00    +0.173 HD
ATOM      8  C   UNL     1       0.882  -2.837   3.452  0.00  0.00    +0.331 A 
ATOM      9  O   UNL     1      -0.315  -2.645   3.357  0.00  0.00    -0.246 OA
ENDROOT
BRANCH   2  10
ATOM     10  N   UNL     1       3.835  -2.646   1.371  0.00  0.00    -0.343 N 
ATOM     11  H   UNL     1       3.441  -2.415   0.515  0.00  0.00    +0.144 HD
ATOM     12  H   UNL     1       4.797  -2.734   1.454  0.00  0.00    +0.144 HD
ENDBRANCH   2  10
BRANCH   3  13
ATOM     13  N   UNL     1       4.961  -3.481   3.773  0.00  0.00    -0.322 N 
ATOM     14  C   UNL     1       5.471  -4.835   4.006  0.00  0.00    +0.130 C 
BRANCH  13  15
ATOM     15  C   UNL     1       5.893  -2.356   3.662  0.00  0.00    +0.140 C 
BRANCH  15  16
ATOM     16  C   UNL     1       6.047  -1.697   5.008  0.00  0.00    -0.029 A 
ATOM     17  C   UNL     1       5.140  -0.733   5.412  0.00  0.00    +0.005 A 
ATOM     18  C   UNL     1       5.274  -0.122   6.646  0.00  0.00    +0.002 A 
ATOM     19  C   UNL     1       6.314  -0.472   7.483  0.00  0.00    +0.019 A 
ATOM     20  C   UNL     1       7.232  -1.443   7.082  0.00  0.00    +0.052 A 
ATOM     21  C   UNL     1       7.088  -2.059   5.837  0.00  0.00    +0.024 A 
BRANCH  20  22
ATOM     22  C   UNL     1       8.314  -1.811   7.945  0.00  0.00    +0.099 C 
ATOM     23  N   UNL     1       9.172  -2.102   8.630  0.00  0.00    -0.191 NA
ENDBRANCH  20  22
ENDBRANCH  15  16
ENDBRANCH  13  15
ENDBRANCH   3  13
BRANCH   1  24
ATOM     24  C   UNL     1       1.082  -2.203   1.112  0.00  0.00    +0.128 C 
BRANCH  24  25
ATOM     25  C   UNL     1       1.067  -0.674   1.060  0.00  0.00    +0.021 C 
BRANCH  25  27
ATOM     26  C   UNL     1       0.438   1.315  -0.314  0.00  0.00    +0.004 C 
ATOM     27  C   UNL     1       0.452  -0.214  -0.263  0.00  0.00    -0.002 C 
ENDBRANCH  25  27
ENDBRANCH  24  25
ENDBRANCH   1  24
TORSDOF 8
