REMARK  Name = ZINC38897651
REMARK  4 active torsions:
REMARK  status: ('A' for Active; 'I' for Inactive)
REMARK    1  A    between atoms: C_9  and  O_28
REMARK    2  A    between atoms: C_10  and  C_11
REMARK    3  A    between atoms: N_12  and  N_13
REMARK    4  A    between atoms: C_14  and  C_20
REMARK                            x       y       z     vdW  Elec       q    Type
REMARK                         _______ _______ _______ _____ _____    ______ ____
ROOT
ATOM      1  N   UNL     1       7.318   0.143  -0.175  0.00  0.00    -0.172 N 
ATOM      2  C   UNL     1       8.675  -0.416  -0.316  0.00  0.00    +0.265 C 
ATOM      3  N   UNL     1       9.540   0.771  -0.392  0.00  0.00    -0.189 NA
ATOM      4  N   UNL     1       8.824   1.773  -0.310  0.00  0.00    -0.219 N 
ATOM      5  C   UNL     1       7.501   1.482  -0.187  0.00  0.00    +0.174 C 
ATOM      6  S   UNL     1       6.250   2.643  -0.059  0.00  0.00    -0.015 S 
ATOM      7  H   UNL     1       9.170   2.679  -0.336  0.00  0.00    +0.176 HD
ENDROOT
BRANCH   2   8
ATOM      8  C   UNL     1       8.782  -1.233  -1.578  0.00  0.00    +0.016 A 
ATOM      9  C   UNL     1       7.649  -1.796  -2.135  0.00  0.00    +0.010 A 
ATOM     10  C   UNL     1       7.746  -2.545  -3.292  0.00  0.00    +0.020 A 
ATOM     11  C   UNL     1       8.978  -2.731  -3.895  0.00  0.00    +0.042 A 
ATOM     12  C   UNL     1      10.112  -2.168  -3.339  0.00  0.00    +0.040 A 
ATOM     13  C   UNL     1      10.013  -1.414  -2.183  0.00  0.00    +0.049 A 
ATOM     14 CL   UNL     1      11.435  -0.701  -1.488  0.00  0.00    -0.083 Cl
ATOM     15 CL   UNL     1       9.100  -3.673  -5.348  0.00  0.00    -0.083 Cl
ENDBRANCH   2   8
BRANCH   1  17
ATOM     16  C   UNL     1       5.004   0.089   0.170  0.00  0.00    +0.142 C 
ATOM     17  N   UNL     1       6.110  -0.556  -0.061  0.00  0.00    -0.183 NA
BRANCH  16  27
ATOM     18  C   UNL     1       0.061   1.373   0.885  0.00  0.00    +0.001 A 
ATOM     19  C   UNL     1       1.259   2.082   0.914  0.00  0.00    +0.001 A 
ATOM     20  C   UNL     1       2.449   1.458   0.680  0.00  0.00    +0.009 A 
ATOM     21  C   UNL     1       2.468   0.086   0.406  0.00  0.00    -0.006 A 
ATOM     22  C   UNL     1       1.251  -0.639   0.375  0.00  0.00    -0.017 A 
ATOM     23  C   UNL     1       0.044   0.037   0.621  0.00  0.00    +0.008 A 
ATOM     24  C   UNL     1       1.272  -2.018   0.101  0.00  0.00    +0.012 A 
ATOM     25  C   UNL     1       2.446  -2.662  -0.135  0.00  0.00    +0.046 A 
ATOM     26  C   UNL     1       3.668  -1.993  -0.116  0.00  0.00    +0.126 A 
ATOM     27  C   UNL     1       3.720  -0.624   0.149  0.00  0.00    +0.044 A 
BRANCH  26  28
ATOM     28  O   UNL     1       4.816  -2.677  -0.357  0.00  0.00    -0.506 OA
ATOM     29  H   UNL     1       5.068  -2.705  -1.290  0.00  0.00    +0.292 HD
ENDBRANCH  26  28
ENDBRANCH  16  27
ENDBRANCH   1  17
TORSDOF 4
