REMARK  Name = ZINC12292294
REMARK  8 active torsions:
REMARK  status: ('A' for Active; 'I' for Inactive)
REMARK    1  A    between atoms: C_1  and  O_2
REMARK    2  A    between atoms: O_2  and  C_3
REMARK    3  A    between atoms: C_8  and  C_9
REMARK    4  A    between atoms: C_9  and  O_28
REMARK    5  A    between atoms: C_14  and  C_15
REMARK    6  A    between atoms: C_14  and  N_55
REMARK    7  A    between atoms: C_15  and  C_17
REMARK    8  A    between atoms: C_15  and  O_27
REMARK                            x       y       z     vdW  Elec       q    Type
REMARK                         _______ _______ _______ _____ _____    ______ ____
ROOT
ATOM      1  C   UNL     1       1.841  12.189   1.661  0.00  0.00    +0.091 C 
ATOM      2  C   UNL     1       0.838  11.510   2.597  0.00  0.00    +0.021 C 
ATOM      3  C   UNL     1       1.175  10.021   2.704  0.00  0.00    -0.076 C 
ATOM      4  C   UNL     1       2.106  10.013   0.467  0.00  0.00    -0.076 C 
ATOM      5  C   UNL     1       1.798  11.501   0.293  0.00  0.00    +0.021 C 
ATOM      6  N   UNL     1       1.091   9.413   1.359  0.00  0.00    +0.382 N 
ATOM      7  H   UNL     1       0.158   9.592   0.970  0.00  0.00    -0.082 HD
ENDROOT
BRANCH   1  13
ATOM      8  C   UNL     1       0.245  13.999   0.979  0.00  0.00    +0.126 A 
ATOM      9  C   UNL     1      -0.087  15.340   0.841  0.00  0.00    +0.046 A 
ATOM     10  C   UNL     1       0.815  16.316   1.217  0.00  0.00    +0.004 A 
ATOM     11  C   UNL     1       2.046  15.959   1.735  0.00  0.00    +0.001 A 
ATOM     12  C   UNL     1       2.378  14.624   1.878  0.00  0.00    +0.010 A 
ATOM     13  C   UNL     1       1.479  13.644   1.504  0.00  0.00    +0.025 A 
BRANCH   8  15
ATOM     14  C   UNL     1      -1.889  13.477   0.073  0.00  0.00    +0.277 C 
ATOM     15  O   UNL     1      -0.638  13.037   0.605  0.00  0.00    -0.495 OA
ENDBRANCH   8  15
ENDBRANCH   1  13
BRANCH   1  16
ATOM     16  O   UNL     1       3.156  12.079   2.208  0.00  0.00    -0.384 OA
ATOM     17  H   UNL     1       3.844  12.489   1.666  0.00  0.00    +0.211 HD
ENDBRANCH   1  16
BRANCH   6  18
ATOM     18  C   UNL     1       1.300   7.953   1.451  0.00  0.00    -0.042 C 
BRANCH  18  19
ATOM     19  C   UNL     1       0.012   7.306   1.964  0.00  0.00    +0.128 C 
BRANCH  19  20
ATOM     20  C   UNL     1       0.203   5.814   2.059  0.00  0.00    -0.020 A 
ATOM     21  C   UNL     1       0.100   5.034   0.908  0.00  0.00    +0.007 A 
ATOM     22  C   UNL     1       0.268   3.685   0.959  0.00  0.00    +0.009 A 
ATOM     23  C   UNL     1       0.546   3.065   2.189  0.00  0.00    -0.018 A 
ATOM     24  C   UNL     1       0.725   1.674   2.282  0.00  0.00    +0.008 A 
ATOM     25  C   UNL     1       0.994   1.108   3.490  0.00  0.00    +0.001 A 
ATOM     26  C   UNL     1       1.090   1.887   4.642  0.00  0.00    +0.001 A 
ATOM     27  C   UNL     1       0.929   3.238   4.589  0.00  0.00    +0.008 A 
ATOM     28  C   UNL     1       0.650   3.858   3.359  0.00  0.00    -0.018 A 
ATOM     29  C   UNL     1       0.471   5.249   3.267  0.00  0.00    +0.014 A 
ENDBRANCH  19  20
BRANCH  19  30
ATOM     30  O   UNL     1      -1.057   7.593   1.060  0.00  0.00    -0.389 OA
ATOM     31  H   UNL     1      -0.911   7.266   0.162  0.00  0.00    +0.210 HD
ENDBRANCH  19  30
ENDBRANCH  18  19
ENDBRANCH   6  18
TORSDOF 7
