REMARK  Name = ZINC43553945
REMARK  13 active torsions:
REMARK  status: ('A' for Active; 'I' for Inactive)
REMARK    1  A    between atoms: C_1  and  C_2
REMARK    2  A    between atoms: C_5  and  O_30
REMARK    3  A    between atoms: C_7  and  C_27
REMARK    4  A    between atoms: C_7  and  C_28
REMARK    5  A    between atoms: C_12  and  O_26
REMARK    6  A    between atoms: C_14  and  C_16
REMARK    7  A    between atoms: C_16  and  C_17
REMARK    8  A    between atoms: C_22  and  O_25
REMARK    9  A    between atoms: C_28  and  O_29
REMARK   10  A    between atoms: O_30  and  C_31
REMARK   11  A    between atoms: N_33  and  C_34
REMARK   12  A    between atoms: C_38  and  S_40
REMARK   13  A    between atoms: S_40  and  C_41
REMARK                            x       y       z     vdW  Elec       q    Type
REMARK                         _______ _______ _______ _____ _____    ______ ____
ROOT
ATOM      1  C   UNL     1       0.579   0.873  -0.834  0.00  0.00    +0.012 C 
ATOM      2  C   UNL     1       0.244  -0.615  -0.644  0.00  0.00    -0.023 C 
ATOM      3  C   UNL     1      -1.258  -0.796  -0.865  0.00  0.00    +0.011 C 
ATOM      4  C   UNL     1      -2.028  -0.038   0.218  0.00  0.00    +0.046 C 
ATOM      5  C   UNL     1      -1.696  -0.619   1.586  0.00  0.00    +0.186 C 
ATOM      6  C   UNL     1      -0.198  -0.572   1.884  0.00  0.00    +0.031 C 
ATOM      7  C   UNL     1       0.637  -1.108   0.738  0.00  0.00    +0.007 C 
ATOM      8  C   UNL     1       2.133  -0.888   0.967  0.00  0.00    +0.007 C 
ATOM      9  C   UNL     1       2.909  -1.710  -0.069  0.00  0.00    +0.032 C 
ATOM     10  C   UNL     1       2.527  -1.280  -1.481  0.00  0.00    +0.119 C 
ATOM     11  C   UNL     1       1.023  -1.386  -1.716  0.00  0.00    +0.032 C 
ATOM     12  C   UNL     1       0.205   0.843   2.297  0.00  0.00    +0.017 C 
ENDROOT
BRANCH  10  13
ATOM     13  O   UNL     1       3.203  -2.127  -2.423  0.00  0.00    -0.391 OA
ATOM     14  H   UNL     1       4.167  -2.094  -2.360  0.00  0.00    +0.210 HD
ENDBRANCH  10  13
BRANCH  11  15
ATOM     15  C   UNL     1       0.606  -2.853  -1.771  0.00  0.00    +0.102 C 
BRANCH  15  16
ATOM     16  C   UNL     1       1.134  -3.478  -3.036  0.00  0.00    +0.216 C 
ATOM     17  O   UNL     1       1.618  -2.779  -3.901  0.00  0.00    -0.276 OA
ATOM     18  N   UNL     1       1.070  -4.813  -3.206  0.00  0.00    -0.299 N 
ATOM     19  C   UNL     1       0.504  -5.776  -2.243  0.00  0.00    +0.110 C 
ATOM     20  C   UNL     1       0.097  -7.001  -3.098  0.00  0.00    +0.052 C 
ATOM     21  C   UNL     1       1.243  -7.045  -4.144  0.00  0.00    +0.133 C 
ATOM     22  C   UNL     1       1.546  -5.551  -4.385  0.00  0.00    +0.139 C 
BRANCH  21  23
ATOM     23  O   UNL     1       0.803  -7.673  -5.350  0.00  0.00    -0.390 OA
ATOM     24  H   UNL     1       0.525  -8.592  -5.236  0.00  0.00    +0.210 HD
ENDBRANCH  21  23
ENDBRANCH  15  16
ENDBRANCH  11  15
BRANCH   6  25
ATOM     25  C   UNL     1       0.034  -1.488   3.111  0.00  0.00    +0.166 C 
BRANCH  25  26
ATOM     26  O   UNL     1      -0.723  -0.998   4.221  0.00  0.00    -0.394 OA
ATOM     27  H   UNL     1      -0.625  -1.524   5.026  0.00  0.00    +0.209 HD
ENDBRANCH  25  26
ENDBRANCH   6  25
BRANCH   5  28
ATOM     28  O   UNL     1      -2.148  -1.976   1.653  0.00  0.00    -0.446 OA
BRANCH  28  29
ATOM     29  C   UNL     1      -3.402  -2.182   2.097  0.00  0.00    +0.405 C 
ATOM     30  O   UNL     1      -4.095  -1.237   2.421  0.00  0.00    -0.226 OA
ATOM     31  N   UNL     1      -3.890  -3.436   2.184  0.00  0.00    -0.251 N 
ATOM     32  H   UNL     1      -3.312  -4.194   2.006  0.00  0.00    +0.158 HD
BRANCH  31  33
ATOM     33  C   UNL     1      -5.230  -3.643   2.530  0.00  0.00    +0.037 A 
ATOM     34  C   UNL     1      -6.204  -2.746   2.109  0.00  0.00    +0.023 A 
ATOM     35  C   UNL     1      -7.527  -2.949   2.450  0.00  0.00    +0.003 A 
ATOM     36  C   UNL     1      -7.887  -4.044   3.211  0.00  0.00    +0.015 A 
ATOM     37  C   UNL     1      -6.918  -4.946   3.635  0.00  0.00    +0.009 A 
ATOM     38  C   UNL     1      -5.588  -4.747   3.289  0.00  0.00    +0.038 A 
BRANCH  37  39
ATOM     39  S   UNL     1      -7.377  -6.343   4.606  0.00  0.00    -0.129 S 
ATOM     40  C   UNL     1      -9.175  -6.180   4.787  0.00  0.00    +0.090 C 
ENDBRANCH  37  39
ENDBRANCH  31  33
ENDBRANCH  28  29
ENDBRANCH   5  28
TORSDOF 10
