REMARK  Name = ZINC04694255
REMARK  11 active torsions:
REMARK  status: ('A' for Active; 'I' for Inactive)
REMARK    1  A    between atoms: C_1  and  C_2
REMARK    2  A    between atoms: C_2  and  C_3
REMARK    3  A    between atoms: C_2  and  C_4
REMARK    4  A    between atoms: C_4  and  C_5
REMARK    5  A    between atoms: C_12  and  O_27
REMARK    6  A    between atoms: C_13  and  O_25
REMARK    7  A    between atoms: N_20  and  N_21
REMARK    8  A    between atoms: N_21  and  C_22
REMARK    9  A    between atoms: C_22  and  N_24
REMARK   10  A    between atoms: O_25  and  C_26
REMARK   11  A    between atoms: O_27  and  C_28
REMARK                            x       y       z     vdW  Elec       q    Type
REMARK                         _______ _______ _______ _____ _____    ______ ____
ROOT
ATOM      1  C   UNL     1       1.753   0.637   1.319  0.00  0.00    +0.019 C 
ATOM      2  C   UNL     1       3.157   0.828   0.736  0.00  0.00    -0.069 C 
ATOM      3  C   UNL     1       5.512   0.777   1.288  0.00  0.00    -0.073 C 
ATOM      4  C   UNL     1       6.471   0.397   2.415  0.00  0.00    +0.017 C 
ATOM      5  C   UNL     1       6.237   1.289   3.608  0.00  0.00    -0.044 A 
ATOM      6  C   UNL     1       7.226   1.369   4.577  0.00  0.00    +0.053 A 
ATOM      7  C   UNL     1       7.051   2.173   5.689  0.00  0.00    +0.162 A 
ATOM      8  C   UNL     1       5.875   2.903   5.834  0.00  0.00    +0.162 A 
ATOM      9  C   UNL     1       4.893   2.820   4.864  0.00  0.00    +0.051 A 
ATOM     10  C   UNL     1       5.072   2.013   3.748  0.00  0.00    -0.054 A 
ATOM     11  C   UNL     1       3.972   1.961   2.722  0.00  0.00    -0.032 C 
ATOM     12  C   UNL     1       2.620   1.851   3.439  0.00  0.00    +0.042 C 
ATOM     13  C   UNL     1       1.539   1.685   2.391  0.00  0.00    +0.037 C 
ATOM     14  N   UNL     1       0.482   2.406   2.411  0.00  0.00    -0.190 NA
ATOM     15  N   UNL     1       4.145   0.789   1.839  0.00  0.00    +0.385 N 
ATOM     16  H   UNL     1       3.998  -0.066   2.387  0.00  0.00    -0.081 HD
ENDROOT
BRANCH  14  17
ATOM     17  N   UNL     1      -0.755   1.844   2.068  0.00  0.00    -0.219 N 
ATOM     18  H   UNL     1      -0.827   0.891   1.907  0.00  0.00    +0.176 HD
BRANCH  17  19
ATOM     19  C   UNL     1      -1.845   2.630   1.961  0.00  0.00    +0.147 C 
ATOM     20  S   UNL     1      -3.380   1.929   1.668  0.00  0.00    -0.017 S 
BRANCH  19  21
ATOM     21  N   UNL     1      -1.728   3.966   2.086  0.00  0.00    -0.339 N 
ATOM     22  H   UNL     1      -0.858   4.364   2.252  0.00  0.00    +0.144 HD
ATOM     23  H   UNL     1      -2.512   4.532   2.010  0.00  0.00    +0.144 HD
ENDBRANCH  19  21
ENDBRANCH  17  19
ENDBRANCH  14  17
BRANCH   8  24
ATOM     24  O   UNL     1       5.693   3.696   6.924  0.00  0.00    -0.491 OA
ATOM     25  C   UNL     1       4.461   4.415   7.004  0.00  0.00    +0.277 C 
ENDBRANCH   8  24
BRANCH   7  26
ATOM     26  O   UNL     1       8.024   2.248   6.638  0.00  0.00    -0.491 OA
ATOM     27  C   UNL     1       9.202   1.470   6.421  0.00  0.00    +0.277 C 
ENDBRANCH   7  26
BRANCH   1  28
ATOM     28  C   UNL     1       0.708   0.808   0.215  0.00  0.00    +0.010 C 
BRANCH  28  30
ATOM     29  C   UNL     1       0.035   0.089  -2.082  0.00  0.00    +0.007 C 
ATOM     30  C   UNL     1       1.016  -0.155  -0.933  0.00  0.00    -0.017 C 
ATOM     31  C   UNL     1       0.876  -1.597  -0.441  0.00  0.00    +0.007 C 
ENDBRANCH  28  30
ENDBRANCH   1  28
TORSDOF 7
