REMARK  Name = ZINC65143666
REMARK  7 active torsions:
REMARK  status: ('A' for Active; 'I' for Inactive)
REMARK    1  A    between atoms: C_1  and  C_2
REMARK    2  A    between atoms: C_2  and  C_3
REMARK    3  A    between atoms: C_2  and  C_4
REMARK    4  A    between atoms: C_4  and  C_5
REMARK    5  A    between atoms: C_5  and  N_6
REMARK    6  A    between atoms: N_9  and  N_10
REMARK    7  A    between atoms: C_11  and  C_13
REMARK                            x       y       z     vdW  Elec       q    Type
REMARK                         _______ _______ _______ _____ _____    ______ ____
ROOT
ATOM      1  N   UNL     1      -5.360  -3.464  -0.087  0.00  0.00    -0.229 N 
ATOM      2  C   UNL     1      -6.624  -3.930  -0.077  0.00  0.00    +0.260 C 
ATOM      3  O   UNL     1      -6.832  -5.125  -0.174  0.00  0.00    -0.269 OA
ATOM      4  H   UNL     1      -5.194  -2.511  -0.010  0.00  0.00    +0.173 HD
ENDROOT
BRANCH   2   5
ATOM      5  C   UNL     1      -7.755  -2.993   0.050  0.00  0.00    +0.040 A 
ATOM      6  C   UNL     1      -7.514  -1.619   0.154  0.00  0.00    +0.014 A 
ATOM      7  C   UNL     1      -8.573  -0.746   0.271  0.00  0.00    +0.017 A 
ATOM      8  C   UNL     1      -9.875  -1.229   0.285  0.00  0.00    +0.030 A 
ATOM      9  C   UNL     1     -10.130  -2.601   0.184  0.00  0.00    +0.048 A 
ATOM     10  C   UNL     1      -9.065  -3.477   0.059  0.00  0.00    +0.037 A 
ATOM     11  N   UNL     1     -11.429  -3.103   0.207  0.00  0.00    -0.284 N 
ATOM     12  C   UNL     1     -12.539  -2.429  -0.083  0.00  0.00    +0.227 C 
ATOM     13  O   UNL     1     -13.598  -3.017  -0.025  0.00  0.00    -0.275 OA
ATOM     14  C   UNL     1     -12.553  -0.977  -0.477  0.00  0.00    +0.170 C 
ATOM     15  S   UNL     1     -11.235  -0.112   0.428  0.00  0.00    -0.114 S 
ATOM     16  H   UNL     1     -11.535  -4.034   0.458  0.00  0.00    +0.155 HD
ENDBRANCH   2   5
BRANCH   1  20
ATOM     17  N   UNL     1      -2.790  -2.565  -0.111  0.00  0.00    -0.298 N 
ATOM     18  C   UNL     1      -3.021  -3.888  -0.217  0.00  0.00    +0.316 C 
ATOM     19  O   UNL     1      -2.088  -4.662  -0.322  0.00  0.00    -0.251 OA
ATOM     20  N   UNL     1      -4.285  -4.355  -0.208  0.00  0.00    -0.218 N 
ATOM     21  H   UNL     1      -3.534  -1.948  -0.027  0.00  0.00    +0.150 HD
ATOM     22  H   UNL     1      -4.451  -5.307  -0.285  0.00  0.00    +0.174 HD
BRANCH  17  23
ATOM     23  C   UNL     1      -1.416  -2.058  -0.121  0.00  0.00    +0.106 C 
BRANCH  23  24
ATOM     24  C   UNL     1      -1.433  -0.534   0.013  0.00  0.00    +0.022 C 
BRANCH  24  26
ATOM     25  C   UNL     1      -0.019   1.526   0.010  0.00  0.00    +0.007 C 
ATOM     26  C   UNL     1       0.002  -0.004   0.002  0.00  0.00    -0.016 C 
ATOM     27  C   UNL     1       0.742  -0.511   1.242  0.00  0.00    +0.007 C 
ENDBRANCH  24  26
ENDBRANCH  23  24
ENDBRANCH  17  23
ENDBRANCH   1  20
TORSDOF 5
