REMARK  Name = ZINC13346771
REMARK  8 active torsions:
REMARK  status: ('A' for Active; 'I' for Inactive)
REMARK    1  A    between atoms: C_4  and  N_16
REMARK    2  A    between atoms: C_5  and  C_7
REMARK    3  A    between atoms: N_9  and  C_10
REMARK    4  A    between atoms: C_10  and  C_11
REMARK    5  A    between atoms: N_16  and  S_17
REMARK    6  A    between atoms: S_17  and  C_20
REMARK    7  A    between atoms: C_23  and  C_26
REMARK    8  A    between atoms: C_27  and  C_28
REMARK                            x       y       z     vdW  Elec       q    Type
REMARK                         _______ _______ _______ _____ _____    ______ ____
ROOT
ATOM      1  C   UNL     1       0.513   6.461  -4.075  0.00  0.00    +0.001 A 
ATOM      2  C   UNL     1       0.713   6.863  -2.763  0.00  0.00    +0.002 A 
ATOM      3  C   UNL     1       1.558   6.153  -1.936  0.00  0.00    +0.025 A 
ATOM      4  C   UNL     1       2.224   5.032  -2.417  0.00  0.00    +0.060 A 
ATOM      5  C   UNL     1       2.024   4.623  -3.744  0.00  0.00    +0.059 A 
ATOM      6  C   UNL     1       1.161   5.350  -4.568  0.00  0.00    +0.015 A 
ENDROOT
BRANCH   5   7
ATOM      7  C   UNL     1       2.720   3.432  -4.266  0.00  0.00    +0.246 C 
ATOM      8  O   UNL     1       3.470   2.802  -3.546  0.00  0.00    -0.270 OA
ATOM      9  N   UNL     1       2.525   3.043  -5.542  0.00  0.00    -0.304 N 
ATOM     10  H   UNL     1       1.926   3.545  -6.116  0.00  0.00    +0.149 HD
BRANCH   9  11
ATOM     11  C   UNL     1       3.216   1.860  -6.060  0.00  0.00    +0.179 C 
BRANCH  11  12
ATOM     12  C   UNL     1       2.829   1.642  -7.500  0.00  0.00    +0.122 A 
ATOM     13  C   UNL     1       3.460   2.156  -8.571  0.00  0.00    +0.046 A 
ATOM     14  C   UNL     1       2.765   1.699  -9.714  0.00  0.00    +0.041 A 
ATOM     15  C   UNL     1       1.751   0.933  -9.274  0.00  0.00    +0.195 A 
ATOM     16  O   UNL     1       1.798   0.898  -7.932  0.00  0.00    -0.466 OA
ENDBRANCH  11  12
ENDBRANCH   9  11
ENDBRANCH   5   7
BRANCH   4  17
ATOM     17  N   UNL     1       3.079   4.319  -1.587  0.00  0.00    -0.216 N 
ATOM     18  H   UNL     1       3.885   3.921  -1.950  0.00  0.00    +0.174 HD
BRANCH  17  19
ATOM     19  S   UNL     1       2.720   4.147   0.020  0.00  0.00    +0.072 S 
ATOM     20  O   UNL     1       2.505   5.456   0.530  0.00  0.00    -0.150 OA
ATOM     21  O   UNL     1       3.696   3.269   0.562  0.00  0.00    -0.150 OA
BRANCH  19  22
ATOM     22  C   UNL     1       1.175   3.307   0.123  0.00  0.00    +0.109 A 
ATOM     23  C   UNL     1       1.145   1.924   0.178  0.00  0.00    +0.029 A 
ATOM     24  C   UNL     1      -0.060   1.259   0.258  0.00  0.00    +0.010 A 
ATOM     25  C   UNL     1      -1.255   1.986   0.277  0.00  0.00    -0.025 A 
ATOM     26  C   UNL     1      -1.217   3.383   0.226  0.00  0.00    +0.010 A 
ATOM     27  C   UNL     1      -0.003   4.033   0.147  0.00  0.00    +0.029 A 
BRANCH  25  28
ATOM     28  C   UNL     1      -2.546   1.284   0.356  0.00  0.00    +0.015 C 
ATOM     29  C   UNL     1      -3.697   1.988   0.375  0.00  0.00    +0.096 C 
BRANCH  29  30
ATOM     30  C   UNL     1      -4.980   1.290   0.453  0.00  0.00    +0.380 C 
ATOM     31  O   UNL     1      -5.010   0.075   0.501  0.00  0.00    -0.241 OA
ATOM     32  O   UNL     1      -6.130   1.994   0.472  0.00  0.00    -0.241 OA
ENDBRANCH  29  30
ENDBRANCH  25  28
ENDBRANCH  19  22
ENDBRANCH  17  19
ENDBRANCH   4  17
TORSDOF 8
