REMARK  Name = ZINC03440647
REMARK  14 active torsions:
REMARK  status: ('A' for Active; 'I' for Inactive)
REMARK    1  A    between atoms: C_1  and  C_2
REMARK    2  A    between atoms: C_4  and  C_18
REMARK    3  A    between atoms: C_5  and  C_17
REMARK    4  A    between atoms: N_6  and  C_7
REMARK    5  A    between atoms: C_10  and  O_13
REMARK    6  A    between atoms: O_13  and  C_14
REMARK    7  A    between atoms: C_18  and  C_20
REMARK    8  A    between atoms: C_20  and  C_22
REMARK    9  A    between atoms: C_20  and  N_60
REMARK   10  A    between atoms: C_23  and  C_24
REMARK   11  A    between atoms: C_23  and  N_60
REMARK   12  A    between atoms: C_24  and  C_25
REMARK   13  A    between atoms: C_28  and  S_31
REMARK   14  A    between atoms: S_31  and  N_34
REMARK                            x       y       z     vdW  Elec       q    Type
REMARK                         _______ _______ _______ _____ _____    ______ ____
ROOT
ATOM      1  C   UNL     1       1.815  -1.795  -0.024  0.00  0.00    +0.151 C 
ATOM      2  O   UNL     1       1.030  -2.720  -0.021  0.00  0.00    -0.294 OA
ENDROOT
BRANCH   1   6
ATOM      3  C   UNL     1       1.629   3.297   0.004  0.00  0.00    +0.064 C 
ATOM      4  C   UNL     1       1.258   1.836  -0.000  0.00  0.00    +0.022 A 
ATOM      5  C   UNL     1       2.128   0.812  -0.014  0.00  0.00    +0.034 A 
ATOM      6  C   UNL     1       1.322  -0.417  -0.013  0.00  0.00    +0.037 A 
ATOM      7  C   UNL     1       0.002  -0.004   0.002  0.00  0.00    +0.031 A 
ATOM      8  N   UNL     1      -0.016   1.343   0.009  0.00  0.00    -0.317 N 
ATOM      9  C   UNL     1      -1.206  -0.905   0.009  0.00  0.00    +0.064 C 
BRANCH   8  10
ATOM     10  C   UNL     1      -1.179   2.127   0.019  0.00  0.00    +0.047 A 
ATOM     11  C   UNL     1      -2.041   2.105  -1.069  0.00  0.00    +0.030 A 
ATOM     12  C   UNL     1      -3.188   2.874  -1.056  0.00  0.00    +0.048 A 
ATOM     13  C   UNL     1      -3.473   3.677   0.039  0.00  0.00    +0.127 A 
ATOM     14  C   UNL     1      -2.609   3.704   1.124  0.00  0.00    +0.048 A 
ATOM     15  C   UNL     1      -1.464   2.931   1.115  0.00  0.00    +0.030 A 
BRANCH  13  16
ATOM     16  O   UNL     1      -4.599   4.439   0.048  0.00  0.00    -0.434 OA
BRANCH  16  17
ATOM     17  C   UNL     1      -5.443   4.362  -1.103  0.00  0.00    +0.541 C 
ATOM     18  F   UNL     1      -4.726   4.765  -2.235  0.00  0.00    -0.166 F 
ATOM     19  F   UNL     1      -5.881   3.045  -1.273  0.00  0.00    -0.166 F 
ENDBRANCH  16  17
ENDBRANCH  13  16
ENDBRANCH   8  10
ENDBRANCH   1   6
BRANCH   1  20
ATOM     20  C   UNL     1       3.297  -2.065  -0.040  0.00  0.00    -0.002 C 
ATOM     21  C   UNL     1       3.858  -1.917   1.376  0.00  0.00    -0.006 C 
BRANCH  20  22
ATOM     22  N   UNL     1       3.534  -3.439  -0.522  0.00  0.00    +0.386 N 
ATOM     23  H   UNL     1       2.834  -3.673  -1.235  0.00  0.00    -0.085 HD
ATOM     24  H   UNL     1       3.453  -4.093   0.266  0.00  0.00    -0.085 HD
BRANCH  22  25
ATOM     25  C   UNL     1       4.883  -3.550  -1.109  0.00  0.00    -0.077 C 
BRANCH  25  26
ATOM     26  C   UNL     1       5.100  -4.983  -1.599  0.00  0.00    +0.016 C 
BRANCH  26  27
ATOM     27  C   UNL     1       6.476  -5.106  -2.201  0.00  0.00    -0.049 A 
ATOM     28  C   UNL     1       6.665  -4.868  -3.549  0.00  0.00    +0.005 A 
ATOM     29  C   UNL     1       7.928  -4.976  -4.100  0.00  0.00    +0.029 A 
ATOM     30  C   UNL     1       9.001  -5.331  -3.304  0.00  0.00    +0.105 A 
ATOM     31  C   UNL     1       8.811  -5.574  -1.957  0.00  0.00    +0.029 A 
ATOM     32  C   UNL     1       7.549  -5.462  -1.405  0.00  0.00    +0.005 A 
BRANCH  30  33
ATOM     33  S   UNL     1      10.610  -5.473  -4.007  0.00  0.00    +0.056 S 
ATOM     34  O   UNL     1      10.616  -4.663  -5.175  0.00  0.00    -0.153 OA
ATOM     35  O   UNL     1      11.536  -5.285  -2.945  0.00  0.00    -0.153 OA
BRANCH  33  36
ATOM     36  N   UNL     1      10.786  -7.038  -4.516  0.00  0.00    -0.204 NA
ATOM     37  H   UNL     1      10.062  -7.672  -4.394  0.00  0.00    +0.144 HD
ATOM     38  H   UNL     1      11.613  -7.322  -4.936  0.00  0.00    +0.144 HD
ENDBRANCH  33  36
ENDBRANCH  30  33
ENDBRANCH  26  27
ENDBRANCH  25  26
ENDBRANCH  22  25
ENDBRANCH  20  22
ENDBRANCH   1  20
TORSDOF 11
