REMARK  Name = ZINC65965035
REMARK  7 active torsions:
REMARK  status: ('A' for Active; 'I' for Inactive)
REMARK    1  A    between atoms: C_1  and  C_2
REMARK    2  A    between atoms: C_2  and  N_3
REMARK    3  A    between atoms: C_7  and  C_9
REMARK    4  A    between atoms: C_9  and  C_10
REMARK    5  A    between atoms: C_9  and  N_11
REMARK    6  A    between atoms: C_14  and  C_17
REMARK    7  A    between atoms: N_19  and  C_20
REMARK                            x       y       z     vdW  Elec       q    Type
REMARK                         _______ _______ _______ _____ _____    ______ ____
ROOT
ATOM      1  N   UNL     1      -4.490  -5.619  -0.106  0.00  0.00    +0.387 N 
ATOM      2  C   UNL     1      -3.842  -6.205   1.074  0.00  0.00    -0.077 C 
ATOM      3  C   UNL     1      -3.749  -7.723   0.908  0.00  0.00    -0.006 C 
ATOM      4  C   UNL     1      -5.159  -8.302   0.757  0.00  0.00    +0.071 C 
ATOM      5  C   UNL     1      -5.852  -7.630  -0.431  0.00  0.00    -0.006 C 
ATOM      6  C   UNL     1      -5.867  -6.115  -0.216  0.00  0.00    -0.077 C 
ATOM      7  H   UNL     1      -3.974  -5.877  -0.934  0.00  0.00    -0.081 HD
ENDROOT
BRANCH   4   8
ATOM      8  C   UNL     1      -5.071  -9.787   0.515  0.00  0.00    +0.216 C 
ATOM      9  O   UNL     1      -3.988 -10.331   0.467  0.00  0.00    -0.276 OA
ATOM     10  N   UNL     1      -6.196 -10.511   0.352  0.00  0.00    -0.312 N 
ATOM     11  H   UNL     1      -7.062 -10.077   0.390  0.00  0.00    +0.149 HD
BRANCH  10  12
ATOM     12  C   UNL     1      -6.110 -11.955   0.117  0.00  0.00    +0.073 C 
ATOM     13  C   UNL     1      -5.900 -12.216  -1.376  0.00  0.00    +0.022 C 
ATOM     14  C   UNL     1      -5.810 -13.724  -1.622  0.00  0.00    +0.002 C 
ATOM     15  C   UNL     1      -7.108 -14.393  -1.165  0.00  0.00    +0.000 C 
ATOM     16  C   UNL     1      -7.318 -14.131   0.328  0.00  0.00    +0.002 C 
ATOM     17  C   UNL     1      -7.408 -12.624   0.574  0.00  0.00    +0.022 C 
ENDBRANCH  10  12
ENDBRANCH   4   8
BRANCH   1  18
ATOM     18  C   UNL     1      -4.507  -4.156   0.023  0.00  0.00    +0.017 C 
ATOM     19  C   UNL     1      -5.227  -3.546  -1.182  0.00  0.00    -0.004 C 
BRANCH  18  24
ATOM     20  N   UNL     1      -1.282  -0.869   1.403  0.00  0.00    -0.299 N 
ATOM     21  C   UNL     1      -1.555  -2.023   0.764  0.00  0.00    +0.306 C 
ATOM     22  O   UNL     1      -0.659  -2.649   0.232  0.00  0.00    -0.252 OA
ATOM     23  N   UNL     1      -2.820  -2.485   0.716  0.00  0.00    -0.242 N 
ATOM     24  C   UNL     1      -3.092  -3.640   0.077  0.00  0.00    +0.207 C 
ATOM     25  O   UNL     1      -2.199  -4.264  -0.455  0.00  0.00    -0.277 OA
ATOM     26  H   UNL     1      -1.997  -0.369   1.828  0.00  0.00    +0.150 HD
ATOM     27  H   UNL     1      -3.535  -1.986   1.141  0.00  0.00    +0.159 HD
BRANCH  20  29
ATOM     28  C   UNL     1       0.126   0.950   2.234  0.00  0.00    +0.024 C 
ATOM     29  C   UNL     1       0.093  -0.367   1.456  0.00  0.00    +0.102 C 
ENDBRANCH  20  29
ENDBRANCH  18  24
ENDBRANCH   1  18
TORSDOF 5
