REMARK  Name = ZINC51145216
REMARK  9 active torsions:
REMARK  status: ('A' for Active; 'I' for Inactive)
REMARK    1  A    between atoms: C_1  and  C_2
REMARK    2  A    between atoms: C_2  and  C_3
REMARK    3  A    between atoms: C_2  and  C_4
REMARK    4  A    between atoms: C_4  and  N_5
REMARK    5  A    between atoms: N_5  and  C_6
REMARK    6  A    between atoms: N_5  and  C_18
REMARK    7  A    between atoms: C_6  and  C_7
REMARK    8  A    between atoms: N_16  and  N_17
REMARK    9  A    between atoms: C_18  and  C_19
REMARK                            x       y       z     vdW  Elec       q    Type
REMARK                         _______ _______ _______ _____ _____    ______ ____
ROOT
ATOM      1  C   UNL     1      -4.243  -0.267  -2.620  0.00  0.00    +0.116 A 
ATOM      2  N   UNL     1      -4.957   0.834  -2.780  0.00  0.00    -0.218 NA
ATOM      3  C   UNL     1      -5.520   1.146  -3.936  0.00  0.00    +0.144 A 
ATOM      4  C   UNL     1      -5.355   0.273  -5.046  0.00  0.00    +0.049 A 
ATOM      5  C   UNL     1      -5.863   0.388  -6.402  0.00  0.00    +0.021 A 
ATOM      6  C   UNL     1      -5.574  -0.572  -7.293  0.00  0.00    +0.048 A 
ATOM      7  S   UNL     1      -4.580  -1.721  -6.360  0.00  0.00    -0.077 S 
ATOM      8  C   UNL     1      -4.580  -0.881  -4.799  0.00  0.00    +0.113 A 
ATOM      9  N   UNL     1      -4.050  -1.112  -3.614  0.00  0.00    -0.227 NA
ATOM     10  N   UNL     1      -6.261   2.307  -4.062  0.00  0.00    -0.267 N 
ATOM     11  H   UNL     1      -6.671   2.531  -4.912  0.00  0.00    +0.167 HD
ENDROOT
BRANCH  10  12
ATOM     12  N   UNL     1      -6.414   3.140  -2.990  0.00  0.00    -0.255 NA
ATOM     13  H   UNL     1      -5.519   3.424  -2.622  0.00  0.00    +0.140 HD
ATOM     14  H   UNL     1      -6.976   3.942  -3.233  0.00  0.00    +0.140 HD
ENDBRANCH  10  12
BRANCH   1  15
ATOM     15  C   UNL     1      -3.630  -0.558  -1.274  0.00  0.00    -0.001 C 
BRANCH  15  16
ATOM     16  N   UNL     1      -2.278   0.013  -1.217  0.00  0.00    +0.390 N 
ATOM     17  H   UNL     1      -2.319   0.997  -1.439  0.00  0.00    -0.081 HD
BRANCH  16  18
ATOM     18  C   UNL     1      -1.729  -0.163   0.134  0.00  0.00    -0.075 C 
BRANCH  18  20
ATOM     19  C   UNL     1      -0.637   2.084   0.096  0.00  0.00    +0.005 C 
ATOM     20  C   UNL     1      -0.396   0.580   0.243  0.00  0.00    -0.034 C 
ATOM     21  C   UNL     1       0.236   0.296   1.607  0.00  0.00    +0.005 C 
ENDBRANCH  18  20
ENDBRANCH  16  18
BRANCH  16  22
ATOM     22  C   UNL     1      -1.416  -0.672  -2.189  0.00  0.00    +0.019 C 
BRANCH  22  23
ATOM     23  C   UNL     1      -1.307  -2.130  -1.824  0.00  0.00    +0.194 C 
ATOM     24  O   UNL     1      -1.964  -2.577  -0.908  0.00  0.00    -0.278 OA
ATOM     25  N   UNL     1      -0.480  -2.938  -2.517  0.00  0.00    -0.331 N 
ATOM     26  H   UNL     1       0.046  -2.581  -3.249  0.00  0.00    +0.145 HD
ATOM     27  H   UNL     1      -0.410  -3.877  -2.281  0.00  0.00    +0.145 HD
ENDBRANCH  22  23
ENDBRANCH  16  22
ENDBRANCH  15  16
ENDBRANCH   1  15
TORSDOF 7
