REMARK  Name = ZINC39464403
REMARK  7 active torsions:
REMARK  status: ('A' for Active; 'I' for Inactive)
REMARK    1  A    between atoms: C_1  and  C_2
REMARK    2  A    between atoms: C_2  and  C_3
REMARK    3  A    between atoms: C_2  and  S_4
REMARK    4  A    between atoms: S_4  and  C_7
REMARK    5  A    between atoms: C_12  and  O_13
REMARK    6  A    between atoms: P_21  and  C_24
REMARK    7  A    between atoms: C_29  and  O_30
REMARK                            x       y       z     vdW  Elec       q    Type
REMARK                         _______ _______ _______ _____ _____    ______ ____
ROOT
ATOM      1  C   UNL     1      -1.536  -2.381   0.152  0.00  0.00    +0.130 A 
ATOM      2  C   UNL     1      -2.002  -3.033   1.275  0.00  0.00    +0.036 A 
ATOM      3  C   UNL     1      -1.877  -4.410   1.393  0.00  0.00    -0.021 A 
ATOM      4  C   UNL     1      -1.283  -5.131   0.378  0.00  0.00    -0.038 A 
ATOM      5  C   UNL     1      -0.815  -4.481  -0.752  0.00  0.00    +0.051 A 
ATOM      6  C   UNL     1      -0.944  -3.106  -0.871  0.00  0.00    +0.142 A 
ATOM      7  C   UNL     1      -1.125  -6.628   0.465  0.00  0.00    +0.052 C 
ATOM      8  C   UNL     1      -2.083  -7.185   1.518  0.00  0.00    +0.108 C 
ATOM      9  N   UNL     1      -1.898  -6.436   2.770  0.00  0.00    -0.225 NA
ATOM     10  C   UNL     1      -2.403  -5.069   2.641  0.00  0.00    +0.129 C 
ATOM     11  C   UNL     1      -2.013  -4.221   3.855  0.00  0.00    +0.194 C 
ATOM     12  O   UNL     1      -2.618  -4.794   5.032  0.00  0.00    -0.311 OA
ATOM     13  P   UNL     1      -2.432  -6.388   5.296  0.00  0.00    +0.318 P 
ATOM     14  O   UNL     1      -3.518  -6.892   6.167  0.00  0.00    -0.266 OA
ATOM     15  N   UNL     1      -2.517  -7.099   3.806  0.00  0.00    -0.175 NA
ATOM     16  H   UNL     1      -2.980  -7.941   3.669  0.00  0.00    +0.151 HD
ENDROOT
BRANCH  13  17
ATOM     17  C   UNL     1      -0.818  -6.713   6.057  0.00  0.00    +0.094 A 
ATOM     18  C   UNL     1       0.285  -6.954   5.262  0.00  0.00    +0.018 A 
ATOM     19  C   UNL     1       1.516  -7.202   5.842  0.00  0.00    +0.001 A 
ATOM     20  C   UNL     1       1.645  -7.209   7.218  0.00  0.00    +0.004 A 
ATOM     21  C   UNL     1       0.545  -6.968   8.018  0.00  0.00    +0.046 A 
ATOM     22  C   UNL     1      -0.690  -6.713   7.439  0.00  0.00    +0.131 A 
BRANCH  22  23
ATOM     23  O   UNL     1      -1.772  -6.470   8.223  0.00  0.00    -0.506 OA
ATOM     24  H   UNL     1      -2.268  -7.264   8.467  0.00  0.00    +0.292 HD
ENDBRANCH  22  23
ENDBRANCH  13  17
BRANCH   1  25
ATOM     25  S   UNL     1      -1.700  -0.632   0.015  0.00  0.00    +0.003 S 
ATOM     26  O   UNL     1      -2.359  -0.234   1.209  0.00  0.00    -0.169 OA
ATOM     27  O   UNL     1      -2.308  -0.423  -1.252  0.00  0.00    -0.169 OA
BRANCH  25  29
ATOM     28  C   UNL     1      -0.019   1.526   0.010  0.00  0.00    +0.032 C 
ATOM     29  C   UNL     1       0.002  -0.004   0.002  0.00  0.00    +0.130 C 
ATOM     30  C   UNL     1       0.742  -0.511   1.242  0.00  0.00    +0.032 C 
ENDBRANCH  25  29
ENDBRANCH   1  25
BRANCH   6  31
ATOM     31  O   UNL     1      -0.488  -2.471  -1.983  0.00  0.00    -0.505 OA
ATOM     32  H   UNL     1       0.433  -2.184  -1.922  0.00  0.00    +0.292 HD
ENDBRANCH   6  31
TORSDOF 5
