REMARK  Name = ZINC00202346
REMARK  4 active torsions:
REMARK  status: ('A' for Active; 'I' for Inactive)
REMARK    1  A    between atoms: C_1  and  S_2
REMARK    2  A    between atoms: S_2  and  C_3
REMARK    3  A    between atoms: C_6  and  C_9
REMARK    4  A    between atoms: N_13  and  C_17
REMARK                            x       y       z     vdW  Elec       q    Type
REMARK                         _______ _______ _______ _____ _____    ______ ____
ROOT
ATOM      1  C   UNL     1      -1.108   2.275   0.020  0.00  0.00    +0.036 C 
ATOM      2  C   UNL     1      -0.043   1.474   0.282  0.00  0.00    +0.099 C 
ATOM      3  C   UNL     1      -0.066   0.052   0.653  0.00  0.00    +0.273 C 
ATOM      4  O   UNL     1      -1.050  -0.651   0.792  0.00  0.00    -0.268 OA
ATOM      5  N   UNL     1       1.221  -0.317   0.808  0.00  0.00    -0.189 N 
ATOM      6  C   UNL     1       2.027   0.729   0.571  0.00  0.00    +0.318 C 
ATOM      7  O   UNL     1       3.241   0.692   0.635  0.00  0.00    -0.251 OA
ATOM      8  N   UNL     1       1.314   1.824   0.252  0.00  0.00    -0.264 N 
ATOM      9  H   UNL     1       1.675   2.700   0.040  0.00  0.00    +0.157 HD
ENDROOT
BRANCH   5  10
ATOM     10  C   UNL     1       1.653  -1.602   1.163  0.00  0.00    +0.047 A 
ATOM     11  C   UNL     1       0.725  -2.610   1.391  0.00  0.00    +0.024 A 
ATOM     12  C   UNL     1       1.153  -3.877   1.738  0.00  0.00    +0.003 A 
ATOM     13  C   UNL     1       2.505  -4.140   1.867  0.00  0.00    +0.020 A 
ATOM     14  C   UNL     1       3.432  -3.137   1.645  0.00  0.00    +0.043 A 
ATOM     15  C   UNL     1       3.009  -1.869   1.294  0.00  0.00    +0.044 A 
ATOM     16 CL   UNL     1       5.128  -3.472   1.810  0.00  0.00    -0.083 Cl
ENDBRANCH   5  10
BRANCH   1  20
ATOM     17  C   UNL     1      -4.984   0.610  -0.290  0.00  0.00    +0.008 A 
ATOM     18  C   UNL     1      -4.807   1.848   0.325  0.00  0.00    +0.015 A 
ATOM     19  C   UNL     1      -3.557   2.389   0.427  0.00  0.00    +0.009 A 
ATOM     20  C   UNL     1      -2.452   1.698  -0.087  0.00  0.00    -0.023 A 
ATOM     21  C   UNL     1      -2.636   0.456  -0.710  0.00  0.00    +0.009 A 
ATOM     22  C   UNL     1      -3.888  -0.081  -0.802  0.00  0.00    +0.015 A 
BRANCH  17  24
ATOM     23  C   UNL     1      -6.331  -1.661  -1.273  0.00  0.00    +0.090 C 
ATOM     24  S   UNL     1      -6.599  -0.084  -0.419  0.00  0.00    -0.129 S 
ENDBRANCH  17  24
ENDBRANCH   1  20
TORSDOF 3
