REMARK  Name = ZINC50710089
REMARK  8 active torsions:
REMARK  status: ('A' for Active; 'I' for Inactive)
REMARK    1  A    between atoms: C_1  and  C_2
REMARK    2  A    between atoms: C_2  and  C_3
REMARK    3  A    between atoms: C_2  and  C_4
REMARK    4  A    between atoms: C_2  and  C_5
REMARK    5  A    between atoms: C_5  and  N_6
REMARK    6  A    between atoms: N_6  and  C_7
REMARK    7  A    between atoms: C_8  and  C_10
REMARK    8  A    between atoms: C_18  and  N_20
REMARK                            x       y       z     vdW  Elec       q    Type
REMARK                         _______ _______ _______ _____ _____    ______ ____
ROOT
ATOM      1  C   UNL     1       3.594   1.693  -2.483  0.00  0.00    +0.128 A 
ATOM      2  C   UNL     1       3.685   2.864  -3.213  0.00  0.00    +0.041 A 
ATOM      3  C   UNL     1       4.960   3.335  -3.579  0.00  0.00    -0.012 A 
ATOM      4  C   UNL     1       5.133   4.514  -4.318  0.00  0.00    +0.009 A 
ATOM      5  C   UNL     1       6.392   4.923  -4.644  0.00  0.00    +0.001 A 
ATOM      6  C   UNL     1       7.507   4.186  -4.253  0.00  0.00    +0.001 A 
ATOM      7  C   UNL     1       7.373   3.035  -3.534  0.00  0.00    +0.012 A 
ATOM      8  C   UNL     1       6.095   2.585  -3.181  0.00  0.00    +0.022 A 
ATOM      9  C   UNL     1       5.901   1.398  -2.435  0.00  0.00    +0.125 A 
ATOM     10  N   UNL     1       4.684   1.011  -2.118  0.00  0.00    -0.227 NA
ENDROOT
BRANCH   1  13
ATOM     11  N   UNL     1       2.157   0.119  -1.276  0.00  0.00    -0.299 N 
ATOM     12  C   UNL     1       3.360  -0.466  -0.680  0.00  0.00    +0.132 C 
ATOM     13  C   UNL     1       2.260   1.187  -2.092  0.00  0.00    +0.265 C 
ATOM     14  O   UNL     1       1.257   1.735  -2.507  0.00  0.00    -0.268 OA
BRANCH  11  15
ATOM     15  C   UNL     1       0.841  -0.456  -0.986  0.00  0.00    +0.114 C 
BRANCH  15  17
ATOM     16  C   UNL     1       0.102   1.724  -0.014  0.00  0.00    +0.012 C 
ATOM     17  C   UNL     1       0.249   0.224   0.250  0.00  0.00    -0.022 C 
ATOM     18  C   UNL     1       1.177   0.005   1.446  0.00  0.00    +0.012 C 
ATOM     19  C   UNL     1      -1.125  -0.378   0.553  0.00  0.00    +0.012 C 
ENDBRANCH  15  17
ENDBRANCH  11  15
ENDBRANCH   1  13
BRANCH   9  20
ATOM     20  N   UNL     1       6.992   0.646  -2.034  0.00  0.00    -0.343 N 
ATOM     21  H   UNL     1       7.890   0.934  -2.264  0.00  0.00    +0.144 HD
ATOM     22  H   UNL     1       6.859  -0.167  -1.523  0.00  0.00    +0.144 HD
ENDBRANCH   9  20
TORSDOF 4
