REMARK  Name = ZINC09716022
REMARK  9 active torsions:
REMARK  status: ('A' for Active; 'I' for Inactive)
REMARK    1  A    between atoms: C_4  and  C_7
REMARK    2  A    between atoms: C_7  and  C_8
REMARK    3  A    between atoms: C_8  and  C_9
REMARK    4  A    between atoms: C_9  and  C_10
REMARK    5  A    between atoms: C_10  and  C_11
REMARK    6  A    between atoms: C_12  and  C_19
REMARK    7  A    between atoms: N_21  and  N_22
REMARK    8  A    between atoms: N_22  and  S_23
REMARK    9  A    between atoms: S_23  and  C_26
REMARK                            x       y       z     vdW  Elec       q    Type
REMARK                         _______ _______ _______ _____ _____    ______ ____
ROOT
ATOM      1  C   UNL     1      -4.103  -0.519   4.064  0.00  0.00    +0.047 A 
ATOM      2  C   UNL     1      -3.888   0.376   3.063  0.00  0.00    +0.138 A 
ATOM      3  N   UNL     1      -4.887   0.604   2.146  0.00  0.00    -0.211 NA
ATOM      4  C   UNL     1      -6.067  -0.059   2.223  0.00  0.00    +0.194 A 
ATOM      5  N   UNL     1      -6.316  -0.934   3.176  0.00  0.00    -0.295 N 
ATOM      6  C   UNL     1      -5.398  -1.209   4.112  0.00  0.00    +0.257 A 
ATOM      7  O   UNL     1      -5.635  -2.022   4.992  0.00  0.00    -0.267 OA
ATOM      8  N   UNL     1      -7.032   0.194   1.286  0.00  0.00    -0.329 N 
ATOM      9  H   UNL     1      -7.995  -0.334   1.332  0.00  0.00    +0.145 HD
ATOM     10  H   UNL     1      -6.843   0.925   0.486  0.00  0.00    +0.145 HD
ATOM     11  H   UNL     1      -7.287  -1.449   3.210  0.00  0.00    +0.172 HD
ENDROOT
BRANCH   2  12
ATOM     12  C   UNL     1      -2.599   1.101   2.966  0.00  0.00    +0.278 C 
ATOM     13  O   UNL     1      -1.765   0.977   3.841  0.00  0.00    -0.267 OA
ATOM     14  N   UNL     1      -2.352   1.897   1.907  0.00  0.00    -0.227 N 
ATOM     15  H   UNL     1      -3.107   2.010   1.115  0.00  0.00    +0.171 HD
BRANCH  14  16
ATOM     16  N   UNL     1      -1.133   2.583   1.816  0.00  0.00    -0.108 NA
ATOM     17  H   UNL     1      -0.846   3.160   2.540  0.00  0.00    +0.172 HD
BRANCH  16  18
ATOM     18  S   UNL     1      -0.183   2.406   0.471  0.00  0.00    +0.074 S 
ATOM     19  O   UNL     1       0.023   1.010   0.299  0.00  0.00    -0.152 OA
ATOM     20  O   UNL     1       0.894   3.323   0.611  0.00  0.00    -0.152 OA
BRANCH  18  21
ATOM     21  C   UNL     1      -1.131   2.949  -0.911  0.00  0.00    +0.107 A 
ATOM     22  C   UNL     1      -1.917   2.049  -1.607  0.00  0.00    +0.028 A 
ATOM     23  C   UNL     1      -2.664   2.477  -2.689  0.00  0.00    +0.002 A 
ATOM     24  C   UNL     1      -2.617   3.801  -3.081  0.00  0.00    +0.000 A 
ATOM     25  C   UNL     1      -1.827   4.700  -2.389  0.00  0.00    +0.002 A 
ATOM     26  C   UNL     1      -1.084   4.274  -1.304  0.00  0.00    +0.028 A 
ENDBRANCH  18  21
ENDBRANCH  16  18
ENDBRANCH  14  16
ENDBRANCH   2  12
BRANCH   1  27
ATOM     27  C   UNL     1      -3.039  -0.797   5.095  0.00  0.00    +0.043 C 
BRANCH  27  28
ATOM     28  C   UNL     1      -3.120   0.252   6.206  0.00  0.00    +0.005 C 
BRANCH  28  29
ATOM     29  C   UNL     1      -2.041  -0.030   7.253  0.00  0.00    +0.005 C 
BRANCH  29  30
ATOM     30  C   UNL     1      -2.121   1.020   8.363  0.00  0.00    +0.035 C 
BRANCH  30  34
ATOM     31  C   UNL     1       0.893   0.233  11.287  0.00  0.00    +0.000 A 
ATOM     32  C   UNL     1       1.171   1.056  10.211  0.00  0.00    +0.000 A 
ATOM     33  C   UNL     1       0.196   1.311   9.265  0.00  0.00    +0.003 A 
ATOM     34  C   UNL     1      -1.058   0.742   9.395  0.00  0.00    -0.047 A 
ATOM     35  C   UNL     1      -1.337  -0.077  10.473  0.00  0.00    +0.003 A 
ATOM     36  C   UNL     1      -0.360  -0.335  11.416  0.00  0.00    +0.000 A 
ENDBRANCH  30  34
ENDBRANCH  29  30
ENDBRANCH  28  29
ENDBRANCH  27  28
ENDBRANCH   1  27
TORSDOF 9
