REMARK  Name = ZINC64538943
REMARK  9 active torsions:
REMARK  status: ('A' for Active; 'I' for Inactive)
REMARK    1  A    between atoms: C_1  and  C_2
REMARK    2  A    between atoms: C_5  and  C_33
REMARK    3  A    between atoms: C_7  and  C_8
REMARK    4  A    between atoms: C_14  and  C_17
REMARK    5  A    between atoms: N_19  and  C_20
REMARK    6  A    between atoms: C_20  and  C_21
REMARK    7  A    between atoms: C_21  and  C_22
REMARK    8  A    between atoms: C_25  and  O_31
REMARK    9  A    between atoms: O_31  and  C_32
REMARK                            x       y       z     vdW  Elec       q    Type
REMARK                         _______ _______ _______ _____ _____    ______ ____
ROOT
ATOM      1  C   UNL     1       5.894  -1.462   4.332  0.00  0.00    +0.218 C 
ATOM      2  O   UNL     1       6.138  -1.833   5.461  0.00  0.00    -0.275 OA
ATOM      3  N   UNL     1       6.819  -0.773   3.635  0.00  0.00    -0.315 N 
ATOM      4  H   UNL     1       6.625  -0.476   2.732  0.00  0.00    +0.149 HD
ENDROOT
BRANCH   1  11
ATOM      5  C   UNL     1       2.068  -0.315   1.672  0.00  0.00    +0.261 C 
ATOM      6  O   UNL     1       2.842   0.258   0.930  0.00  0.00    -0.269 OA
ATOM      7  N   UNL     1       2.495  -0.777   2.865  0.00  0.00    -0.296 N 
ATOM      8  C   UNL     1       1.618  -1.603   3.705  0.00  0.00    +0.108 C 
ATOM      9  C   UNL     1       2.354  -2.898   4.061  0.00  0.00    +0.020 C 
ATOM     10  C   UNL     1       3.699  -2.555   4.705  0.00  0.00    +0.016 C 
ATOM     11  C   UNL     1       4.557  -1.770   3.709  0.00  0.00    +0.092 C 
ATOM     12  C   UNL     1       3.848  -0.467   3.346  0.00  0.00    +0.120 C 
BRANCH   5  18
ATOM     13  C   UNL     1       0.164   1.313  -0.384  0.00  0.00    +0.018 C 
ATOM     14  C   UNL     1       0.053  -0.183  -0.081  0.00  0.00    +0.064 C 
ATOM     15  C   UNL     1      -1.399  -0.589   0.100  0.00  0.00    +0.005 C 
ATOM     16  C   UNL     1      -1.479  -1.040   1.355  0.00  0.00    +0.035 C 
ATOM     17  N   UNL     1      -0.307  -0.984   1.996  0.00  0.00    -0.251 NA
ATOM     18  C   UNL     1       0.665  -0.505   1.268  0.00  0.00    +0.110 C 
ATOM     19  C   UNL     1      -2.751  -1.556   1.979  0.00  0.00    +0.065 C 
ENDBRANCH   5  18
ENDBRANCH   1  11
BRANCH   3  20
ATOM     20  C   UNL     1       8.119  -0.473   4.240  0.00  0.00    +0.108 C 
BRANCH  20  21
ATOM     21  C   UNL     1       8.976   0.312   3.244  0.00  0.00    +0.052 C 
BRANCH  21  22
ATOM     22  C   UNL     1      10.313   0.621   3.867  0.00  0.00    -0.040 C 
ATOM     23  C   UNL     1      11.457  -0.088   3.731  0.00  0.00    +0.002 A 
ATOM     24  C   UNL     1      11.787  -1.313   2.993  0.00  0.00    +0.055 A 
ATOM     25  C   UNL     1      13.049  -1.803   3.045  0.00  0.00    +0.121 A 
ATOM     26  C   UNL     1      14.067  -1.178   3.787  0.00  0.00    +0.047 A 
ATOM     27  C   UNL     1      13.860  -0.049   4.498  0.00  0.00    +0.029 A 
ATOM     28  C   UNL     1      12.530   0.569   4.512  0.00  0.00    +0.043 A 
ATOM     29  N   UNL     1      12.069   1.641   5.106  0.00  0.00    -0.380 N 
ATOM     30  C   UNL     1      10.650   1.790   4.765  0.00  0.00    +0.144 C 
ATOM     31  H   UNL     1      12.581   2.238   5.674  0.00  0.00    +0.160 HD
BRANCH  25  32
ATOM     32  O   UNL     1      13.340  -2.938   2.357  0.00  0.00    -0.495 OA
ATOM     33  C   UNL     1      14.683  -3.420   2.439  0.00  0.00    +0.277 C 
ENDBRANCH  25  32
ENDBRANCH  21  22
ENDBRANCH  20  21
ENDBRANCH   3  20
TORSDOF 6
