REMARK  Name = ZINC67554586
REMARK  10 active torsions:
REMARK  status: ('A' for Active; 'I' for Inactive)
REMARK    1  A    between atoms: C_1  and  C_2
REMARK    2  A    between atoms: C_2  and  C_4
REMARK    3  A    between atoms: C_2  and  N_12
REMARK    4  A    between atoms: C_4  and  C_5
REMARK    5  A    between atoms: C_8  and  O_11
REMARK    6  A    between atoms: C_13  and  C_15
REMARK    7  A    between atoms: N_17  and  C_18
REMARK    8  A    between atoms: C_22  and  N_24
REMARK    9  A    between atoms: C_25  and  O_27
REMARK   10  A    between atoms: O_27  and  C_28
REMARK                            x       y       z     vdW  Elec       q    Type
REMARK                         _______ _______ _______ _____ _____    ______ ____
ROOT
ATOM      1  C   UNL     1      -3.445  -1.140  -1.161  0.00  0.00    +0.303 C 
ATOM      2  O   UNL     1      -3.967  -1.443  -0.108  0.00  0.00    -0.265 OA
ATOM      3  N   UNL     1      -4.127  -1.277  -2.315  0.00  0.00    -0.278 N 
ATOM      4  H   UNL     1      -3.735  -0.973  -3.149  0.00  0.00    +0.155 HD
ENDROOT
BRANCH   3   5
ATOM      5  C   UNL     1      -5.398  -1.858  -2.312  0.00  0.00    +0.036 A 
ATOM      6  C   UNL     1      -6.260  -1.639  -1.244  0.00  0.00    +0.026 A 
ATOM      7  C   UNL     1      -7.516  -2.212  -1.239  0.00  0.00    +0.042 A 
ATOM      8  C   UNL     1      -7.921  -3.006  -2.297  0.00  0.00    +0.145 A 
ATOM      9  C   UNL     1      -7.063  -3.229  -3.369  0.00  0.00    +0.073 A 
ATOM     10  C   UNL     1      -5.803  -2.649  -3.378  0.00  0.00    +0.049 A 
ATOM     11  F   UNL     1      -9.151  -3.566  -2.289  0.00  0.00    -0.204 F 
BRANCH   9  12
ATOM     12  N   UNL     1      -7.473  -4.033  -4.440  0.00  0.00    -0.248 N 
ATOM     13  C   UNL     1      -6.578  -4.810  -5.080  0.00  0.00    +0.404 C 
ATOM     14  O   UNL     1      -5.401  -4.752  -4.783  0.00  0.00    -0.226 OA
ATOM     15  H   UNL     1      -8.402  -4.030  -4.721  0.00  0.00    +0.158 HD
BRANCH  13  16
ATOM     16  O   UNL     1      -6.987  -5.651  -6.049  0.00  0.00    -0.453 OA
ATOM     17  C   UNL     1      -5.984  -6.445  -6.685  0.00  0.00    +0.282 C 
ENDBRANCH  13  16
ENDBRANCH   9  12
ENDBRANCH   3   5
BRANCH   1  19
ATOM     18  N   UNL     1      -1.366  -0.476  -0.022  0.00  0.00    -0.305 N 
ATOM     19  C   UNL     1      -2.048  -0.613  -1.176  0.00  0.00    +0.300 C 
ATOM     20  O   UNL     1      -1.525  -0.310  -2.229  0.00  0.00    -0.265 OA
ATOM     21  H   UNL     1      -1.784  -0.719   0.820  0.00  0.00    +0.149 HD
BRANCH  18  23
ATOM     22  C   UNL     1      -0.026   1.570  -0.030  0.00  0.00    +0.028 C 
ATOM     23  C   UNL     1       0.005   0.040  -0.037  0.00  0.00    +0.075 C 
BRANCH  23  24
ATOM     24  C   UNL     1       0.752  -0.460   1.201  0.00  0.00    +0.057 C 
BRANCH  24  25
ATOM     25  C   UNL     1       0.890  -1.959   1.133  0.00  0.00    -0.045 A 
ATOM     26  C   UNL     1      -0.092  -2.768   1.676  0.00  0.00    +0.007 A 
ATOM     27  C   UNL     1       0.032  -4.142   1.615  0.00  0.00    +0.045 A 
ATOM     28  C   UNL     1       1.142  -4.711   1.008  0.00  0.00    +0.117 A 
ATOM     29  C   UNL     1       2.125  -3.898   0.463  0.00  0.00    +0.045 A 
ATOM     30  C   UNL     1       1.994  -2.524   0.522  0.00  0.00    +0.007 A 
BRANCH  28  31
ATOM     31  O   UNL     1       1.267  -6.063   0.947  0.00  0.00    -0.507 OA
ATOM     32  H   UNL     1       0.877  -6.459   0.155  0.00  0.00    +0.292 HD
ENDBRANCH  28  31
ENDBRANCH  24  25
ENDBRANCH  23  24
ENDBRANCH  18  23
ENDBRANCH   1  19
TORSDOF 8
