REMARK  Name = ZINC01813283
REMARK  15 active torsions:
REMARK  status: ('A' for Active; 'I' for Inactive)
REMARK    1  A    between atoms: C_1  and  C_2
REMARK    2  A    between atoms: C_5  and  N_30
REMARK    3  A    between atoms: C_14  and  O_29
REMARK    4  A    between atoms: C_17  and  C_28
REMARK    5  A    between atoms: C_22  and  C_23
REMARK    6  A    between atoms: C_22  and  O_27
REMARK    7  A    between atoms: C_23  and  C_25
REMARK    8  A    between atoms: C_25  and  O_26
REMARK    9  A    between atoms: N_30  and  O_31
REMARK   10  A    between atoms: O_31  and  C_32
REMARK   11  A    between atoms: C_32  and  C_33
REMARK   12  A    between atoms: N_35  and  CA_36
REMARK   13  A    between atoms: CA_36  and  CB_38
REMARK   14  A    between atoms: CA_36  and  C_45
REMARK   15  A    between atoms: CB_38  and  CG_39
REMARK                            x       y       z     vdW  Elec       q    Type
REMARK                         _______ _______ _______ _____ _____    ______ ____
ROOT
ATOM      1  C   UNK A   0      -0.584   1.989  -1.642  0.00  0.00    +0.016 C 
ATOM      2  C   UNK A   0      -0.330   0.522  -1.290  0.00  0.00    -0.002 C 
ATOM      3  C   UNK A   0       0.261  -0.200  -2.500  0.00  0.00    +0.040 C 
ATOM      4  C   UNK A   0       1.677   0.255  -2.731  0.00  0.00    +0.001 C 
ATOM      5  C   UNK A   0       2.463   0.560  -1.694  0.00  0.00    +0.057 C 
ATOM      6  C   UNK A   0       1.932   0.452  -0.321  0.00  0.00    +0.027 C 
ATOM      7  C   UNK A   0       0.626   0.440  -0.129  0.00  0.00    -0.061 C 
ATOM      8  C   UNK A   0       0.058   0.335   1.263  0.00  0.00    +0.031 C 
ATOM      9  C   UNK A   0      -0.802  -0.917   1.368  0.00  0.00    +0.008 C 
ATOM     10  C   UNK A   0      -1.371  -1.345   0.020  0.00  0.00    -0.001 C 
ATOM     11  C   UNK A   0      -1.653  -0.148  -0.890  0.00  0.00    +0.031 C 
ATOM     12  C   UNK A   0      -2.379  -0.545  -2.174  0.00  0.00    +0.119 C 
ATOM     13  C   UNK A   0      -3.631  -1.389  -1.904  0.00  0.00    +0.041 C 
ATOM     14  C   UNK A   0      -3.178  -2.606  -1.117  0.00  0.00    +0.009 C 
ATOM     15  C   UNK A   0      -2.679  -2.083   0.255  0.00  0.00    +0.002 C 
ATOM     16  C   UNK A   0      -2.570  -3.381   1.063  0.00  0.00    +0.008 C 
ATOM     17  C   UNK A   0      -3.850  -4.157   0.650  0.00  0.00    +0.043 C 
ATOM     18  C   UNK A   0      -4.266  -3.606  -0.737  0.00  0.00    +0.131 C 
ATOM     19  C   UNK A   0      -2.051  -3.321  -1.865  0.00  0.00    +0.015 C 
ENDROOT
BRANCH  18  20
ATOM     20  C   UNK A   0      -5.602  -2.915  -0.644  0.00  0.00    +0.190 C 
ATOM     21  O   UNK A   0      -5.952  -2.414   0.397  0.00  0.00    -0.292 OA
BRANCH  20  22
ATOM     22  C   UNK A   0      -6.501  -2.847  -1.852  0.00  0.00    +0.233 C 
BRANCH  22  23
ATOM     23  O   UNK A   0      -7.700  -2.147  -1.515  0.00  0.00    -0.387 OA
ATOM     24  H   UNK A   0      -8.326  -2.065  -2.247  0.00  0.00    +0.210 HD
ENDBRANCH  22  23
ENDBRANCH  20  22
ENDBRANCH  18  20
BRANCH  18  25
ATOM     25  O   UNK A   0      -4.322  -4.666  -1.694  0.00  0.00    -0.380 OA
ATOM     26  H   UNK A   0      -4.995  -5.333  -1.504  0.00  0.00    +0.211 HD
ENDBRANCH  18  25
BRANCH  12  27
ATOM     27  O   UNK A   0      -1.485  -1.298  -2.996  0.00  0.00    -0.391 OA
ATOM     28  H   UNK A   0      -1.871  -1.589  -3.833  0.00  0.00    +0.210 HD
ENDBRANCH  12  27
BRANCH   5  29
ATOM     29  N   UNK A   0       3.778   0.978  -1.908  0.00  0.00    -0.266 N 
ATOM     30  H   UNK A   0       4.346   1.199  -1.153  0.00  0.00    +0.194 HD
BRANCH  29  31
ATOM     31  O   UNK A   0       4.284   1.079  -3.227  0.00  0.00    -0.265 OA
BRANCH  31  32
ATOM     32  C   UNK A   0       5.642   1.518  -3.297  0.00  0.00    +0.288 C 
BRANCH  32  33
ATOM     33  C   UNK A   0       6.073   1.589  -4.739  0.00  0.00    +0.242 C 
ATOM     34  O   UNK A   0       5.294   1.294  -5.620  0.00  0.00    -0.273 OA
ATOM     35  N   PHE A   1       7.324   1.982  -5.050  0.00  0.00    -0.300 N 
ATOM     36  H   PHE A   1       7.947   2.218  -4.345  0.00  0.00    +0.150 HD
BRANCH  35  37
ATOM     37  CA  PHE A   1       7.743   2.051  -6.452  0.00  0.00    +0.191 C 
BRANCH  37  38
ATOM     38  C   PHE A   1       8.212   0.692  -6.904  0.00  0.00    +0.376 C 
ATOM     39  O   PHE A   1       8.198  -0.247  -6.127  0.00  0.00    -0.244 OA
ATOM     40  OXT PHE A   1       8.606   0.532  -8.046  0.00  0.00    -0.244 OA
ENDBRANCH  37  38
BRANCH  37  41
ATOM     41  CB  PHE A   1       8.886   3.058  -6.593  0.00  0.00    +0.069 C 
BRANCH  41  42
ATOM     42  CG  PHE A   1       8.384   4.439  -6.258  0.00  0.00    -0.045 A 
ATOM     43  CD2 PHE A   1       7.855   5.242  -7.252  0.00  0.00    +0.004 A 
ATOM     44  CE2 PHE A   1       7.394   6.508  -6.945  0.00  0.00    +0.000 A 
ATOM     45  CZ  PHE A   1       7.461   6.972  -5.644  0.00  0.00    +0.000 A 
ATOM     46  CE1 PHE A   1       7.989   6.169  -4.651  0.00  0.00    +0.000 A 
ATOM     47  CD1 PHE A   1       8.446   4.901  -4.957  0.00  0.00    +0.004 A 
ENDBRANCH  41  42
ENDBRANCH  37  41
ENDBRANCH  35  37
ENDBRANCH  32  33
ENDBRANCH  31  32
ENDBRANCH  29  31
ENDBRANCH   5  29
TORSDOF 13
