REMARK  Name = ZINC35661164
REMARK  8 active torsions:
REMARK  status: ('A' for Active; 'I' for Inactive)
REMARK    1  A    between atoms: C_1  and  C_2
REMARK    2  A    between atoms: C_2  and  C_3
REMARK    3  A    between atoms: C_2  and  C_4
REMARK    4  A    between atoms: C_2  and  N_5
REMARK    5  A    between atoms: C_6  and  C_8
REMARK    6  A    between atoms: C_8  and  N_9
REMARK    7  A    between atoms: C_10  and  C_12
REMARK    8  A    between atoms: C_17  and  N_18
REMARK                            x       y       z     vdW  Elec       q    Type
REMARK                         _______ _______ _______ _____ _____    ______ ____
ROOT
ATOM      1  N   UNL     1       4.067  -0.150  -2.651  0.00  0.00    -0.303 N 
ATOM      2  C   UNL     1       4.882  -0.436  -3.686  0.00  0.00    +0.246 C 
ATOM      3  O   UNL     1       4.479  -1.122  -4.606  0.00  0.00    -0.270 OA
ATOM      4  H   UNL     1       4.388   0.397  -1.917  0.00  0.00    +0.150 HD
ENDROOT
BRANCH   2   5
ATOM      5  C   UNL     1       6.262   0.083  -3.702  0.00  0.00    +0.060 A 
ATOM      6  C   UNL     1       6.691   0.971  -2.712  0.00  0.00    +0.053 A 
ATOM      7  C   UNL     1       7.984   1.452  -2.733  0.00  0.00    +0.124 A 
ATOM      8  C   UNL     1       8.861   1.058  -3.734  0.00  0.00    +0.040 A 
ATOM      9  C   UNL     1       8.450   0.182  -4.718  0.00  0.00    +0.026 A 
ATOM     10  C   UNL     1       7.154  -0.317  -4.709  0.00  0.00    +0.037 A 
ATOM     11  F   UNL     1       8.397   2.310  -1.776  0.00  0.00    -0.205 F 
BRANCH  10  12
ATOM     12  N   UNL     1       6.741  -1.204  -5.696  0.00  0.00    -0.357 N 
ATOM     13  H   UNL     1       5.814  -1.486  -5.737  0.00  0.00    +0.142 HD
ATOM     14  H   UNL     1       7.379  -1.541  -6.344  0.00  0.00    +0.142 HD
ENDBRANCH  10  12
ENDBRANCH   2   5
BRANCH   1  15
ATOM     15  C   UNL     1       2.696  -0.665  -2.635  0.00  0.00    +0.200 C 
BRANCH  15  17
ATOM     16  N   UNL     1       0.722  -0.561  -1.147  0.00  0.00    -0.309 N 
ATOM     17  C   UNL     1       2.001  -0.205  -1.379  0.00  0.00    +0.231 C 
ATOM     18  O   UNL     1       2.594   0.485  -0.576  0.00  0.00    -0.274 OA
ATOM     19  H   UNL     1       0.248  -1.113  -1.789  0.00  0.00    +0.149 HD
BRANCH  16  21
ATOM     20  C   UNL     1       0.018   1.415   0.110  0.00  0.00    +0.031 C 
ATOM     21  C   UNL     1       0.047  -0.114   0.074  0.00  0.00    +0.026 C 
ATOM     22  C   UNL     1       0.803  -0.639   1.296  0.00  0.00    +0.031 C 
ATOM     23  C   UNL     1      -1.385  -0.652   0.091  0.00  0.00    +0.031 C 
ENDBRANCH  16  21
ENDBRANCH  15  17
ENDBRANCH   1  15
TORSDOF 5
