REMARK  Name = ZINC13255583
REMARK  7 active torsions:
REMARK  status: ('A' for Active; 'I' for Inactive)
REMARK    1  A    between atoms: C_1  and  C_2
REMARK    2  A    between atoms: C_4  and  C_16
REMARK    3  A    between atoms: C_12  and  C_13
REMARK    4  A    between atoms: C_16  and  S_17
REMARK    5  A    between atoms: S_17  and  C_18
REMARK    6  A    between atoms: C_21  and  C_24
REMARK    7  A    between atoms: N_22  and  C_23
REMARK                            x       y       z     vdW  Elec       q    Type
REMARK                         _______ _______ _______ _____ _____    ______ ____
ROOT
ATOM      1  C   UNL     1       0.286   0.925  -0.710  0.00  0.00    +0.046 C 
ATOM      2  C   UNL     1       0.035  -0.551  -0.879  0.00  0.00    -0.020 A 
ATOM      3  C   UNL     1      -0.535  -1.067  -2.053  0.00  0.00    +0.014 A 
ATOM      4  C   UNL     1      -0.951  -0.342  -3.216  0.00  0.00    -0.022 A 
ATOM      5  C   UNL     1      -1.487  -1.001  -4.269  0.00  0.00    +0.075 A 
ATOM      6  C   UNL     1      -1.642  -2.399  -4.239  0.00  0.00    +0.250 A 
ATOM      7  O   UNL     1      -2.127  -2.980  -5.196  0.00  0.00    -0.268 OA
ATOM      8  N   UNL     1      -1.255  -3.095  -3.152  0.00  0.00    -0.317 N 
ATOM      9  H   UNL     1      -1.364  -4.059  -3.134  0.00  0.00    +0.169 HD
ATOM     10  C   UNL     1      -0.715  -2.459  -2.080  0.00  0.00    +0.089 A 
ATOM     11  S   UNL     1      -0.141  -3.002  -0.605  0.00  0.00    -0.064 S 
ATOM     12  C   UNL     1       0.359  -1.445   0.102  0.00  0.00    +0.106 A 
ENDROOT
BRANCH  12  13
ATOM     13  C   UNL     1       0.945  -1.196   1.369  0.00  0.00    +0.393 C 
ATOM     14  O   UNL     1       1.227  -0.050   1.698  0.00  0.00    -0.240 OA
ATOM     15  O   UNL     1       1.170  -2.126   2.133  0.00  0.00    -0.240 OA
ENDBRANCH  12  13
BRANCH   4  16
ATOM     16  C   UNL     1      -0.793   1.156  -3.266  0.00  0.00    +0.113 C 
BRANCH  16  17
ATOM     17  S   UNL     1      -2.207   1.941  -2.445  0.00  0.00    -0.081 S 
BRANCH  17  18
ATOM     18  C   UNL     1      -1.878   3.667  -2.587  0.00  0.00    +0.192 A 
ATOM     19  N   UNL     1      -0.836   4.216  -3.169  0.00  0.00    -0.122 NA
ATOM     20  N   UNL     1      -0.911   5.497  -3.091  0.00  0.00    -0.128 NA
ATOM     21  C   UNL     1      -2.006   5.843  -2.455  0.00  0.00    +0.165 A 
ATOM     22  N   UNL     1      -2.661   4.682  -2.116  0.00  0.00    -0.305 N 
ATOM     23  C   UNL     1      -3.932   4.560  -1.399  0.00  0.00    +0.153 C 
BRANCH  21  24
ATOM     24  C   UNL     1      -2.452   7.222  -2.162  0.00  0.00    +0.019 A 
ATOM     25  C   UNL     1      -3.429   7.450  -1.191  0.00  0.00    +0.013 A 
ATOM     26  C   UNL     1      -3.842   8.739  -0.922  0.00  0.00    +0.021 A 
ATOM     27  C   UNL     1      -3.289   9.804  -1.613  0.00  0.00    +0.041 A 
ATOM     28  C   UNL     1      -2.320   9.584  -2.577  0.00  0.00    +0.021 A 
ATOM     29  C   UNL     1      -1.895   8.300  -2.851  0.00  0.00    +0.013 A 
ATOM     30 CL   UNL     1      -3.814  11.423  -1.269  0.00  0.00    -0.084 Cl
ENDBRANCH  21  24
ENDBRANCH  17  18
ENDBRANCH  16  17
ENDBRANCH   4  16
TORSDOF 5
