REMARK  Name = ZINC04010284
REMARK  7 active torsions:
REMARK  status: ('A' for Active; 'I' for Inactive)
REMARK    1  A    between atoms: C_1  and  O_2
REMARK    2  A    between atoms: O_2  and  C_3
REMARK    3  A    between atoms: C_3  and  C_5
REMARK    4  A    between atoms: C_5  and  C_6
REMARK    5  A    between atoms: C_13  and  N_26
REMARK    6  A    between atoms: C_14  and  C_24
REMARK    7  A    between atoms: C_15  and  C_17
REMARK                            x       y       z     vdW  Elec       q    Type
REMARK                         _______ _______ _______ _____ _____    ______ ____
ROOT
ATOM      1  C   UNL     1       1.309  -2.497  -2.626  0.00  0.00    +0.081 A 
ATOM      2  C   UNL     1       0.644  -2.755  -3.817  0.00  0.00    +0.046 A 
ATOM      3  C   UNL     1       1.571  -3.140  -4.745  0.00  0.00    +0.222 A 
ATOM      4  N   UNL     1       2.774  -3.120  -4.149  0.00  0.00    -0.246 N 
ATOM      5  H   UNL     1       3.620  -3.346  -4.565  0.00  0.00    +0.192 HD
ATOM      6  N   UNL     1       2.589  -2.709  -2.820  0.00  0.00    -0.175 NA
ATOM      7  O   UNL     1       1.239  -3.467  -6.019  0.00  0.00    -0.423 OA
ATOM      8  C   UNL     1      -0.066  -3.672  -6.291  0.00  0.00    +0.200 C 
ATOM      9  C   UNL     1      -1.072  -3.324  -5.459  0.00  0.00    +0.094 C 
ATOM     10  C   UNL     1      -0.827  -2.657  -4.128  0.00  0.00    +0.078 C 
ENDROOT
BRANCH  10  11
ATOM     11  C   UNL     1      -1.242  -1.186  -4.203  0.00  0.00    +0.024 C 
ATOM     12  C   UNL     1      -0.533  -0.518  -5.384  0.00  0.00    +0.009 C 
ATOM     13  C   UNL     1      -1.153   0.868  -5.601  0.00  0.00    +0.005 C 
ATOM     14  C   UNL     1      -2.593   0.685  -6.083  0.00  0.00    +0.027 C 
ATOM     15  C   UNL     1      -3.318  -0.280  -5.191  0.00  0.00    -0.031 C 
ATOM     16  C   UNL     1      -2.730  -1.097  -4.380  0.00  0.00    -0.027 C 
ENDBRANCH  10  11
BRANCH   8  17
ATOM     17  N   UNL     1      -0.390  -4.271  -7.483  0.00  0.00    -0.328 N 
ATOM     18  H   UNL     1       0.310  -4.532  -8.101  0.00  0.00    +0.145 HD
ATOM     19  H   UNL     1      -1.320  -4.432  -7.707  0.00  0.00    +0.145 HD
ENDBRANCH   8  17
BRANCH   9  20
ATOM     20  C   UNL     1      -2.421  -3.597  -5.856  0.00  0.00    +0.100 C 
ATOM     21  N   UNL     1      -3.490  -3.813  -6.171  0.00  0.00    -0.191 NA
ENDBRANCH   9  20
BRANCH   1  22
ATOM     22  C   UNL     1       0.672  -2.046  -1.336  0.00  0.00    +0.178 C 
BRANCH  22  23
ATOM     23  C   UNL     1       0.755  -0.545  -1.233  0.00  0.00    +0.313 C 
ATOM     24  O   UNL     1       1.198   0.100  -2.154  0.00  0.00    -0.250 OA
BRANCH  23  26
ATOM     25  C   UNL     1       0.339   1.504  -0.132  0.00  0.00    +0.280 C 
ATOM     26  O   UNL     1       0.337   0.075  -0.119  0.00  0.00    -0.468 OA
ENDBRANCH  23  26
ENDBRANCH  22  23
ENDBRANCH   1  22
TORSDOF 6
