REMARK  Name = ZINC20504112
REMARK  10 active torsions:
REMARK  status: ('A' for Active; 'I' for Inactive)
REMARK    1  A    between atoms: C_1  and  C_2
REMARK    2  A    between atoms: C_2  and  C_3
REMARK    3  A    between atoms: C_2  and  C_4
REMARK    4  A    between atoms: C_7  and  N_10
REMARK    5  A    between atoms: C_13  and  C_27
REMARK    6  A    between atoms: C_16  and  O_26
REMARK    7  A    between atoms: C_18  and  O_25
REMARK    8  A    between atoms: N_29  and  C_30
REMARK    9  A    between atoms: C_30  and  C_31
REMARK   10  A    between atoms: C_31  and  N_32
REMARK                            x       y       z     vdW  Elec       q    Type
REMARK                         _______ _______ _______ _____ _____    ______ ____
ROOT
ATOM      1  N   UNL     1      -1.105   3.776   2.318  0.00  0.00    -0.277 N 
ATOM      2  C   UNL     1      -1.448   2.726   1.359  0.00  0.00    +0.115 C 
ATOM      3  C   UNL     1      -0.414   1.671   1.188  0.00  0.00    +0.100 C 
ATOM      4  C   UNL     1       0.518   1.853   0.014  0.00  0.00    +0.048 C 
ATOM      5  C   UNL     1      -0.230   2.232  -1.247  0.00  0.00    +0.146 C 
ATOM      6  C   UNL     1      -1.077   3.465  -1.065  0.00  0.00    +0.165 C 
ATOM      7  C   UNL     1      -1.983   3.449   0.143  0.00  0.00    +0.124 C 
ATOM      8  N   UNL     1      -2.130   4.844   0.624  0.00  0.00    -0.319 N 
ATOM      9  C   UNL     1      -1.567   4.944   1.838  0.00  0.00    +0.138 C 
ATOM     10  S   UNL     1      -1.448   6.420   2.696  0.00  0.00    -0.018 S 
ATOM     11  H   UNL     1      -2.638   5.591  -0.003  0.00  0.00    +0.148 HD
ENDROOT
BRANCH   1  15
ATOM     12  C   UNL     1       0.940   3.240   5.907  0.00  0.00    -0.045 A 
ATOM     13  C   UNL     1      -0.321   2.696   5.744  0.00  0.00    +0.006 A 
ATOM     14  C   UNL     1      -1.001   2.872   4.555  0.00  0.00    +0.024 A 
ATOM     15  C   UNL     1      -0.418   3.596   3.523  0.00  0.00    +0.036 A 
ATOM     16  C   UNL     1       0.850   4.136   3.689  0.00  0.00    +0.024 A 
ATOM     17  C   UNL     1       1.524   3.961   4.882  0.00  0.00    +0.006 A 
BRANCH  12  19
ATOM     18  C   UNL     1       2.996   2.313   6.939  0.00  0.00    +0.012 C 
ATOM     19  C   UNL     1       1.680   3.047   7.206  0.00  0.00    +0.013 C 
ATOM     20  C   UNL     1       1.975   4.410   7.833  0.00  0.00    +0.012 C 
ENDBRANCH  12  19
ENDBRANCH   1  15
BRANCH   3  21
ATOM     21  C   UNL     1       0.415   1.619   2.445  0.00  0.00    +0.218 C 
ATOM     22  O   UNL     1       1.318   2.412   2.610  0.00  0.00    -0.275 OA
ATOM     23  N   UNL     1       0.153   0.691   3.387  0.00  0.00    -0.314 N 
ATOM     24  H   UNL     1      -0.712   0.021   3.273  0.00  0.00    +0.149 HD
BRANCH  23  25
ATOM     25  C   UNL     1       1.020   0.575   4.562  0.00  0.00    +0.119 C 
BRANCH  25  26
ATOM     26  C   UNL     1       0.395  -0.400   5.562  0.00  0.00    +0.103 C 
BRANCH  26  27
ATOM     27  N   UNL     1       1.265  -0.517   6.741  0.00  0.00    -0.297 NA
ATOM     28  C   UNL     1       2.542  -1.155   6.392  0.00  0.00    +0.112 C 
ATOM     29  C   UNL     1       3.439  -1.202   7.632  0.00  0.00    +0.175 C 
ATOM     30  O   UNL     1       2.757  -1.895   8.681  0.00  0.00    -0.377 OA
ATOM     31  C   UNL     1       1.508  -1.300   9.047  0.00  0.00    +0.175 C 
ATOM     32  C   UNL     1       0.593  -1.254   7.821  0.00  0.00    +0.112 C 
ENDBRANCH  26  27
ENDBRANCH  25  26
ENDBRANCH  23  25
ENDBRANCH   3  21
BRANCH   6  33
ATOM     33  O   UNL     1      -0.209   4.595  -0.962  0.00  0.00    -0.387 OA
ATOM     34  H   UNL     1      -0.630   5.602  -0.823  0.00  0.00    +0.210 HD
ENDBRANCH   6  33
BRANCH   5  35
ATOM     35  O   UNL     1      -1.074   1.143  -1.629  0.00  0.00    -0.389 OA
ATOM     36  H   UNL     1      -1.704   1.224  -2.527  0.00  0.00    +0.210 HD
ENDBRANCH   5  35
TORSDOF 8
