REMARK  Name = ZINC62324368
REMARK  7 active torsions:
REMARK  status: ('A' for Active; 'I' for Inactive)
REMARK    1  A    between atoms: C_1  and  C_2
REMARK    2  A    between atoms: C_2  and  C_3
REMARK    3  A    between atoms: C_3  and  CA_4
REMARK    4  A    between atoms: CA_4  and  C_6
REMARK    5  A    between atoms: CA_4  and  N_9
REMARK    6  A    between atoms: C_17  and  C_22
REMARK    7  A    between atoms: C_22  and  C_23
REMARK                            x       y       z     vdW  Elec       q    Type
REMARK                         _______ _______ _______ _____ _____    ______ ____
ROOT
ATOM      1  N   UNL     1      -0.834  -2.537  -1.256  0.00  0.00    -0.303 N 
ATOM      2  C   UNL     1      -0.240  -3.776  -1.317  0.00  0.00    +0.205 C 
ATOM      3  N   UNL     1      -0.226  -4.479  -0.231  0.00  0.00    -0.097 NA
ATOM      4  S   UNL     1       0.476  -5.981  -0.199  0.00  0.00    +0.103 S 
ATOM      5  O   UNL     1      -0.575  -6.928  -0.329  0.00  0.00    -0.146 OA
ATOM      6  O   UNL     1       1.381  -5.987   0.897  0.00  0.00    -0.146 OA
ATOM      7  C   UNL     1       1.447  -6.092  -1.667  0.00  0.00    +0.134 A 
ATOM      8  C   UNL     1       2.388  -7.086  -1.818  0.00  0.00    +0.034 A 
ATOM      9  C   UNL     1       3.140  -7.151  -2.979  0.00  0.00    -0.046 A 
ATOM     10  C   UNL     1       2.945  -6.220  -3.983  0.00  0.00    +0.005 A 
ATOM     11  C   UNL     1       2.001  -5.223  -3.835  0.00  0.00    +0.025 A 
ATOM     12  C   UNL     1       1.243  -5.153  -2.672  0.00  0.00    +0.061 A 
ATOM     13  N   UNL     1       0.279  -4.159  -2.515  0.00  0.00    -0.285 N 
ATOM     14  H   UNL     1      -0.871  -1.977  -2.047  0.00  0.00    +0.150 HD
ATOM     15  H   UNL     1      -0.041  -3.707  -3.312  0.00  0.00    +0.155 HD
ENDROOT
BRANCH   9  16
ATOM     16  C   UNL     1       4.171  -8.238  -3.149  0.00  0.00    +0.032 C 
ATOM     17  C   UNL     1       3.522  -9.458  -3.804  0.00  0.00    +0.009 C 
ENDBRANCH   9  16
BRANCH   1  18
ATOM     18  CA  UNL     1      -1.413  -2.063   0.004  0.00  0.00    +0.186 C 
BRANCH  18  19
ATOM     19  C   UNL     1      -2.820  -2.586   0.139  0.00  0.00    +0.376 C 
ATOM     20  O   UNL     1      -3.491  -2.792  -0.858  0.00  0.00    -0.244 OA
ATOM     21  OXT UNL     1      -3.287  -2.801   1.244  0.00  0.00    -0.244 OA
ENDBRANCH  18  19
BRANCH  18  22
ATOM     22  C   UNL     1      -1.433  -0.534   0.013  0.00  0.00    +0.033 C 
BRANCH  22  24
ATOM     23  C   UNL     1      -0.019   1.526   0.010  0.00  0.00    +0.004 C 
ATOM     24  C   UNL     1       0.002  -0.004   0.002  0.00  0.00    -0.001 C 
ENDBRANCH  22  24
ENDBRANCH  18  22
ENDBRANCH   1  18
TORSDOF 5
