REMARK  Name = ZINC39939951
REMARK  12 active torsions:
REMARK  status: ('A' for Active; 'I' for Inactive)
REMARK    1  A    between atoms: C_1  and  C_2
REMARK    2  A    between atoms: C_3  and  C_22
REMARK    3  A    between atoms: C_4  and  O_14
REMARK    4  A    between atoms: N_6  and  C_8
REMARK    5  A    between atoms: O_14  and  C_15
REMARK    6  A    between atoms: C_22  and  N_23
REMARK    7  A    between atoms: N_23  and  C_24
REMARK    8  A    between atoms: C_24  and  C_25
REMARK    9  A    between atoms: C_25  and  C_26
REMARK   10  A    between atoms: C_26  and  C_27
REMARK   11  A    between atoms: C_28  and  C_34
REMARK   12  A    between atoms: C_29  and  N_33
REMARK                            x       y       z     vdW  Elec       q    Type
REMARK                         _______ _______ _______ _____ _____    ______ ____
ROOT
ATOM      1  C   UNL     1      -0.176   1.534   0.156  0.00  0.00    +0.062 C 
ATOM      2  C   UNL     1      -0.095   0.031   0.076  0.00  0.00    +0.022 C 
ATOM      3  C   UNL     1      -1.143  -0.765   0.092  0.00  0.00    -0.009 C 
ATOM      4  C   UNL     1      -0.637  -2.187  -0.007  0.00  0.00    +0.307 C 
ATOM      5  N   UNL     1       0.828  -2.053  -0.077  0.00  0.00    -0.211 N 
ATOM      6  N   UNL     1       1.087  -0.676  -0.028  0.00  0.00    -0.265 N 
ATOM      7  H   UNL     1       1.970  -0.277  -0.059  0.00  0.00    +0.170 HD
ENDROOT
BRANCH   5   8
ATOM      8  C   UNL     1       1.765  -3.084  -0.179  0.00  0.00    +0.052 A 
ATOM      9  C   UNL     1       1.340  -4.398  -0.330  0.00  0.00    +0.025 A 
ATOM     10  C   UNL     1       2.269  -5.415  -0.430  0.00  0.00    +0.002 A 
ATOM     11  C   UNL     1       3.621  -5.126  -0.380  0.00  0.00    +0.000 A 
ATOM     12  C   UNL     1       4.047  -3.820  -0.229  0.00  0.00    +0.002 A 
ATOM     13  C   UNL     1       3.123  -2.797  -0.135  0.00  0.00    +0.025 A 
ENDBRANCH   5   8
BRANCH   4  14
ATOM     14  O   UNL     1      -1.140  -2.815  -1.187  0.00  0.00    -0.466 OA
BRANCH  14  15
ATOM     15  C   UNL     1      -2.263  -3.570  -1.054  0.00  0.00    +0.124 A 
ATOM     16  C   UNL     1      -2.934  -3.607   0.159  0.00  0.00    +0.048 A 
ATOM     17  C   UNL     1      -4.075  -4.375   0.293  0.00  0.00    +0.042 A 
ATOM     18  C   UNL     1      -4.548  -5.107  -0.782  0.00  0.00    +0.124 A 
ATOM     19  C   UNL     1      -3.879  -5.071  -1.994  0.00  0.00    +0.042 A 
ATOM     20  C   UNL     1      -2.741  -4.299  -2.133  0.00  0.00    +0.048 A 
ATOM     21  F   UNL     1      -5.663  -5.857  -0.650  0.00  0.00    -0.205 F 
ENDBRANCH  14  15
ENDBRANCH   4  14
BRANCH   3  22
ATOM     22  C   UNL     1      -2.585  -0.338   0.190  0.00  0.00    -0.044 C 
BRANCH  22  23
ATOM     23  N   UNL     1      -3.162  -0.245  -1.158  0.00  0.00    +0.382 N 
ATOM     24  H   UNL     1      -2.646   0.433  -1.698  0.00  0.00    -0.085 HD
ATOM     25  H   UNL     1      -3.108  -1.146  -1.609  0.00  0.00    -0.085 HD
BRANCH  23  26
ATOM     26  C   UNL     1      -4.567   0.171  -1.062  0.00  0.00    -0.082 C 
BRANCH  26  27
ATOM     27  C   UNL     1      -5.168   0.268  -2.466  0.00  0.00    -0.013 C 
BRANCH  27  28
ATOM     28  C   UNL     1      -6.631   0.702  -2.366  0.00  0.00    +0.057 C 
BRANCH  28  29
ATOM     29  C   UNL     1      -7.223   0.796  -3.749  0.00  0.00    +0.082 A 
ATOM     30  C   UNL     1      -7.869  -0.249  -4.448  0.00  0.00    +0.113 A 
ATOM     31  C   UNL     1      -8.260   0.266  -5.681  0.00  0.00    +0.129 A 
ATOM     32  N   UNL     1      -7.865   1.556  -5.715  0.00  0.00    -0.263 N 
ATOM     33  N   UNL     1      -7.232   1.858  -4.505  0.00  0.00    -0.176 NA
ATOM     34  H   UNL     1      -8.001   2.171  -6.453  0.00  0.00    +0.190 HD
BRANCH  31  35
ATOM     35  N   UNL     1      -8.926  -0.416  -6.681  0.00  0.00    -0.342 N 
ATOM     36  H   UNL     1      -9.165  -1.347  -6.557  0.00  0.00    +0.144 HD
ATOM     37  H   UNL     1      -9.153   0.037  -7.508  0.00  0.00    +0.144 HD
ENDBRANCH  31  35
BRANCH  30  38
ATOM     38  C   UNL     1      -8.081  -1.585  -3.977  0.00  0.00    +0.104 C 
ATOM     39  N   UNL     1      -8.249  -2.644  -3.603  0.00  0.00    -0.191 NA
ENDBRANCH  30  38
ENDBRANCH  28  29
ENDBRANCH  27  28
ENDBRANCH  26  27
ENDBRANCH  23  26
ENDBRANCH  22  23
ENDBRANCH   3  22
TORSDOF 11
