REMARK  Name = ZINC47128756
REMARK  11 active torsions:
REMARK  status: ('A' for Active; 'I' for Inactive)
REMARK    1  A    between atoms: C_1  and  C_2
REMARK    2  A    between atoms: C_2  and  N_3
REMARK    3  A    between atoms: N_3  and  C_4
REMARK    4  A    between atoms: C_4  and  C_5
REMARK    5  A    between atoms: N_8  and  C_9
REMARK    6  A    between atoms: C_12  and  C_15
REMARK    7  A    between atoms: C_15  and  C_17
REMARK    8  A    between atoms: C_15  and  N_18
REMARK    9  A    between atoms: N_21  and  N_22
REMARK   10  A    between atoms: N_22  and  C_23
REMARK   11  A    between atoms: C_27  and  C_29
REMARK                            x       y       z     vdW  Elec       q    Type
REMARK                         _______ _______ _______ _____ _____    ______ ____
ROOT
ATOM      1  C   UNL     1      -4.011  -1.940   7.153  0.00  0.00    +0.102 C 
ATOM      2  C   UNL     1      -3.466  -3.276   7.663  0.00  0.00    +0.033 C 
ENDROOT
BRANCH   1   6
ATOM      3  C   UNL     1      -2.007  -0.873   3.532  0.00  0.00    +0.035 A 
ATOM      4  C   UNL     1      -3.270  -1.447   3.485  0.00  0.00    +0.023 A 
ATOM      5  C   UNL     1      -3.915  -1.790   4.657  0.00  0.00    +0.007 A 
ATOM      6  C   UNL     1      -3.304  -1.564   5.876  0.00  0.00    -0.027 A 
ATOM      7  C   UNL     1      -2.046  -0.992   5.927  0.00  0.00    +0.007 A 
ATOM      8  C   UNL     1      -1.393  -0.651   4.758  0.00  0.00    +0.023 A 
BRANCH   3  12
ATOM      9  N   UNL     1       0.610  -0.405   1.085  0.00  0.00    -0.286 N 
ATOM     10  C   UNL     1      -0.012  -0.653   2.254  0.00  0.00    +0.306 C 
ATOM     11  O   UNL     1       0.635  -0.993   3.227  0.00  0.00    -0.252 OA
ATOM     12  N   UNL     1      -1.350  -0.524   2.347  0.00  0.00    -0.269 N 
ATOM     13  H   UNL     1      -1.858  -0.189   1.591  0.00  0.00    +0.156 HD
BRANCH   9  15
ATOM     14  C   UNL     1      -0.599  -1.236  -0.872  0.00  0.00    +0.024 C 
ATOM     15  C   UNL     1      -0.169   0.004  -0.087  0.00  0.00    +0.106 C 
ENDBRANCH   9  15
BRANCH   9  16
ATOM     16  C   UNL     1       2.065  -0.546   0.984  0.00  0.00    +0.106 C 
ATOM     17  C   UNL     1       2.731   0.788   1.327  0.00  0.00    +0.024 C 
ENDBRANCH   9  16
ENDBRANCH   3  12
ENDBRANCH   1   6
BRANCH   1  18
ATOM     18  N   UNL     1      -3.783  -0.902   8.162  0.00  0.00    -0.292 N 
ATOM     19  C   UNL     1      -4.666  -0.732   9.165  0.00  0.00    +0.316 C 
ATOM     20  O   UNL     1      -5.653  -1.440   9.233  0.00  0.00    -0.251 OA
ATOM     21  N   UNL     1      -4.456   0.223  10.093  0.00  0.00    -0.220 N 
ATOM     22  H   UNL     1      -2.996  -0.338   8.107  0.00  0.00    +0.151 HD
ATOM     23  H   UNL     1      -5.092   0.345  10.815  0.00  0.00    +0.174 HD
BRANCH  21  24
ATOM     24  N   UNL     1      -3.320   1.038  10.014  0.00  0.00    -0.263 N 
ATOM     25  H   UNL     1      -2.684   0.915   9.292  0.00  0.00    +0.170 HD
BRANCH  24  26
ATOM     26  C   UNL     1      -3.102   2.027  10.976  0.00  0.00    +0.046 A 
ATOM     27  C   UNL     1      -4.010   2.199  12.015  0.00  0.00    +0.024 A 
ATOM     28  C   UNL     1      -3.800   3.177  12.969  0.00  0.00    +0.003 A 
ATOM     29  C   UNL     1      -2.687   3.989  12.897  0.00  0.00    +0.019 A 
ATOM     30  C   UNL     1      -1.768   3.825  11.859  0.00  0.00    +0.054 A 
ATOM     31  C   UNL     1      -1.977   2.834  10.899  0.00  0.00    +0.043 A 
BRANCH  30  32
ATOM     32  C   UNL     1      -0.611   4.666  11.782  0.00  0.00    +0.099 C 
ATOM     33  N   UNL     1       0.306   5.334  11.722  0.00  0.00    -0.191 NA
ENDBRANCH  30  32
ENDBRANCH  24  26
ENDBRANCH  21  24
ENDBRANCH   1  18
TORSDOF 8
