REMARK  Name = ZINC52838999
REMARK  8 active torsions:
REMARK  status: ('A' for Active; 'I' for Inactive)
REMARK    1  A    between atoms: C_1  and  O_2
REMARK    2  A    between atoms: O_2  and  C_3
REMARK    3  A    between atoms: C_5  and  C_12
REMARK    4  A    between atoms: C_8  and  O_9
REMARK    5  A    between atoms: O_9  and  C_10
REMARK    6  A    between atoms: C_13  and  N_21
REMARK    7  A    between atoms: N_14  and  N_20
REMARK    8  A    between atoms: C_15  and  C_17
REMARK                            x       y       z     vdW  Elec       q    Type
REMARK                         _______ _______ _______ _____ _____    ______ ____
ROOT
ATOM      1  C   UNL     1       2.397   0.355  -4.221  0.00  0.00    +0.089 A 
ATOM      2  C   UNL     1       1.981   0.409  -5.522  0.00  0.00    +0.139 A 
ATOM      3  N   UNL     1       2.818   1.282  -6.164  0.00  0.00    -0.240 N 
ATOM      4  C   UNL     1       3.715   1.734  -5.243  0.00  0.00    +0.110 A 
ATOM      5  N   UNL     1       3.454   1.184  -4.092  0.00  0.00    -0.340 N 
ATOM      6  H   UNL     1       3.945   1.343  -3.270  0.00  0.00    +0.167 HD
ENDROOT
BRANCH   1   9
ATOM      7  C   UNL     1       0.606  -0.608  -1.056  0.00  0.00    +0.162 A 
ATOM      8  C   UNL     1       1.171   0.159  -2.060  0.00  0.00    +0.060 A 
ATOM      9  C   UNL     1       1.790  -0.462  -3.144  0.00  0.00    +0.019 A 
ATOM     10  C   UNL     1       1.837  -1.855  -3.213  0.00  0.00    +0.031 A 
ATOM     11  C   UNL     1       1.271  -2.615  -2.208  0.00  0.00    +0.065 A 
ATOM     12  C   UNL     1       0.661  -1.997  -1.128  0.00  0.00    +0.163 A 
ATOM     13 BR   UNL     1       2.675  -2.702  -4.681  0.00  0.00    -0.049 Br
BRANCH   7  15
ATOM     14  C   UNL     1      -0.017   1.425   0.010  0.00  0.00    +0.277 C 
ATOM     15  O   UNL     1       0.002  -0.004   0.002  0.00  0.00    -0.491 OA
ENDBRANCH   7  15
BRANCH  12  16
ATOM     16  O   UNL     1       0.110  -2.749  -0.137  0.00  0.00    -0.491 OA
ATOM     17  C   UNL     1       0.202  -4.169  -0.274  0.00  0.00    +0.277 C 
ENDBRANCH  12  16
ENDBRANCH   1   9
BRANCH   4  18
ATOM     18  C   UNL     1       4.825   2.717  -5.512  0.00  0.00    +0.055 C 
ATOM     19  C   UNL     1       5.204   3.681  -4.386  0.00  0.00    +0.012 C 
ATOM     20  C   UNL     1       6.138   2.525  -4.751  0.00  0.00    +0.012 C 
ENDBRANCH   4  18
BRANCH   3  21
ATOM     21  N   UNL     1       2.764   1.635  -7.482  0.00  0.00    -0.295 N 
ATOM     22  H   UNL     1       2.171   2.440  -7.618  0.00  0.00    +0.163 HD
ATOM     23  H   UNL     1       3.688   1.801  -7.851  0.00  0.00    +0.163 HD
ENDBRANCH   3  21
BRANCH   2  24
ATOM     24  N   UNL     1       0.916  -0.288  -6.085  0.00  0.00    -0.342 N 
ATOM     25  H   UNL     1       0.385  -0.886  -5.537  0.00  0.00    +0.144 HD
ATOM     26  H   UNL     1       0.706  -0.176  -7.025  0.00  0.00    +0.144 HD
ENDBRANCH   2  24
TORSDOF 6
