REMARK  Name = ZINC48605294
REMARK  7 active torsions:
REMARK  status: ('A' for Active; 'I' for Inactive)
REMARK    1  A    between atoms: C_1  and  C_2
REMARK    2  A    between atoms: C_2  and  C_27
REMARK    3  A    between atoms: C_4  and  N_10
REMARK    4  A    between atoms: C_6  and  C_8
REMARK    5  A    between atoms: C_6  and  C_9
REMARK    6  A    between atoms: C_11  and  C_13
REMARK    7  A    between atoms: N_15  and  C_16
REMARK                            x       y       z     vdW  Elec       q    Type
REMARK                         _______ _______ _______ _____ _____    ______ ____
ROOT
ATOM      1  N   UNL     1       2.613  -0.815  -2.628  0.00  0.00    -0.305 N 
ATOM      2  C   UNL     1       3.767  -0.329  -3.127  0.00  0.00    +0.300 C 
ATOM      3  O   UNL     1       4.367   0.541  -2.531  0.00  0.00    -0.265 OA
ATOM      4  H   UNL     1       2.134  -1.511  -3.104  0.00  0.00    +0.149 HD
ENDROOT
BRANCH   1   8
ATOM      5  C   UNL     1      -0.035   1.538  -0.011  0.00  0.00    -0.010 C 
ATOM      6  C   UNL     1      -0.008   0.006  -0.010  0.00  0.00    -0.072 C 
ATOM      7  C   UNL     1       0.568  -0.501  -1.328  0.00  0.00    +0.009 C 
ATOM      8  C   UNL     1       2.082  -0.291  -1.363  0.00  0.00    +0.071 C 
ATOM      9  C   UNL     1       2.698  -1.066  -0.198  0.00  0.00    +0.009 C 
ATOM     10  C   UNL     1       2.138  -0.564   1.129  0.00  0.00    -0.072 C 
ATOM     11  N   UNL     1       0.687  -0.509   1.157  0.00  0.00    +0.386 N 
ATOM     12  C   UNL     1       2.754   0.797   1.469  0.00  0.00    -0.010 C 
ATOM     13  C   UNL     1       2.593  -1.554   2.226  0.00  0.00    -0.010 C 
ATOM     14  C   UNL     1      -1.476  -0.473   0.068  0.00  0.00    -0.010 C 
ATOM     15  H   UNL     1       0.403   0.046   1.971  0.00  0.00    -0.084 HD
ATOM     16  H   UNL     1       0.335  -1.452   1.349  0.00  0.00    -0.084 HD
ENDBRANCH   1   8
BRANCH   2  17
ATOM     17  C   UNL     1       4.308  -0.862  -4.413  0.00  0.00    +0.303 C 
ATOM     18  O   UNL     1       3.708  -1.733  -5.009  0.00  0.00    -0.265 OA
ATOM     19  N   UNL     1       5.462  -0.376  -4.912  0.00  0.00    -0.278 N 
ATOM     20  H   UNL     1       5.906   0.365  -4.471  0.00  0.00    +0.155 HD
BRANCH  19  21
ATOM     21  C   UNL     1       6.018  -0.941  -6.064  0.00  0.00    +0.038 A 
ATOM     22  C   UNL     1       7.398  -1.033  -6.196  0.00  0.00    +0.027 A 
ATOM     23  C   UNL     1       7.949  -1.590  -7.333  0.00  0.00    +0.051 A 
ATOM     24  C   UNL     1       7.127  -2.058  -8.346  0.00  0.00    +0.173 A 
ATOM     25  C   UNL     1       5.743  -1.967  -8.217  0.00  0.00    +0.174 A 
ATOM     26  C   UNL     1       5.191  -1.414  -7.074  0.00  0.00    +0.073 A 
ATOM     27  O   UNL     1       5.165  -2.492  -9.337  0.00  0.00    -0.395 OA
ATOM     28  C   UNL     1       6.210  -2.530 -10.327  0.00  0.00    +0.589 C 
ATOM     29  O   UNL     1       7.416  -2.639  -9.548  0.00  0.00    -0.395 OA
ATOM     30  F   UNL     1       6.217  -1.351 -11.081  0.00  0.00    -0.125 F 
ATOM     31  F   UNL     1       6.059  -3.645 -11.158  0.00  0.00    -0.125 F 
ENDBRANCH  19  21
ENDBRANCH   2  17
TORSDOF 3
