REMARK  Name = ZINC39700819
REMARK  5 active torsions:
REMARK  status: ('A' for Active; 'I' for Inactive)
REMARK    1  A    between atoms: C_1  and  C_2
REMARK    2  A    between atoms: C_10  and  O_23
REMARK    3  A    between atoms: O_23  and  S_24
REMARK    4  A    between atoms: S_24  and  C_27
REMARK    5  A    between atoms: C_31  and  C_33
REMARK                            x       y       z     vdW  Elec       q    Type
REMARK                         _______ _______ _______ _____ _____    ______ ____
ROOT
ATOM      1  C   UNL     1      -0.019   1.522   0.010  0.00  0.00    +0.019 C 
ATOM      2  C   UNL     1       0.002  -0.004   0.002  0.00  0.00    +0.029 C 
ATOM      3  C   UNL     1      -1.403  -0.555   0.060  0.00  0.00    +0.015 C 
ATOM      4  C   UNL     1      -2.013  -0.223   1.428  0.00  0.00    +0.009 C 
ATOM      5  C   UNL     1      -1.182  -0.803   2.569  0.00  0.00    +0.023 C 
ATOM      6  C   UNL     1      -1.806  -0.432   3.890  0.00  0.00    -0.041 A 
ATOM      7  C   UNL     1      -3.027  -1.019   4.207  0.00  0.00    +0.008 A 
ATOM      8  C   UNL     1      -3.654  -0.736   5.400  0.00  0.00    +0.049 A 
ATOM      9  C   UNL     1      -3.064   0.145   6.295  0.00  0.00    +0.157 A 
ATOM     10  C   UNL     1      -1.850   0.731   5.980  0.00  0.00    +0.052 A 
ATOM     11  C   UNL     1      -1.219   0.441   4.779  0.00  0.00    -0.040 A 
ATOM     12  C   UNL     1       0.101   1.113   4.499  0.00  0.00    +0.036 C 
ATOM     13  C   UNL     1       0.364   1.111   2.987  0.00  0.00    +0.009 C 
ATOM     14  C   UNL     1       0.274  -0.332   2.509  0.00  0.00    +0.001 C 
ATOM     15  C   UNL     1       0.835  -0.605   1.153  0.00  0.00    +0.006 C 
ATOM     16  C   UNL     1       2.240  -0.097   0.810  0.00  0.00    +0.012 C 
ATOM     17  C   UNL     1       2.276  -0.259  -0.738  0.00  0.00    +0.075 C 
ATOM     18  C   UNL     1       0.830  -0.434  -1.193  0.00  0.00    +0.139 C 
ATOM     19  O   UNL     1       0.424  -0.825  -2.253  0.00  0.00    -0.297 OA
ENDROOT
BRANCH   9  20
ATOM     20  O   UNL     1      -3.675   0.430   7.476  0.00  0.00    -0.342 OA
BRANCH  20  21
ATOM     21  S   UNL     1      -3.284  -0.500   8.615  0.00  0.00    +0.151 S 
ATOM     22  O   UNL     1      -4.153  -0.202   9.699  0.00  0.00    -0.131 OA
ATOM     23  O   UNL     1      -3.180  -1.804   8.058  0.00  0.00    -0.131 OA
BRANCH  21  24
ATOM     24  C   UNL     1      -1.662  -0.042   9.129  0.00  0.00    +0.129 A 
ATOM     25  C   UNL     1      -0.558  -0.630   8.535  0.00  0.00    +0.032 A 
ATOM     26  C   UNL     1       0.719  -0.278   8.931  0.00  0.00    +0.023 A 
ATOM     27  C   UNL     1       0.902   0.666   9.924  0.00  0.00    +0.055 A 
ATOM     28  C   UNL     1      -0.209   1.264  10.527  0.00  0.00    +0.083 A 
ATOM     29  C   UNL     1      -1.496   0.905  10.117  0.00  0.00    +0.047 A 
ATOM     30 CL   UNL     1       2.506   1.107  10.420  0.00  0.00    -0.083 Cl
BRANCH  28  31
ATOM     31  C   UNL     1      -0.023   2.272  11.587  0.00  0.00    +0.388 C 
ATOM     32  O   UNL     1      -0.997   2.793  12.112  0.00  0.00    -0.241 OA
ATOM     33  O   UNL     1       1.104   2.587  11.941  0.00  0.00    -0.241 OA
ENDBRANCH  28  31
ENDBRANCH  21  24
ENDBRANCH  20  21
ENDBRANCH   9  20
TORSDOF 4
