REMARK  Name = ZINC12502439
REMARK  9 active torsions:
REMARK  status: ('A' for Active; 'I' for Inactive)
REMARK    1  A    between atoms: C_4  and  N_7
REMARK    2  A    between atoms: N_7  and  C_8
REMARK    3  A    between atoms: C_8  and  N_10
REMARK    4  A    between atoms: N_10  and  N_11
REMARK    5  A    between atoms: N_11  and  C_12
REMARK    6  A    between atoms: C_12  and  N_14
REMARK    7  A    between atoms: C_15  and  C_17
REMARK    8  A    between atoms: C_17  and  O_18
REMARK    9  A    between atoms: O_18  and  C_19
REMARK                            x       y       z     vdW  Elec       q    Type
REMARK                         _______ _______ _______ _____ _____    ______ ____
ROOT
ATOM      1  C   UNL     1       5.072  -2.703  -0.105  0.00  0.00    +0.153 C 
ATOM      2  S   UNL     1       6.315  -1.621   0.359  0.00  0.00    -0.017 S 
ENDROOT
BRANCH   1   3
ATOM      3  N   UNL     1       3.868  -2.226  -0.479  0.00  0.00    -0.264 N 
ATOM      4  C   UNL     1       3.643  -0.897  -0.488  0.00  0.00    +0.256 C 
ATOM      5  O   UNL     1       4.524  -0.131  -0.160  0.00  0.00    -0.272 OA
ATOM      6  H   UNL     1       3.164  -2.839  -0.742  0.00  0.00    +0.157 HD
BRANCH   4   7
ATOM      7  C   UNL     1       2.297  -0.364  -0.906  0.00  0.00    +0.325 C 
BRANCH   7   8
ATOM      8  O   UNL     1       2.307   1.063  -0.833  0.00  0.00    -0.481 OA
BRANCH   8   9
ATOM      9  C   UNL     1       1.161   1.707  -1.180  0.00  0.00    +0.140 A 
ATOM     10  C   UNL     1       0.050   0.980  -1.582  0.00  0.00    +0.048 A 
ATOM     11  C   UNL     1      -1.111   1.635  -1.940  0.00  0.00    +0.023 A 
ATOM     12  C   UNL     1      -1.172   3.017  -1.887  0.00  0.00    +0.043 A 
ATOM     13  C   UNL     1      -0.067   3.745  -1.486  0.00  0.00    +0.043 A 
ATOM     14  C   UNL     1       1.100   3.093  -1.132  0.00  0.00    +0.084 A 
ATOM     15 CL   UNL     1       2.488   4.006  -0.629  0.00  0.00    -0.080 Cl
ATOM     16 CL   UNL     1      -2.636   3.838  -2.331  0.00  0.00    -0.083 Cl
ENDBRANCH   8   9
ENDBRANCH   7   8
ENDBRANCH   4   7
ENDBRANCH   1   3
BRANCH   1  17
ATOM     17  N   UNL     1       5.297  -4.032  -0.096  0.00  0.00    -0.246 N 
ATOM     18  H   UNL     1       6.163  -4.375   0.173  0.00  0.00    +0.172 HD
BRANCH  17  19
ATOM     19  N   UNL     1       4.280  -4.917  -0.476  0.00  0.00    -0.246 N 
ATOM     20  H   UNL     1       3.413  -4.574  -0.745  0.00  0.00    +0.172 HD
BRANCH  19  21
ATOM     21  C   UNL     1       4.505  -6.246  -0.467  0.00  0.00    +0.151 C 
ATOM     22  S   UNL     1       3.261  -7.328  -0.931  0.00  0.00    -0.017 S 
BRANCH  21  23
ATOM     23  N   UNL     1       5.708  -6.723  -0.093  0.00  0.00    -0.296 N 
ATOM     24  H   UNL     1       6.431  -6.110   0.110  0.00  0.00    +0.154 HD
BRANCH  23  28
ATOM     25  C   UNL     1       6.322 -10.834   0.193  0.00  0.00    +0.000 A 
ATOM     26  C   UNL     1       5.675 -10.308  -0.910  0.00  0.00    +0.002 A 
ATOM     27  C   UNL     1       5.470  -8.945  -1.008  0.00  0.00    +0.023 A 
ATOM     28  C   UNL     1       5.915  -8.104   0.003  0.00  0.00    +0.033 A 
ATOM     29  C   UNL     1       6.570  -8.634   1.107  0.00  0.00    +0.023 A 
ATOM     30  C   UNL     1       6.767  -9.998   1.201  0.00  0.00    +0.002 A 
ENDBRANCH  23  28
ENDBRANCH  21  23
ENDBRANCH  19  21
ENDBRANCH  17  19
ENDBRANCH   1  17
TORSDOF 9
