REMARK  Name = ZINC40589164
REMARK  7 active torsions:
REMARK  status: ('A' for Active; 'I' for Inactive)
REMARK    1  A    between atoms: C_1  and  C_2
REMARK    2  A    between atoms: C_2  and  N_3
REMARK    3  A    between atoms: N_3  and  C_4
REMARK    4  A    between atoms: C_15  and  N_27
REMARK    5  A    between atoms: C_16  and  N_20
REMARK    6  A    between atoms: N_20  and  C_21
REMARK    7  A    between atoms: C_21  and  C_22
REMARK                            x       y       z     vdW  Elec       q    Type
REMARK                         _______ _______ _______ _____ _____    ______ ____
ROOT
ATOM      1  N   UNL     1      -1.509  -0.243   0.118  0.00  0.00    -0.283 N 
ATOM      2  C   UNL     1      -2.005  -0.526   1.383  0.00  0.00    +0.161 A 
ATOM      3  C   UNL     1      -3.192  -1.236   1.533  0.00  0.00    +0.206 A 
ATOM      4  C   UNL     1      -3.647  -1.495   2.822  0.00  0.00    +0.155 A 
ATOM      5  N   UNL     1      -2.935  -1.056   3.859  0.00  0.00    -0.218 NA
ATOM      6  C   UNL     1      -1.815  -0.386   3.675  0.00  0.00    +0.225 A 
ATOM      7  N   UNL     1      -1.349  -0.126   2.471  0.00  0.00    -0.218 NA
ENDROOT
BRANCH   1   8
ATOM      8  C   UNL     1      -2.259  -0.564  -1.013  0.00  0.00    +0.043 A 
ATOM      9  C   UNL     1      -2.123  -1.798  -1.611  0.00  0.00    +0.024 A 
ATOM     10  C   UNL     1      -2.867  -2.127  -2.740  0.00  0.00    +0.002 A 
ATOM     11  C   UNL     1      -3.748  -1.243  -3.284  0.00  0.00    +0.008 A 
ATOM     12  C   UNL     1      -3.917   0.026  -2.705  0.00  0.00    -0.016 A 
ATOM     13  C   UNL     1      -3.169   0.371  -1.551  0.00  0.00    +0.003 A 
ATOM     14  C   UNL     1      -3.344   1.637  -0.970  0.00  0.00    +0.010 A 
ATOM     15  C   UNL     1      -4.231   2.513  -1.517  0.00  0.00    +0.001 A 
ATOM     16  C   UNL     1      -4.971   2.173  -2.648  0.00  0.00    +0.001 A 
ATOM     17  C   UNL     1      -4.818   0.959  -3.245  0.00  0.00    +0.008 A 
ENDBRANCH   1   8
BRANCH   3  18
ATOM     18  N   UNL     1      -3.952  -1.705   0.352  0.00  0.00    +0.063 N 
ATOM     19  O   UNL     1      -3.752  -2.810  -0.096  0.00  0.00    -0.126 OA
ATOM     20  O   UNL     1      -4.772  -0.982  -0.165  0.00  0.00    -0.126 OA
ENDBRANCH   3  18
BRANCH   1  22
ATOM     21  C   UNL     1      -0.347   1.909   0.100  0.00  0.00    +0.025 C 
ATOM     22  C   UNL     1      -0.197   0.392  -0.029  0.00  0.00    +0.109 C 
ENDBRANCH   1  22
BRANCH   4  23
ATOM     23  N   UNL     1      -4.824  -2.198   3.025  0.00  0.00    -0.320 N 
ATOM     24  H   UNL     1      -5.338  -2.514   2.265  0.00  0.00    +0.148 HD
BRANCH  23  25
ATOM     25  C   UNL     1      -5.293  -2.464   4.387  0.00  0.00    +0.177 C 
BRANCH  25  26
ATOM     26  C   UNL     1      -6.585  -3.238   4.332  0.00  0.00    +0.122 A 
ATOM     27  C   UNL     1      -6.698  -4.579   4.318  0.00  0.00    +0.046 A 
ATOM     28  C   UNL     1      -8.080  -4.872   4.262  0.00  0.00    +0.041 A 
ATOM     29  C   UNL     1      -8.729  -3.694   4.245  0.00  0.00    +0.195 A 
ATOM     30  O   UNL     1      -7.818  -2.708   4.293  0.00  0.00    -0.466 OA
ENDBRANCH  25  26
ENDBRANCH  23  25
ENDBRANCH   4  23
TORSDOF 6
