REMARK  Name = ZINC44931278
REMARK  4 active torsions:
REMARK  status: ('A' for Active; 'I' for Inactive)
REMARK    1  A    between atoms: C_1  and  C_2
REMARK    2  A    between atoms: N_8  and  C_9
REMARK    3  A    between atoms: C_9  and  C_11
REMARK    4  A    between atoms: C_9  and  C_12
REMARK                            x       y       z     vdW  Elec       q    Type
REMARK                         _______ _______ _______ _____ _____    ______ ____
ROOT
ATOM      1  C   UNL     1      -0.018   1.503   0.010  0.00  0.00    +0.044 C 
ATOM      2  C   UNL     1       0.002  -0.004   0.002  0.00  0.00    -0.046 A 
ATOM      3  C   UNL     1       0.006  -0.708  -1.196  0.00  0.00    +0.021 A 
ATOM      4  C   UNL     1       0.025  -2.087  -1.169  0.00  0.00    +0.084 A 
ATOM      5  N   UNL     1       0.040  -2.742  -0.023  0.00  0.00    -0.350 N 
ATOM      6  C   UNL     1       0.036  -2.108   1.139  0.00  0.00    +0.097 A 
ATOM      7  C   UNL     1       0.023  -0.717   1.187  0.00  0.00    +0.045 A 
ATOM      8  N   UNL     1       0.052  -2.838   2.322  0.00  0.00    -0.321 N 
ATOM      9  H   UNL     1       0.065  -3.807   2.294  0.00  0.00    +0.148 HD
ATOM     10  H   UNL     1       0.054  -3.712  -0.033  0.00  0.00    +0.166 HD
ENDROOT
BRANCH   8  11
ATOM     11  C   UNL     1       0.048  -2.142   3.611  0.00  0.00    +0.140 C 
ATOM     12  C   UNL     1      -1.392  -1.810   4.007  0.00  0.00    +0.036 C 
BRANCH  11  13
ATOM     13  C   UNL     1       0.665  -3.029   4.662  0.00  0.00    +0.196 A 
ATOM     14  N   UNL     1       1.555  -2.670   5.576  0.00  0.00    -0.109 NA
ATOM     15  N   UNL     1       1.831  -3.712   6.283  0.00  0.00    -0.021 NA
ATOM     16  N   UNL     1       1.145  -4.710   5.843  0.00  0.00    -0.021 NA
ATOM     17  N   UNL     1       0.419  -4.317   4.854  0.00  0.00    -0.109 NA
ENDBRANCH  11  13
ENDBRANCH   8  11
TORSDOF 2
