REMARK  Name = ZINC09684916
REMARK  11 active torsions:
REMARK  status: ('A' for Active; 'I' for Inactive)
REMARK    1  A    between atoms: C_1  and  C_2
REMARK    2  A    between atoms: C_3  and  C_23
REMARK    3  A    between atoms: C_4  and  S_9
REMARK    4  A    between atoms: C_5  and  C_8
REMARK    5  A    between atoms: N_6  and  C_7
REMARK    6  A    between atoms: S_9  and  N_12
REMARK    7  A    between atoms: N_12  and  C_13
REMARK    8  A    between atoms: C_16  and  O_21
REMARK    9  A    between atoms: C_18  and  O_19
REMARK   10  A    between atoms: O_19  and  C_20
REMARK   11  A    between atoms: O_21  and  C_22
REMARK                            x       y       z     vdW  Elec       q    Type
REMARK                         _______ _______ _______ _____ _____    ______ ____
ROOT
ATOM      1  C   UNL     1      -1.594   7.039   1.200  0.00  0.00    +0.064 C 
ATOM      2  C   UNL     1      -2.636   6.082   1.720  0.00  0.00    +0.030 A 
ATOM      3  C   UNL     1      -3.066   4.948   1.088  0.00  0.00    +0.084 A 
ATOM      4  C   UNL     1      -4.071   4.346   1.971  0.00  0.00    +0.141 A 
ATOM      5  C   UNL     1      -4.166   5.154   3.042  0.00  0.00    +0.043 A 
ATOM      6  N   UNL     1      -3.303   6.199   2.884  0.00  0.00    -0.349 N 
ATOM      7  C   UNL     1      -3.122   7.289   3.845  0.00  0.00    +0.149 C 
ATOM      8  C   UNL     1      -5.077   4.942   4.223  0.00  0.00    +0.065 C 
ENDROOT
BRANCH   3   9
ATOM      9  C   UNL     1      -2.610   4.432  -0.214  0.00  0.00    +0.250 C 
ATOM     10  O   UNL     1      -3.177   4.770  -1.235  0.00  0.00    -0.270 OA
ATOM     11  N   UNL     1      -1.563   3.585  -0.273  0.00  0.00    -0.297 N 
ATOM     12  C   UNL     1      -1.095   3.062  -1.564  0.00  0.00    +0.108 C 
ATOM     13  C   UNL     1      -1.051   1.532  -1.489  0.00  0.00    +0.019 C 
ATOM     14  C   UNL     1      -0.197   1.108  -0.293  0.00  0.00    +0.003 C 
ATOM     15  C   UNL     1      -0.826   1.637   0.998  0.00  0.00    +0.019 C 
ATOM     16  C   UNL     1      -0.867   3.168   0.952  0.00  0.00    +0.108 C 
ENDBRANCH   3   9
BRANCH   4  17
ATOM     17  S   UNL     1      -4.974   2.860   1.686  0.00  0.00    +0.075 S 
ATOM     18  O   UNL     1      -6.165   2.954   2.456  0.00  0.00    -0.150 OA
ATOM     19  O   UNL     1      -4.989   2.657   0.280  0.00  0.00    -0.150 OA
BRANCH  17  20
ATOM     20  N   UNL     1      -4.089   1.618   2.333  0.00  0.00    -0.213 N 
ATOM     21  H   UNL     1      -3.703   0.944   1.753  0.00  0.00    +0.174 HD
BRANCH  20  22
ATOM     22  C   UNL     1      -3.899   1.541   3.720  0.00  0.00    +0.090 A 
ATOM     23  C   UNL     1      -4.910   1.937   4.583  0.00  0.00    +0.032 A 
ATOM     24  C   UNL     1      -4.722   1.860   5.950  0.00  0.00    +0.048 A 
ATOM     25  C   UNL     1      -3.523   1.389   6.463  0.00  0.00    +0.124 A 
ATOM     26  C   UNL     1      -2.509   0.992   5.604  0.00  0.00    +0.093 A 
ATOM     27  C   UNL     1      -2.695   1.063   4.233  0.00  0.00    +0.146 A 
BRANCH  27  28
ATOM     28  O   UNL     1      -1.704   0.669   3.390  0.00  0.00    -0.493 OA
ATOM     29  C   UNL     1      -0.497   0.189   3.986  0.00  0.00    +0.277 C 
ENDBRANCH  27  28
BRANCH  25  30
ATOM     30  O   UNL     1      -3.341   1.315   7.808  0.00  0.00    -0.495 OA
ATOM     31  C   UNL     1      -4.428   1.739   8.634  0.00  0.00    +0.277 C 
ENDBRANCH  25  30
ENDBRANCH  20  22
ENDBRANCH  17  20
ENDBRANCH   4  17
TORSDOF 6
