REMARK  Name = ZINC13231276
REMARK  9 active torsions:
REMARK  status: ('A' for Active; 'I' for Inactive)
REMARK    1  A    between atoms: C_1  and  C_2
REMARK    2  A    between atoms: C_2  and  C_3
REMARK    3  A    between atoms: C_2  and  C_4
REMARK    4  A    between atoms: C_4  and  N_5
REMARK    5  A    between atoms: C_6  and  C_8
REMARK    6  A    between atoms: C_8  and  S_9
REMARK    7  A    between atoms: S_9  and  C_10
REMARK    8  A    between atoms: C_14  and  C_28
REMARK    9  A    between atoms: N_20  and  C_21
REMARK                            x       y       z     vdW  Elec       q    Type
REMARK                         _______ _______ _______ _____ _____    ______ ____
ROOT
ATOM      1  C   UNL     1      -3.060   4.166  -1.133  0.00  0.00    +0.177 A 
ATOM      2  N   UNL     1      -4.205   4.801  -1.194  0.00  0.00    -0.223 NA
ATOM      3  C   UNL     1      -4.869   5.173  -0.074  0.00  0.00    +0.080 A 
ATOM      4  C   UNL     1      -6.087   5.856  -0.142  0.00  0.00    +0.043 A 
ATOM      5  C   UNL     1      -6.732   6.218   1.033  0.00  0.00    +0.065 A 
ATOM      6  C   UNL     1      -6.172   5.903   2.278  0.00  0.00    +0.016 A 
ATOM      7  C   UNL     1      -4.983   5.237   2.357  0.00  0.00    +0.016 A 
ATOM      8  C   UNL     1      -4.317   4.864   1.189  0.00  0.00    +0.065 A 
ATOM      9  C   UNL     1      -3.034   4.144   1.228  0.00  0.00    +0.267 A 
ATOM     10  O   UNL     1      -2.508   3.850   2.286  0.00  0.00    -0.267 OA
ATOM     11  N   UNL     1      -2.460   3.822   0.046  0.00  0.00    -0.253 N 
ENDROOT
BRANCH  11  12
ATOM     12  C   UNL     1      -1.238   3.137   0.031  0.00  0.00    +0.087 A 
ATOM     13  C   UNL     1      -1.219   1.749   0.017  0.00  0.00    +0.029 A 
ATOM     14  C   UNL     1      -0.013   1.076   0.008  0.00  0.00    +0.002 A 
ATOM     15  C   UNL     1       1.176   1.782   0.000  0.00  0.00    +0.003 A 
ATOM     16  C   UNL     1       1.163   3.165   0.008  0.00  0.00    +0.040 A 
ATOM     17  C   UNL     1      -0.042   3.845   0.024  0.00  0.00    +0.147 A 
ATOM     18  F   UNL     1      -0.055   5.196   0.031  0.00  0.00    -0.203 F 
ENDBRANCH  11  12
BRANCH   5  19
ATOM     19  C   UNL     1      -8.022   6.940   0.970  0.00  0.00    +0.387 C 
ATOM     20  O   UNL     1      -8.512   7.215  -0.107  0.00  0.00    -0.241 OA
ATOM     21  O   UNL     1      -8.652   7.293   2.107  0.00  0.00    -0.241 OA
ENDBRANCH   5  19
BRANCH   1  22
ATOM     22  S   UNL     1      -2.262   3.726  -2.641  0.00  0.00    -0.078 S 
BRANCH  22  23
ATOM     23  C   UNL     1      -3.448   4.398  -3.832  0.00  0.00    +0.173 C 
BRANCH  23  25
ATOM     24  N   UNL     1      -3.686   4.545  -6.290  0.00  0.00    -0.314 N 
ATOM     25  C   UNL     1      -2.959   4.131  -5.233  0.00  0.00    +0.223 C 
ATOM     26  O   UNL     1      -1.913   3.545  -5.408  0.00  0.00    -0.275 OA
ATOM     27  H   UNL     1      -4.523   5.014  -6.149  0.00  0.00    +0.149 HD
BRANCH  24  28
ATOM     28  C   UNL     1      -3.211   4.286  -7.651  0.00  0.00    +0.107 C 
BRANCH  28  30
ATOM     29  C   UNL     1      -4.259   6.377  -8.528  0.00  0.00    +0.009 C 
ATOM     30  C   UNL     1      -4.214   4.854  -8.658  0.00  0.00    -0.000 C 
ATOM     31  C   UNL     1      -3.782   4.475 -10.076  0.00  0.00    +0.009 C 
ENDBRANCH  28  30
ENDBRANCH  24  28
ENDBRANCH  23  25
ENDBRANCH  22  23
ENDBRANCH   1  22
TORSDOF 7
