REMARK  Name = ZINC08189182
REMARK  6 active torsions:
REMARK  status: ('A' for Active; 'I' for Inactive)
REMARK    1  A    between atoms: C_7  and  S_11
REMARK    2  A    between atoms: S_11  and  C_12
REMARK    3  A    between atoms: C_12  and  C_13
REMARK    4  A    between atoms: N_15  and  N_16
REMARK    5  A    between atoms: C_17  and  C_19
REMARK    6  A    between atoms: C_23  and  N_25
REMARK                            x       y       z     vdW  Elec       q    Type
REMARK                         _______ _______ _______ _____ _____    ______ ____
ROOT
ATOM      1  C   UNL     1       2.369   1.025  -0.015  0.00  0.00    +0.239 C 
ATOM      2  O   UNL     1       2.385  -0.188  -0.022  0.00  0.00    -0.273 OA
ATOM      3  N   UNL     1       1.193   1.683  -0.000  0.00  0.00    -0.233 N 
ATOM      4  H   UNL     1       1.179   2.653   0.005  0.00  0.00    +0.173 HD
ENDROOT
BRANCH   3   5
ATOM      5  N   UNL     1      -0.011   0.966   0.007  0.00  0.00    -0.230 N 
ATOM      6  C   UNL     1      -1.187   1.624   0.017  0.00  0.00    +0.260 C 
ATOM      7  O   UNL     1      -1.204   2.839   0.023  0.00  0.00    -0.269 OA
ATOM      8  H   UNL     1       0.002  -0.004   0.002  0.00  0.00    +0.173 HD
BRANCH   6   9
ATOM      9  C   UNL     1      -2.458   0.867   0.018  0.00  0.00    +0.040 A 
ATOM     10  C   UNL     1      -2.442  -0.529   0.005  0.00  0.00    +0.013 A 
ATOM     11  C   UNL     1      -3.631  -1.228   0.012  0.00  0.00    +0.003 A 
ATOM     12  C   UNL     1      -4.837  -0.550   0.021  0.00  0.00    +0.033 A 
ATOM     13  C   UNL     1      -4.859   0.833   0.029  0.00  0.00    +0.127 A 
ATOM     14  C   UNL     1      -3.677   1.545   0.028  0.00  0.00    +0.045 A 
BRANCH  13  15
ATOM     15  N   UNL     1      -6.154   1.551   0.039  0.00  0.00    +0.056 N 
ATOM     16  O   UNL     1      -6.175   2.769   0.045  0.00  0.00    -0.126 OA
ATOM     17  O   UNL     1      -7.198   0.924   0.040  0.00  0.00    -0.126 OA
ENDBRANCH  13  15
ENDBRANCH   6   9
ENDBRANCH   3   5
BRANCH   1  18
ATOM     18  C   UNL     1       3.663   1.796  -0.023  0.00  0.00    +0.173 C 
BRANCH  18  19
ATOM     19  S   UNL     1       5.055   0.639  -0.043  0.00  0.00    -0.096 S 
BRANCH  19  26
ATOM     20  C   UNL     1       9.372  -0.422  -0.088  0.00  0.00    +0.001 A 
ATOM     21  C   UNL     1      10.392   0.525  -0.093  0.00  0.00    +0.002 A 
ATOM     22  C   UNL     1      10.111   1.859  -0.084  0.00  0.00    +0.028 A 
ATOM     23  C   UNL     1       8.777   2.285  -0.069  0.00  0.00    +0.075 A 
ATOM     24  C   UNL     1       7.741   1.320  -0.065  0.00  0.00    +0.032 A 
ATOM     25  C   UNL     1       8.062  -0.042  -0.075  0.00  0.00    +0.012 A 
ATOM     26  C   UNL     1       6.400   1.777  -0.050  0.00  0.00    +0.108 A 
ATOM     27  N   UNL     1       6.184   3.087  -0.046  0.00  0.00    -0.229 NA
ATOM     28  C   UNL     1       7.186   3.952  -0.045  0.00  0.00    +0.223 A 
ATOM     29  N   UNL     1       8.446   3.586  -0.059  0.00  0.00    -0.235 NA
ENDBRANCH  19  26
ENDBRANCH  18  19
ENDBRANCH   1  18
TORSDOF 6
