REMARK  Name = ZINC09731806
REMARK  10 active torsions:
REMARK  status: ('A' for Active; 'I' for Inactive)
REMARK    1  A    between atoms: C_1  and  C_2
REMARK    2  A    between atoms: C_2  and  C_36
REMARK    3  A    between atoms: C_6  and  C_26
REMARK    4  A    between atoms: C_11  and  C_13
REMARK    5  A    between atoms: C_15  and  O_23
REMARK    6  A    between atoms: C_16  and  O_21
REMARK    7  A    between atoms: C_17  and  O_19
REMARK    8  A    between atoms: O_19  and  C_20
REMARK    9  A    between atoms: O_21  and  C_22
REMARK   10  A    between atoms: O_23  and  C_24
REMARK                            x       y       z     vdW  Elec       q    Type
REMARK                         _______ _______ _______ _____ _____    ______ ____
ROOT
ATOM      1  C   UNL     1       3.372   1.495  -1.924  0.00  0.00    +0.011 C 
ATOM      2  C   UNL     1       3.606   1.589  -0.415  0.00  0.00    -0.023 C 
ATOM      3  C   UNL     1       2.432   0.949   0.329  0.00  0.00    +0.058 C 
ATOM      4  C   UNL     1       1.157   1.690   0.000  0.00  0.00    +0.020 C 
ATOM      5  C   UNL     1       1.175   3.010  -0.283  0.00  0.00    +0.041 C 
ATOM      6  C   UNL     1      -0.085   3.778  -0.616  0.00  0.00    +0.175 C 
ATOM      7  N   UNL     1      -1.258   2.989  -0.264  0.00  0.00    -0.220 N 
ATOM      8  C   UNL     1      -1.208   1.663   0.017  0.00  0.00    +0.219 A 
ATOM      9  N   UNL     1      -2.419   1.257   0.284  0.00  0.00    -0.193 NA
ATOM     10  C   UNL     1      -3.271   2.292   0.183  0.00  0.00    +0.183 A 
ATOM     11  N   UNL     1      -2.594   3.372  -0.150  0.00  0.00    -0.147 NA
ATOM     12  N   UNL     1      -0.011   0.966   0.007  0.00  0.00    -0.287 N 
ATOM     13  C   UNL     1       2.383   3.731  -0.283  0.00  0.00    +0.164 C 
ATOM     14  O   UNL     1       2.363   4.923  -0.519  0.00  0.00    -0.292 OA
ATOM     15  C   UNL     1       3.697   3.060   0.003  0.00  0.00    +0.086 C 
ATOM     16  C   UNL     1       4.904   0.867  -0.048  0.00  0.00    +0.011 C 
ATOM     17  H   UNL     1       0.002  -0.004   0.002  0.00  0.00    +0.155 HD
ENDROOT
BRANCH   6  18
ATOM     18  C   UNL     1      -0.111   4.079  -2.092  0.00  0.00    -0.018 A 
ATOM     19  C   UNL     1      -0.091   3.044  -3.009  0.00  0.00    +0.009 A 
ATOM     20  C   UNL     1      -0.121   3.318  -4.363  0.00  0.00    +0.039 A 
ATOM     21  C   UNL     1      -0.159   4.631  -4.802  0.00  0.00    +0.123 A 
ATOM     22  C   UNL     1      -0.173   5.667  -3.883  0.00  0.00    +0.039 A 
ATOM     23  C   UNL     1      -0.149   5.390  -2.530  0.00  0.00    +0.009 A 
ATOM     24  F   UNL     1      -0.182   4.900  -6.125  0.00  0.00    -0.205 F 
ENDBRANCH   6  18
BRANCH  10  25
ATOM     25  C   UNL     1      -4.736   2.228   0.410  0.00  0.00    +0.028 A 
ATOM     26  C   UNL     1      -5.513   3.377   0.279  0.00  0.00    +0.061 A 
ATOM     27  C   UNL     1      -6.880   3.314   0.486  0.00  0.00    +0.166 A 
ATOM     28  C   UNL     1      -7.477   2.108   0.836  0.00  0.00    +0.204 A 
ATOM     29  C   UNL     1      -6.702   0.961   0.972  0.00  0.00    +0.166 A 
ATOM     30  C   UNL     1      -5.335   1.019   0.760  0.00  0.00    +0.061 A 
BRANCH  29  31
ATOM     31  O   UNL     1      -7.287  -0.218   1.315  0.00  0.00    -0.491 OA
ATOM     32  C   UNL     1      -6.431  -1.355   1.438  0.00  0.00    +0.277 C 
ENDBRANCH  29  31
BRANCH  28  33
ATOM     33  O   UNL     1      -8.820   2.049   1.044  0.00  0.00    -0.488 OA
ATOM     34  C   UNL     1      -9.281   2.289   2.375  0.00  0.00    +0.277 C 
ENDBRANCH  28  33
BRANCH  27  35
ATOM     35  O   UNL     1      -7.639   4.435   0.354  0.00  0.00    -0.491 OA
ATOM     36  C   UNL     1      -6.961   5.640  -0.007  0.00  0.00    +0.277 C 
ENDBRANCH  27  35
ENDBRANCH  10  25
TORSDOF 5
