REMARK  Name = ZINC64900235
REMARK  4 active torsions:
REMARK  status: ('A' for Active; 'I' for Inactive)
REMARK    1  A    between atoms: C_3  and  C_9
REMARK    2  A    between atoms: C_9  and  C_15
REMARK    3  A    between atoms: N_17  and  N_18
REMARK    4  A    between atoms: N_21  and  C_22
REMARK                            x       y       z     vdW  Elec       q    Type
REMARK                         _______ _______ _______ _____ _____    ______ ____
ROOT
ATOM      1  C   UNL     1       3.671   2.185  -0.023  0.00  0.00    +0.079 C 
ATOM      2  C   UNL     1       4.474   1.826  -1.277  0.00  0.00    +0.049 C 
ATOM      3  C   UNL     1       5.820   2.554  -1.239  0.00  0.00    +0.161 C 
ATOM      4  O   UNL     1       6.520   2.196  -0.046  0.00  0.00    -0.380 OA
ATOM      5  C   UNL     1       5.839   2.550   1.159  0.00  0.00    +0.161 C 
ATOM      6  C   UNL     1       4.494   1.822   1.217  0.00  0.00    +0.049 C 
ENDROOT
BRANCH   1   9
ATOM      7  C   UNL     1      -0.017   1.379   0.010  0.00  0.00    +0.020 A 
ATOM      8  C   UNL     1       1.171   2.087   0.002  0.00  0.00    +0.007 A 
ATOM      9  C   UNL     1       2.377   1.413  -0.013  0.00  0.00    -0.014 A 
ATOM     10  C   UNL     1       2.397   0.029  -0.021  0.00  0.00    +0.047 A 
ATOM     11  C   UNL     1       1.210  -0.679  -0.013  0.00  0.00    +0.040 A 
ATOM     12  C   UNL     1       0.002  -0.004   0.002  0.00  0.00    +0.042 A 
ATOM     13 CL   UNL     1      -1.489  -0.893   0.012  0.00  0.00    -0.083 Cl
ATOM     14 CL   UNL     1       3.913  -0.817  -0.041  0.00  0.00    -0.083 Cl
ENDBRANCH   1   9
BRANCH   1  15
ATOM     15  C   UNL     1       3.377   3.663  -0.017  0.00  0.00    +0.240 C 
ATOM     16  O   UNL     1       3.781   4.358   0.891  0.00  0.00    -0.273 OA
ATOM     17  N   UNL     1       2.664   4.212  -1.020  0.00  0.00    -0.232 N 
ATOM     18  H   UNL     1       2.341   3.656  -1.746  0.00  0.00    +0.173 HD
BRANCH  17  19
ATOM     19  N   UNL     1       2.390   5.586  -1.014  0.00  0.00    -0.218 N 
ATOM     20  C   UNL     1       1.677   6.135  -2.018  0.00  0.00    +0.316 C 
ATOM     21  O   UNL     1       1.439   7.328  -2.013  0.00  0.00    -0.251 OA
ATOM     22  N   UNL     1       1.228   5.363  -3.027  0.00  0.00    -0.295 N 
ATOM     23  H   UNL     1       2.713   6.142  -0.288  0.00  0.00    +0.174 HD
ATOM     24  H   UNL     1       1.418   4.411  -3.031  0.00  0.00    +0.151 HD
BRANCH  22  25
ATOM     25  C   UNL     1       0.453   5.960  -4.118  0.00  0.00    +0.075 C 
ATOM     26  C   UNL     1      -0.790   5.206  -4.596  0.00  0.00    +0.024 C 
ATOM     27  C   UNL     1       0.467   5.242  -5.469  0.00  0.00    +0.024 C 
ENDBRANCH  22  25
ENDBRANCH  17  19
ENDBRANCH   1  15
TORSDOF 4
