REMARK  Name = ZINC62504956
REMARK  13 active torsions:
REMARK  status: ('A' for Active; 'I' for Inactive)
REMARK    1  A    between atoms: C_1  and  C_2
REMARK    2  A    between atoms: C_2  and  C_3
REMARK    3  A    between atoms: N_5  and  C_6
REMARK    4  A    between atoms: C_9  and  C_12
REMARK    5  A    between atoms: C_12  and  C_13
REMARK    6  A    between atoms: C_12  and  N_14
REMARK    7  A    between atoms: N_17  and  C_18
REMARK    8  A    between atoms: C_18  and  C_19
REMARK    9  A    between atoms: C_18  and  C_20
REMARK   10  A    between atoms: C_20  and  C_21
REMARK   11  A    between atoms: C_21  and  N_22
REMARK   12  A    between atoms: N_22  and  C_23
REMARK   13  A    between atoms: N_22  and  C_24
REMARK                            x       y       z     vdW  Elec       q    Type
REMARK                         _______ _______ _______ _____ _____    ______ ____
ROOT
ATOM      1  C   UNL     1      -7.027  -3.602  -0.316  0.00  0.00    +0.102 C 
ATOM      2  C   UNL     1      -7.341  -4.025  -1.753  0.00  0.00    +0.033 C 
ENDROOT
BRANCH   1   6
ATOM      3  C   UNL     1      -2.969  -2.285  -0.072  0.00  0.00    +0.033 A 
ATOM      4  C   UNL     1      -3.998  -1.356  -0.159  0.00  0.00    +0.023 A 
ATOM      5  C   UNL     1      -5.308  -1.785  -0.237  0.00  0.00    +0.007 A 
ATOM      6  C   UNL     1      -5.596  -3.137  -0.230  0.00  0.00    -0.027 A 
ATOM      7  C   UNL     1      -4.574  -4.065  -0.144  0.00  0.00    +0.007 A 
ATOM      8  C   UNL     1      -3.261  -3.643  -0.071  0.00  0.00    +0.023 A 
BRANCH   3  11
ATOM      9  C   UNL     1      -0.664  -2.565  -0.591  0.00  0.00    +0.217 C 
ATOM     10  O   UNL     1      -0.924  -3.621  -1.126  0.00  0.00    -0.275 OA
ATOM     11  N   UNL     1      -1.640  -1.854   0.008  0.00  0.00    -0.286 N 
ATOM     12  H   UNL     1      -1.421  -1.043   0.494  0.00  0.00    +0.155 HD
BRANCH   9  14
ATOM     13  C   UNL     1       1.655  -3.037  -1.332  0.00  0.00    +0.013 C 
ATOM     14  C   UNL     1       0.751  -2.047  -0.594  0.00  0.00    +0.093 C 
ENDBRANCH   9  14
ENDBRANCH   3  11
ENDBRANCH   1   6
BRANCH   1  15
ATOM     15  N   UNL     1      -7.226  -4.741   0.583  0.00  0.00    -0.293 N 
ATOM     16  C   UNL     1      -8.454  -5.011   1.067  0.00  0.00    +0.300 C 
ATOM     17  O   UNL     1      -9.398  -4.309   0.758  0.00  0.00    -0.253 OA
ATOM     18  N   UNL     1      -8.637  -6.059   1.895  0.00  0.00    -0.297 N 
ATOM     19  H   UNL     1      -6.474  -5.301   0.829  0.00  0.00    +0.151 HD
ATOM     20  H   UNL     1      -7.885  -6.620   2.141  0.00  0.00    +0.151 HD
BRANCH  18  21
ATOM     21  C   UNL     1      -9.973  -6.353   2.421  0.00  0.00    +0.070 C 
ATOM     22  C   UNL     1     -10.224  -5.509   3.673  0.00  0.00    +0.028 C 
BRANCH  21  23
ATOM     23  C   UNL     1     -10.064  -7.837   2.780  0.00  0.00    +0.003 C 
BRANCH  23  24
ATOM     24  C   UNL     1      -9.937  -8.678   1.508  0.00  0.00    -0.078 C 
BRANCH  24  25
ATOM     25  N   UNL     1     -10.026 -10.103   1.852  0.00  0.00    +0.376 N 
ATOM     26  C   UNL     1     -10.024 -10.905   0.621  0.00  0.00    -0.097 C 
ATOM     27  C   UNL     1      -8.874 -10.479   2.683  0.00  0.00    -0.097 C 
ATOM     28  H   UNL     1     -10.879 -10.274   2.363  0.00  0.00    -0.083 HD
ENDBRANCH  24  25
ENDBRANCH  23  24
ENDBRANCH  21  23
ENDBRANCH  18  21
ENDBRANCH   1  15
TORSDOF 8
