REMARK  Name = ZINC36142714
REMARK  5 active torsions:
REMARK  status: ('A' for Active; 'I' for Inactive)
REMARK    1  A    between atoms: C_1  and  C_2
REMARK    2  A    between atoms: C_2  and  C_3
REMARK    3  A    between atoms: C_2  and  C_4
REMARK    4  A    between atoms: C_8  and  N_10
REMARK    5  A    between atoms: C_12  and  C_17
REMARK                            x       y       z     vdW  Elec       q    Type
REMARK                         _______ _______ _______ _____ _____    ______ ____
ROOT
ATOM      1  C   UNL     1      -1.412  -0.526   0.013  0.00  0.00    -0.042 A 
ATOM      2  C   UNL     1      -1.857  -1.323  -1.020  0.00  0.00    +0.019 A 
ATOM      3  C   UNL     1      -3.168  -1.806  -1.006  0.00  0.00    +0.061 A 
ATOM      4  C   UNL     1      -4.029  -1.485   0.053  0.00  0.00    +0.152 A 
ATOM      5  C   UNL     1      -3.561  -0.675   1.087  0.00  0.00    +0.068 A 
ATOM      6  C   UNL     1      -2.257  -0.206   1.063  0.00  0.00    +0.030 A 
ATOM      7  O   UNL     1      -5.298  -1.956   0.084  0.00  0.00    -0.481 OA
ATOM      8  C   UNL     1      -5.911  -2.358  -1.142  0.00  0.00    +0.211 C 
ATOM      9  C   UNL     1      -4.995  -3.356  -1.865  0.00  0.00    +0.129 C 
ATOM     10  C   UNL     1      -3.668  -2.656  -2.101  0.00  0.00    +0.171 C 
ATOM     11  O   UNL     1      -3.052  -2.789  -3.138  0.00  0.00    -0.292 OA
ENDROOT
BRANCH   8  12
ATOM     12  C   UNL     1      -7.237  -3.013  -0.850  0.00  0.00    -0.004 A 
ATOM     13  C   UNL     1      -7.413  -3.782   0.290  0.00  0.00    +0.027 A 
ATOM     14  C   UNL     1      -8.644  -4.366   0.524  0.00  0.00    +0.111 A 
ATOM     15  N   UNL     1      -9.642  -4.199  -0.322  0.00  0.00    -0.263 NA
ATOM     16  C   UNL     1      -9.510  -3.474  -1.415  0.00  0.00    +0.111 A 
ATOM     17  C   UNL     1      -8.311  -2.854  -1.713  0.00  0.00    +0.027 A 
ENDBRANCH   8  12
BRANCH   1  19
ATOM     18  C   UNL     1      -0.019   1.526   0.010  0.00  0.00    +0.012 C 
ATOM     19  C   UNL     1       0.002  -0.004   0.002  0.00  0.00    +0.013 C 
ATOM     20  C   UNL     1       0.742  -0.511   1.242  0.00  0.00    +0.012 C 
ENDBRANCH   1  19
BRANCH   5  21
ATOM     21  N   UNL     1      -4.407  -0.339   2.151  0.00  0.00    -0.355 N 
ATOM     22  H   UNL     1      -5.318  -0.670   2.170  0.00  0.00    +0.142 HD
ATOM     23  H   UNL     1      -4.081   0.225   2.870  0.00  0.00    +0.142 HD
ENDBRANCH   5  21
TORSDOF 3
