REMARK  Name = ZINC37262674
REMARK  14 active torsions:
REMARK  status: ('A' for Active; 'I' for Inactive)
REMARK    1  A    between atoms: CD1_1  and  CG1_2
REMARK    2  A    between atoms: CG1_2  and  CB_3
REMARK    3  A    between atoms: CB_3  and  CG2_5
REMARK    4  A    between atoms: CB_3  and  CA_6
REMARK    5  A    between atoms: CA_6  and  C_8
REMARK    6  A    between atoms: CA_6  and  N_10
REMARK    7  A    between atoms: C_8  and  O_9
REMARK    8  A    between atoms: C_11  and  CA_13
REMARK    9  A    between atoms: CA_13  and  CB_15
REMARK   10  A    between atoms: CA_13  and  N_18
REMARK   11  A    between atoms: CB_15  and  CG1_16
REMARK   12  A    between atoms: CB_15  and  CG2_17
REMARK   13  A    between atoms: C_19  and  C_21
REMARK   14  A    between atoms: C_21  and  C_22
REMARK                            x       y       z     vdW  Elec       q    Type
REMARK                         _______ _______ _______ _____ _____    ______ ____
ROOT
ATOM      1  N   VAL A   1       1.470  -5.577  -4.502  0.00  0.00    -0.303 N 
ATOM      2  C   UNK A   0       1.480  -6.020  -5.775  0.00  0.00    +0.220 C 
ATOM      3  O   UNK A   0       1.883  -5.301  -6.664  0.00  0.00    -0.275 OA
ATOM      4  H   VAL A   1       1.147  -6.152  -3.791  0.00  0.00    +0.149 HD
ENDROOT
BRANCH   1   5
ATOM      5  CA  VAL A   1       1.946  -4.226  -4.193  0.00  0.00    +0.161 C 
BRANCH   5   7
ATOM      6  N   VAL A   1       1.094  -2.428  -2.724  0.00  0.00    -0.308 N 
ATOM      7  C   VAL A   1       1.301  -3.746  -2.919  0.00  0.00    +0.234 C 
ATOM      8  O   VAL A   1       0.969  -4.544  -2.068  0.00  0.00    -0.274 OA
ATOM      9  H   VAL A   1       1.426  -1.784  -3.369  0.00  0.00    +0.149 HD
BRANCH   6  10
ATOM     10  CA  VAL A   1       0.366  -1.969  -1.539  0.00  0.00    +0.101 C 
BRANCH  10  11
ATOM     11  CB  VAL A   1      -0.270  -0.608  -1.826  0.00  0.00    +0.008 C 
ATOM     12  CG2 VAL A   1      -1.241  -0.736  -3.002  0.00  0.00    +0.009 C 
BRANCH  11  14
ATOM     13  CD1 VAL A   1      -1.561   1.286  -0.832  0.00  0.00    +0.004 C 
ATOM     14  CG1 VAL A   1      -1.030  -0.128  -0.588  0.00  0.00    +0.002 C 
ENDBRANCH  11  14
ENDBRANCH  10  11
BRANCH  10  15
ATOM     15  C   VAL A   1       1.337  -1.840  -0.363  0.00  0.00    +0.178 C 
BRANCH  15  16
ATOM     16  O   VAL A   1       2.290  -0.813  -0.643  0.00  0.00    -0.393 OA
ATOM     17  H   VAL A   1       2.938  -0.676   0.061  0.00  0.00    +0.209 HD
ENDBRANCH  15  16
ENDBRANCH  10  15
ENDBRANCH   6  10
ENDBRANCH   5   7
BRANCH   5  18
ATOM     18  CB  VAL A   1       3.466  -4.250  -4.019  0.00  0.00    +0.012 C 
ATOM     19  CG1 VAL A   1       4.126  -4.648  -5.340  0.00  0.00    +0.009 C 
ATOM     20  CG2 VAL A   1       3.953  -2.859  -3.604  0.00  0.00    +0.009 C 
ENDBRANCH   5  18
ENDBRANCH   1   5
BRANCH   2  21
ATOM     21  C   UNK A   0       0.990  -7.410  -6.093  0.00  0.00    +0.153 C 
BRANCH  21  22
ATOM     22  C   UNK A   0       1.105  -7.656  -7.575  0.00  0.00    +0.078 A 
ATOM     23  C   UNK A   0       0.685  -8.939  -8.138  0.00  0.00    +0.011 A 
ATOM     24  C   UNK A   0       0.170  -9.961  -7.338  0.00  0.00    +0.010 A 
ATOM     25  C   UNK A   0      -0.210 -11.143  -7.912  0.00  0.00    +0.001 A 
ATOM     26  C   UNK A   0      -0.091 -11.342  -9.281  0.00  0.00    +0.001 A 
ATOM     27  C   UNK A   0       0.413 -10.351 -10.095  0.00  0.00    +0.014 A 
ATOM     28  C   UNK A   0       0.806  -9.138  -9.532  0.00  0.00    +0.050 A 
ATOM     29  C   UNK A   0       1.351  -8.043 -10.345  0.00  0.00    +0.272 A 
ATOM     30  N   UNK A   0       1.711  -6.896  -9.732  0.00  0.00    -0.242 N 
ATOM     31  N   UNK A   0       1.574  -6.727  -8.354  0.00  0.00    -0.175 NA
ATOM     32  O   UNK A   0       1.475  -8.168 -11.550  0.00  0.00    -0.266 OA
ATOM     33  H   UNK A   0       2.071  -6.170 -10.263  0.00  0.00    +0.192 HD
ENDBRANCH  21  22
ENDBRANCH   2  21
TORSDOF 10
