REMARK  Name = ZINC29469094
REMARK  9 active torsions:
REMARK  status: ('A' for Active; 'I' for Inactive)
REMARK    1  A    between atoms: C_1  and  C_2
REMARK    2  A    between atoms: C_15  and  C_17
REMARK    3  A    between atoms: C_17  and  S_18
REMARK    4  A    between atoms: S_18  and  C_19
REMARK    5  A    between atoms: N_20  and  C_21
REMARK    6  A    between atoms: C_21  and  C_23
REMARK    7  A    between atoms: C_21  and  C_24
REMARK    8  A    between atoms: C_24  and  O_25
REMARK    9  A    between atoms: O_25  and  C_26
REMARK                            x       y       z     vdW  Elec       q    Type
REMARK                         _______ _______ _______ _____ _____    ______ ____
ROOT
ATOM      1  C   UNL     1      -3.344  -4.502   1.251  0.00  0.00    +0.029 C 
ATOM      2  C   UNL     1      -2.970  -3.986  -0.140  0.00  0.00    +0.087 C 
ATOM      3  C   UNL     1      -4.036  -4.423  -1.147  0.00  0.00    +0.118 C 
ATOM      4  C   UNL     1      -3.913  -3.618  -2.414  0.00  0.00    +0.219 C 
ATOM      5  O   UNL     1      -3.427  -4.123  -3.404  0.00  0.00    -0.275 OA
ATOM      6  N   UNL     1      -4.340  -2.336  -2.456  0.00  0.00    -0.284 N 
ATOM      7  C   UNL     1      -4.822  -1.708  -1.302  0.00  0.00    +0.055 A 
ATOM      8  C   UNL     1      -6.020  -1.013  -1.316  0.00  0.00    +0.025 A 
ATOM      9  C   UNL     1      -6.459  -0.375  -0.153  0.00  0.00    +0.002 A 
ATOM     10  C   UNL     1      -5.702  -0.432   1.003  0.00  0.00    +0.002 A 
ATOM     11  C   UNL     1      -4.511  -1.134   1.022  0.00  0.00    +0.025 A 
ATOM     12  C   UNL     1      -4.073  -1.782  -0.121  0.00  0.00    +0.058 A 
ATOM     13  N   UNL     1      -2.885  -2.525  -0.111  0.00  0.00    -0.266 N 
ATOM     14  C   UNL     1      -1.688  -1.907  -0.068  0.00  0.00    +0.230 C 
ATOM     15  O   UNL     1      -0.668  -2.562  -0.054  0.00  0.00    -0.274 OA
ATOM     16  H   UNL     1      -4.311  -1.778  -3.404  0.00  0.00    +0.155 HD
ENDROOT
BRANCH  14  17
ATOM     17  C   UNL     1      -1.619  -0.402  -0.038  0.00  0.00    +0.173 C 
BRANCH  17  18
ATOM     18  S   UNL     1       0.114   0.120   0.017  0.00  0.00    -0.084 S 
BRANCH  18  19
ATOM     19  C   UNL     1      -0.095   1.870   0.044  0.00  0.00    +0.126 C 
ATOM     20  N   UNL     1      -1.294   2.384   0.017  0.00  0.00    -0.363 N 
ATOM     21  N   UNL     1       1.006   2.693   0.088  0.00  0.00    -0.339 N 
ATOM     22  H   UNL     1       0.876   3.785   0.105  0.00  0.00    +0.144 HD
ATOM     23  H   UNL     1       2.017   2.260   0.106  0.00  0.00    +0.144 HD
ATOM     24  H   UNL     1      -2.175   1.729   0.082  0.00  0.00    +0.162 HD
BRANCH  20  25
ATOM     25  C   UNL     1      -1.466   3.834  -0.099  0.00  0.00    +0.103 C 
ATOM     26  C   UNL     1      -2.394   4.145  -1.275  0.00  0.00    +0.032 C 
BRANCH  25  27
ATOM     27  C   UNL     1      -2.078   4.380   1.193  0.00  0.00    +0.183 C 
BRANCH  27  28
ATOM     28  O   UNL     1      -3.397   3.854   1.353  0.00  0.00    -0.381 OA
ATOM     29  C   UNL     1      -4.062   4.304   2.536  0.00  0.00    +0.194 C 
ENDBRANCH  27  28
ENDBRANCH  25  27
ENDBRANCH  20  25
ENDBRANCH  18  19
ENDBRANCH  17  18
ENDBRANCH  14  17
TORSDOF 6
