REMARK  Name = ZINC36227008
REMARK  4 active torsions:
REMARK  status: ('A' for Active; 'I' for Inactive)
REMARK    1  A    between atoms: C_5  and  N_8
REMARK    2  A    between atoms: C_6  and  N_7
REMARK    3  A    between atoms: C_12  and  C_15
REMARK    4  A    between atoms: C_15  and  O_16
REMARK                            x       y       z     vdW  Elec       q    Type
REMARK                         _______ _______ _______ _____ _____    ______ ____
ROOT
ATOM      1  C   UNL     1      -0.017   1.383   0.010  0.00  0.00    +0.030 A 
ATOM      2  C   UNL     1       1.168   2.087   0.002  0.00  0.00    -0.016 A 
ATOM      3  C   UNL     1       2.391   1.429  -0.013  0.00  0.00    +0.039 A 
ATOM      4  C   UNL     1       2.410   0.035  -0.022  0.00  0.00    +0.048 A 
ATOM      5  C   UNL     1       1.224  -0.677  -0.016  0.00  0.00    +0.052 A 
ATOM      6  C   UNL     1       0.002  -0.004   0.002  0.00  0.00    +0.046 A 
ATOM      7  N   UNL     1       3.438   2.355  -0.017  0.00  0.00    -0.285 N 
ATOM      8  C   UNL     1       2.994   3.623  -0.006  0.00  0.00    +0.222 C 
ATOM      9  O   UNL     1       3.677   4.625  -0.007  0.00  0.00    -0.275 OA
ATOM     10  C   UNL     1       1.482   3.566   0.008  0.00  0.00    +0.133 C 
ATOM     11  H   UNL     1       4.376   2.110  -0.027  0.00  0.00    +0.155 HD
ENDROOT
BRANCH   5  12
ATOM     12  N   UNL     1       1.250  -2.077  -0.025  0.00  0.00    -0.328 N 
ATOM     13  C   UNL     1       1.258  -2.817  -1.294  0.00  0.00    +0.105 C 
ATOM     14  C   UNL     1       2.444  -3.787  -1.292  0.00  0.00    +0.019 C 
ATOM     15  C   UNL     1       2.369  -4.674  -0.047  0.00  0.00    +0.009 C 
ATOM     16  C   UNL     1       2.454  -3.804   1.208  0.00  0.00    +0.032 C 
ATOM     17  C   UNL     1       1.275  -2.834   1.234  0.00  0.00    +0.111 C 
BRANCH  16  18
ATOM     18  C   UNL     1       2.413  -4.694   2.452  0.00  0.00    +0.160 C 
BRANCH  18  19
ATOM     19  O   UNL     1       3.579  -5.520   2.485  0.00  0.00    -0.395 OA
ATOM     20  H   UNL     1       3.620  -6.112   3.248  0.00  0.00    +0.209 HD
ENDBRANCH  18  19
ENDBRANCH  16  18
ENDBRANCH   5  12
BRANCH   6  21
ATOM     21  N   UNL     1      -1.200  -0.726   0.010  0.00  0.00    -0.357 N 
ATOM     22  H   UNL     1      -2.048  -0.255   0.021  0.00  0.00    +0.142 HD
ATOM     23  H   UNL     1      -1.184  -1.695   0.005  0.00  0.00    +0.142 HD
ENDBRANCH   6  21
TORSDOF 4
