REMARK  Name = ZINC12485344
REMARK  5 active torsions:
REMARK  status: ('A' for Active; 'I' for Inactive)
REMARK    1  A    between atoms: C_12  and  C_14
REMARK    2  A    between atoms: C_14  and  O_15
REMARK    3  A    between atoms: O_15  and  C_16
REMARK    4  A    between atoms: C_16  and  C_18
REMARK    5  A    between atoms: C_21  and  O_24
REMARK                            x       y       z     vdW  Elec       q    Type
REMARK                         _______ _______ _______ _____ _____    ______ ____
ROOT
ATOM      1  C   UNL     1      -1.130   1.653  -0.345  0.00  0.00    +0.002 A 
ATOM      2  C   UNL     1       0.108   1.042  -0.431  0.00  0.00    +0.002 A 
ATOM      3  C   UNL     1       1.264   1.790  -0.302  0.00  0.00    +0.025 A 
ATOM      4  C   UNL     1       1.177   3.152  -0.077  0.00  0.00    +0.059 A 
ATOM      5  C   UNL     1      -0.071   3.770   0.024  0.00  0.00    +0.055 A 
ATOM      6  C   UNL     1      -1.223   3.013  -0.113  0.00  0.00    +0.025 A 
ATOM      7  N   UNL     1      -0.143   5.146   0.272  0.00  0.00    -0.282 N 
ATOM      8  C   UNL     1       0.934   5.933   0.075  0.00  0.00    +0.241 C 
ATOM      9  O   UNL     1       0.853   7.127   0.276  0.00  0.00    -0.273 OA
ATOM     10  C   UNL     1       2.236   5.343  -0.392  0.00  0.00    +0.118 C 
ATOM     11  N   UNL     1       2.331   3.945   0.045  0.00  0.00    -0.252 N 
ATOM     12  C   UNL     1       3.478   3.442   0.542  0.00  0.00    +0.258 C 
ATOM     13  O   UNL     1       4.522   4.038   0.382  0.00  0.00    -0.271 OA
ATOM     14  C   UNL     1       2.329   5.416  -1.925  0.00  0.00    +0.036 C 
ATOM     15  C   UNL     1       3.152   6.702  -2.193  0.00  0.00    +0.003 C 
ATOM     16  C   UNL     1       4.197   6.685  -1.050  0.00  0.00    +0.003 C 
ATOM     17  C   UNL     1       3.417   6.148   0.169  0.00  0.00    +0.036 C 
ATOM     18  H   UNL     1      -0.973   5.536   0.587  0.00  0.00    +0.155 HD
ENDROOT
BRANCH  12  19
ATOM     19  C   UNL     1       3.464   2.138   1.298  0.00  0.00    +0.328 C 
BRANCH  19  20
ATOM     20  O   UNL     1       4.769   1.908   1.891  0.00  0.00    -0.452 OA
BRANCH  20  21
ATOM     21  C   UNL     1       4.926   0.776   2.606  0.00  0.00    +0.340 C 
ATOM     22  O   UNL     1       3.997   0.003   2.730  0.00  0.00    -0.245 OA
BRANCH  21  23
ATOM     23  C   UNL     1       6.224   0.477   3.238  0.00  0.00    +0.059 A 
ATOM     24  C   UNL     1       7.296   1.363   3.091  0.00  0.00    +0.018 A 
ATOM     25  C   UNL     1       8.505   1.082   3.688  0.00  0.00    +0.046 A 
ATOM     26  C   UNL     1       8.664  -0.086   4.425  0.00  0.00    +0.117 A 
ATOM     27  C   UNL     1       7.602  -0.972   4.568  0.00  0.00    +0.046 A 
ATOM     28  C   UNL     1       6.388  -0.696   3.980  0.00  0.00    +0.018 A 
BRANCH  26  29
ATOM     29  O   UNL     1       9.858  -0.361   5.006  0.00  0.00    -0.507 OA
ATOM     30  H   UNL     1      10.462  -0.867   4.445  0.00  0.00    +0.292 HD
ENDBRANCH  26  29
ENDBRANCH  21  23
ENDBRANCH  20  21
ENDBRANCH  19  20
ENDBRANCH  12  19
TORSDOF 5
