REMARK  Name = ZINC01133996
REMARK  6 active torsions:
REMARK  status: ('A' for Active; 'I' for Inactive)
REMARK    1  A    between atoms: N_9  and  C_12
REMARK    2  A    between atoms: C_12  and  C_13
REMARK    3  A    between atoms: N_15  and  C_16
REMARK    4  A    between atoms: C_17  and  C_25
REMARK    5  A    between atoms: N_27  and  C_28
REMARK    6  A    between atoms: C_28  and  C_29
REMARK                            x       y       z     vdW  Elec       q    Type
REMARK                         _______ _______ _______ _____ _____    ______ ____
ROOT
ATOM      1  C   UNL     1       4.866  -5.370  -3.050  0.00  0.00    +0.084 A 
ATOM      2  C   UNL     1       5.539  -6.495  -3.501  0.00  0.00    +0.069 A 
ATOM      3  C   UNL     1       5.640  -6.675  -4.939  0.00  0.00    -0.023 A 
ATOM      4  C   UNL     1       5.051  -5.698  -5.661  0.00  0.00    -0.004 A 
ATOM      5  S   UNL     1       4.382  -4.590  -4.456  0.00  0.00    -0.077 S 
ATOM      6  C   UNL     1       4.985  -5.597  -7.154  0.00  0.00    +0.043 C 
ATOM      7  C   UNL     1       6.013  -6.572  -7.748  0.00  0.00    +0.005 C 
ATOM      8  C   UNL     1       5.857  -7.934  -7.065  0.00  0.00    +0.005 C 
ATOM      9  C   UNL     1       6.338  -7.846  -5.614  0.00  0.00    +0.037 C 
ENDROOT
BRANCH   1  12
ATOM     10  C   UNL     1       3.955  -3.850  -1.479  0.00  0.00    +0.235 C 
ATOM     11  O   UNL     1       3.537  -3.171  -2.393  0.00  0.00    -0.274 OA
ATOM     12  N   UNL     1       4.640  -4.982  -1.738  0.00  0.00    -0.278 N 
ATOM     13  H   UNL     1       4.974  -5.524  -1.007  0.00  0.00    +0.155 HD
BRANCH  10  14
ATOM     14  C   UNL     1       3.709  -3.428  -0.053  0.00  0.00    +0.213 C 
BRANCH  14  23
ATOM     15  C   UNL     1      -0.017   1.382   0.010  0.00  0.00    +0.001 A 
ATOM     16  C   UNL     1       1.165   2.099   0.002  0.00  0.00    +0.001 A 
ATOM     17  C   UNL     1       2.385   1.442  -0.013  0.00  0.00    +0.014 A 
ATOM     18  C   UNL     1       2.420   0.056  -0.021  0.00  0.00    +0.049 A 
ATOM     19  C   UNL     1       1.215  -0.675  -0.013  0.00  0.00    +0.049 A 
ATOM     20  C   UNL     1       0.002  -0.004   0.002  0.00  0.00    +0.014 A 
ATOM     21  C   UNL     1       1.606  -2.100  -0.025  0.00  0.00    +0.254 C 
ATOM     22  O   UNL     1       0.843  -3.045  -0.023  0.00  0.00    -0.270 OA
ATOM     23  N   UNL     1       2.949  -2.175  -0.039  0.00  0.00    -0.225 N 
ATOM     24  C   UNL     1       3.503  -0.949  -0.038  0.00  0.00    +0.254 C 
ATOM     25  O   UNL     1       4.693  -0.709  -0.049  0.00  0.00    -0.270 OA
ENDBRANCH  14  23
ENDBRANCH  10  14
ENDBRANCH   1  12
BRANCH   2  26
ATOM     26  C   UNL     1       6.124  -7.461  -2.567  0.00  0.00    +0.247 C 
ATOM     27  O   UNL     1       5.463  -8.405  -2.175  0.00  0.00    -0.270 OA
ATOM     28  N   UNL     1       7.393  -7.305  -2.143  0.00  0.00    -0.304 N 
ATOM     29  H   UNL     1       7.920  -6.553  -2.455  0.00  0.00    +0.149 HD
BRANCH  28  30
ATOM     30  C   UNL     1       7.978  -8.271  -1.209  0.00  0.00    +0.179 C 
BRANCH  30  31
ATOM     31  C   UNL     1       9.396  -7.871  -0.895  0.00  0.00    +0.122 A 
ATOM     32  C   UNL     1       9.782  -7.068   0.113  0.00  0.00    +0.046 A 
ATOM     33  C   UNL     1      11.190  -6.963   0.037  0.00  0.00    +0.041 A 
ATOM     34  C   UNL     1      11.580  -7.707  -1.013  0.00  0.00    +0.195 A 
ATOM     35  O   UNL     1      10.490  -8.259  -1.571  0.00  0.00    -0.466 OA
ENDBRANCH  30  31
ENDBRANCH  28  30
ENDBRANCH   2  26
TORSDOF 6
