REMARK  Name = ZINC57597067
REMARK  3 active torsions:
REMARK  status: ('A' for Active; 'I' for Inactive)
REMARK    1  A    between atoms: C_10  and  N_14
REMARK    2  A    between atoms: N_17  and  C_18
REMARK    3  A    between atoms: C_18  and  C_19
REMARK                            x       y       z     vdW  Elec       q    Type
REMARK                         _______ _______ _______ _____ _____    ______ ____
ROOT
ATOM      1  N   UNL     1       3.625  -5.745  -0.067  0.00  0.00    -0.269 N 
ATOM      2  C   UNL     1       2.933  -6.897   0.035  0.00  0.00    +0.304 C 
ATOM      3  O   UNL     1       1.718  -6.877   0.047  0.00  0.00    -0.252 OA
ATOM      4  N   UNL     1       3.589  -8.071   0.123  0.00  0.00    -0.293 N 
ATOM      5  H   UNL     1       4.592  -5.764  -0.144  0.00  0.00    +0.156 HD
ATOM      6  H   UNL     1       4.559  -8.086   0.113  0.00  0.00    +0.151 HD
ENDROOT
BRANCH   1  16
ATOM      7  C   UNL     1      -0.429   1.148  -0.167  0.00  0.00    +0.001 A 
ATOM      8  C   UNL     1      -1.503   0.614  -0.860  0.00  0.00    +0.004 A 
ATOM      9  C   UNL     1      -1.506  -0.713  -1.237  0.00  0.00    +0.047 A 
ATOM     10  C   UNL     1      -0.425  -1.529  -0.922  0.00  0.00    +0.136 A 
ATOM     11  C   UNL     1       0.660  -0.985  -0.220  0.00  0.00    +0.028 A 
ATOM     12  C   UNL     1       0.652   0.354   0.154  0.00  0.00    +0.012 A 
ATOM     13  C   UNL     1       1.620  -2.092  -0.049  0.00  0.00    +0.028 A 
ATOM     14  C   UNL     1       2.870  -2.202   0.552  0.00  0.00    +0.014 A 
ATOM     15  C   UNL     1       3.531  -3.411   0.545  0.00  0.00    +0.024 A 
ATOM     16  C   UNL     1       2.949  -4.520  -0.063  0.00  0.00    +0.038 A 
ATOM     17  C   UNL     1       1.704  -4.419  -0.663  0.00  0.00    +0.070 A 
ATOM     18  C   UNL     1       1.028  -3.206  -0.662  0.00  0.00    +0.138 A 
ATOM     19  O   UNL     1      -0.171  -2.834  -1.162  0.00  0.00    -0.455 OA
ENDBRANCH   1  16
BRANCH   4  20
ATOM     20  C   UNL     1       2.837  -9.323   0.234  0.00  0.00    +0.162 C 
BRANCH  20  21
ATOM     21  C   UNL     1       3.799 -10.481   0.317  0.00  0.00    +0.078 A 
ATOM     22  C   UNL     1       4.235 -11.060   1.448  0.00  0.00    +0.118 A 
ATOM     23  N   UNL     1       5.105 -12.086   1.090  0.00  0.00    -0.300 N 
ATOM     24  C   UNL     1       5.878 -13.043   1.712  0.00  0.00    +0.100 A 
ATOM     25  C   UNL     1       6.615 -13.893   0.999  0.00  0.00    +0.067 A 
ATOM     26  S   UNL     1       6.256 -13.380  -0.674  0.00  0.00    -0.058 S 
ATOM     27  C   UNL     1       5.136 -12.057  -0.279  0.00  0.00    +0.178 A 
ATOM     28  N   UNL     1       4.360 -11.112  -0.725  0.00  0.00    -0.225 NA
ENDBRANCH  20  21
ENDBRANCH   4  20
TORSDOF 3
