REMARK  Name = ZINC11789611
REMARK  10 active torsions:
REMARK  status: ('A' for Active; 'I' for Inactive)
REMARK    1  A    between atoms: C_1  and  C_2
REMARK    2  A    between atoms: C_2  and  C_3
REMARK    3  A    between atoms: C_3  and  C_4
REMARK    4  A    between atoms: C_4  and  C_5
REMARK    5  A    between atoms: C_9  and  C_11
REMARK    6  A    between atoms: C_11  and  N_74
REMARK    7  A    between atoms: C_14  and  C_17
REMARK    8  A    between atoms: C_17  and  C_29
REMARK    9  A    between atoms: N_20  and  C_24
REMARK   10  A    between atoms: C_29  and  C_30
REMARK                            x       y       z     vdW  Elec       q    Type
REMARK                         _______ _______ _______ _____ _____    ______ ____
ROOT
ATOM      1  C   UNL     1       3.877   8.969  -5.282  0.00  0.00    +0.119 C 
ATOM      2  C   UNL     1       3.242   9.885  -6.309  0.00  0.00    +0.247 C 
ATOM      3  O   UNL     1       2.943  11.051  -6.165  0.00  0.00    -0.273 OA
ATOM      4  N   UNL     1       3.078   9.134  -7.416  0.00  0.00    -0.221 N 
ATOM      5  C   UNL     1       3.516   7.883  -7.233  0.00  0.00    +0.310 C 
ATOM      6  O   UNL     1       3.474   7.021  -8.088  0.00  0.00    -0.252 OA
ATOM      7  N   UNL     1       4.010   7.688  -5.997  0.00  0.00    -0.284 N 
ATOM      8  H   UNL     1       4.380   6.863  -5.644  0.00  0.00    +0.151 HD
ENDROOT
BRANCH   1  11
ATOM      9  C   UNL     1       2.622   7.586  -1.917  0.00  0.00    -0.078 C 
ATOM     10  C   UNL     1       3.567   7.781  -3.104  0.00  0.00    -0.013 C 
ATOM     11  C   UNL     1       2.967   8.814  -4.063  0.00  0.00    +0.018 C 
ATOM     12  C   UNL     1       1.584   8.337  -4.514  0.00  0.00    -0.013 C 
ATOM     13  C   UNL     1       0.697   8.125  -3.285  0.00  0.00    -0.078 C 
ATOM     14  N   UNL     1       1.317   7.103  -2.416  0.00  0.00    +0.383 N 
ATOM     15  H   UNL     1       1.466   6.247  -2.962  0.00  0.00    -0.081 HD
BRANCH  14  16
ATOM     16  C   UNL     1       0.424   6.798  -1.279  0.00  0.00    -0.021 C 
BRANCH  16  21
ATOM     17  C   UNL     1       1.396   3.562   0.008  0.00  0.00    +0.107 A 
ATOM     18  N   UNL     1       2.023   4.353   0.905  0.00  0.00    -0.348 N 
ATOM     19  H   UNL     1       2.580   4.048   1.678  0.00  0.00    +0.166 HD
ATOM     20  C   UNL     1       1.755   5.650   0.559  0.00  0.00    +0.105 A 
ATOM     21  C   UNL     1       0.973   5.607  -0.536  0.00  0.00    +0.043 A 
ATOM     22  N   UNL     1       0.774   4.319  -0.854  0.00  0.00    -0.239 NA
BRANCH  17  23
ATOM     23  C   UNL     1       1.417   2.055  -0.000  0.00  0.00    +0.074 C 
BRANCH  23  24
ATOM     24  C   UNL     1      -0.019   1.526   0.010  0.00  0.00    +0.007 C 
BRANCH  24  26
ATOM     25  C   UNL     1      -1.433  -0.534   0.013  0.00  0.00    +0.004 C 
ATOM     26  C   UNL     1       0.002  -0.004   0.002  0.00  0.00    -0.003 C 
ENDBRANCH  24  26
ENDBRANCH  23  24
ENDBRANCH  17  23
ENDBRANCH  16  21
ENDBRANCH  14  16
ENDBRANCH   1  11
BRANCH   4  27
ATOM     27  C   UNL     1       2.490   9.626  -8.665  0.00  0.00    +0.086 C 
ATOM     28  C   UNL     1       1.260   8.774  -9.041  0.00  0.00    +0.023 C 
ATOM     29  C   UNL     1       1.328   8.672 -10.586  0.00  0.00    +0.002 C 
ATOM     30  C   UNL     1       2.847   8.537 -10.854  0.00  0.00    +0.002 C 
ATOM     31  C   UNL     1       3.499   9.475  -9.817  0.00  0.00    +0.023 C 
ENDBRANCH   4  27
BRANCH   1  32
ATOM     32  C   UNL     1       5.251   9.496  -4.863  0.00  0.00    +0.070 C 
BRANCH  32  33
ATOM     33  C   UNL     1       6.127   9.640  -6.081  0.00  0.00    -0.045 A 
ATOM     34  C   UNL     1       6.920   8.584  -6.490  0.00  0.00    +0.006 A 
ATOM     35  C   UNL     1       7.719   8.712  -7.610  0.00  0.00    +0.038 A 
ATOM     36  C   UNL     1       7.735   9.904  -8.315  0.00  0.00    +0.123 A 
ATOM     37  C   UNL     1       6.946  10.963  -7.901  0.00  0.00    +0.038 A 
ATOM     38  C   UNL     1       6.142  10.830  -6.785  0.00  0.00    +0.006 A 
ATOM     39  F   UNL     1       8.521  10.033  -9.406  0.00  0.00    -0.205 F 
ENDBRANCH  32  33
ENDBRANCH   1  32
TORSDOF 9
