REMARK  Name = ZINC06217380
REMARK  7 active torsions:
REMARK  status: ('A' for Active; 'I' for Inactive)
REMARK    1  A    between atoms: C_1  and  C_2
REMARK    2  A    between atoms: C_6  and  O_8
REMARK    3  A    between atoms: O_8  and  C_9
REMARK    4  A    between atoms: C_9  and  C_11
REMARK    5  A    between atoms: C_9  and  C_12
REMARK    6  A    between atoms: N_14  and  N_15
REMARK    7  A    between atoms: C_16  and  C_17
REMARK                            x       y       z     vdW  Elec       q    Type
REMARK                         _______ _______ _______ _____ _____    ______ ____
ROOT
ATOM      1  C   UNL     1       1.083   7.244  -0.467  0.00  0.00    +0.273 C 
ATOM      2  O   UNL     1       0.009   7.653  -0.855  0.00  0.00    -0.270 OA
ATOM      3  N   UNL     1       2.179   8.021  -0.574  0.00  0.00    -0.204 N 
ATOM      4  H   UNL     1       3.038   7.693  -0.264  0.00  0.00    +0.177 HD
ENDROOT
BRANCH   1   5
ATOM      5  C   UNL     1       1.192   5.866   0.134  0.00  0.00    +0.257 C 
ATOM      6  C   UNL     1       1.588   5.982   1.607  0.00  0.00    +0.062 C 
BRANCH   5   7
ATOM      7  O   UNL     1      -0.069   5.201   0.031  0.00  0.00    -0.480 OA
BRANCH   7  13
ATOM      8  C   UNL     1      -2.475   0.980  -0.432  0.00  0.00    +0.044 C 
ATOM      9  C   UNL     1      -1.202   1.751  -0.198  0.00  0.00    -0.047 A 
ATOM     10  C   UNL     1      -0.013   1.076   0.010  0.00  0.00    +0.003 A 
ATOM     11  C   UNL     1       1.158   1.781   0.220  0.00  0.00    +0.004 A 
ATOM     12  C   UNL     1       1.142   3.162   0.227  0.00  0.00    +0.046 A 
ATOM     13  C   UNL     1      -0.050   3.842   0.024  0.00  0.00    +0.122 A 
ATOM     14  C   UNL     1      -1.224   3.132  -0.186  0.00  0.00    +0.049 A 
ENDBRANCH   7  13
ENDBRANCH   5   7
ENDBRANCH   1   5
BRANCH   3  15
ATOM     15  N   UNL     1       2.079   9.301  -1.133  0.00  0.00    -0.185 NA
ATOM     16  C   UNL     1       3.137  10.051  -1.236  0.00  0.00    +0.176 C 
BRANCH  16  17
ATOM     17  C   UNL     1       3.031  11.391  -1.821  0.00  0.00    +0.149 A 
ATOM     18  C   UNL     1       4.056  12.278  -1.982  0.00  0.00    +0.052 A 
ATOM     19  C   UNL     1       3.506  13.427  -2.581  0.00  0.00    +0.057 A 
ATOM     20  C   UNL     1       2.187  13.194  -2.748  0.00  0.00    +0.171 A 
ATOM     21  O   UNL     1       1.904  11.965  -2.288  0.00  0.00    -0.447 OA
ATOM     22 BR   UNL     1       0.943  14.401  -3.505  0.00  0.00    -0.008 Br
ENDBRANCH  16  17
ENDBRANCH   3  15
TORSDOF 5
