REMARK  Name = ZINC36749556
REMARK  5 active torsions:
REMARK  status: ('A' for Active; 'I' for Inactive)
REMARK    1  A    between atoms: C_1  and  C_2
REMARK    2  A    between atoms: C_3  and  N_17
REMARK    3  A    between atoms: C_4  and  O_8
REMARK    4  A    between atoms: N_5  and  C_7
REMARK    5  A    between atoms: O_8  and  C_9
REMARK                            x       y       z     vdW  Elec       q    Type
REMARK                         _______ _______ _______ _____ _____    ______ ____
ROOT
ATOM      1  C   UNL     1      -0.042   1.497   0.038  0.00  0.00    +0.069 C 
ATOM      2  C   UNL     1      -0.009  -0.009   0.018  0.00  0.00    +0.084 A 
ATOM      3  C   UNL     1      -0.003  -0.813  -1.129  0.00  0.00    +0.110 A 
ATOM      4  C   UNL     1       0.031  -2.114  -0.726  0.00  0.00    +0.240 A 
ATOM      5  N   UNL     1       0.047  -2.120   0.634  0.00  0.00    -0.234 N 
ATOM      6  N   UNL     1       0.026  -0.789   1.070  0.00  0.00    -0.172 NA
ATOM      7  C   UNL     1       0.084  -3.308   1.492  0.00  0.00    +0.176 C 
ENDROOT
BRANCH   3   8
ATOM      8  N   UNL     1      -0.029  -0.356  -2.465  0.00  0.00    -0.352 N 
ATOM      9  H   UNL     1      -0.053   0.595  -2.652  0.00  0.00    +0.143 HD
ATOM     10  H   UNL     1      -0.023  -0.994  -3.196  0.00  0.00    +0.143 HD
ENDBRANCH   3   8
BRANCH   4  11
ATOM     11  O   UNL     1       0.046  -3.206  -1.535  0.00  0.00    -0.435 OA
BRANCH  11  12
ATOM     12  C   UNL     1       1.253  -3.700  -1.917  0.00  0.00    +0.150 A 
ATOM     13  C   UNL     1       2.421  -3.158  -1.400  0.00  0.00    +0.048 A 
ATOM     14  C   UNL     1       3.647  -3.661  -1.790  0.00  0.00    +0.005 A 
ATOM     15  C   UNL     1       3.712  -4.704  -2.696  0.00  0.00    +0.022 A 
ATOM     16  C   UNL     1       2.550  -5.247  -3.214  0.00  0.00    +0.063 A 
ATOM     17  C   UNL     1       1.319  -4.751  -2.821  0.00  0.00    +0.101 A 
ATOM     18 CL   UNL     1      -0.140  -5.437  -3.465  0.00  0.00    -0.078 Cl
ATOM     19 CL   UNL     1       2.635  -6.556  -4.351  0.00  0.00    -0.082 Cl
ENDBRANCH  11  12
ENDBRANCH   4  11
TORSDOF 3
