REMARK  Name = ZINC08728115
REMARK  9 active torsions:
REMARK  status: ('A' for Active; 'I' for Inactive)
REMARK    1  A    between atoms: C_1  and  C_2
REMARK    2  A    between atoms: C_2  and  C_3
REMARK    3  A    between atoms: C_2  and  C_4
REMARK    4  A    between atoms: C_4  and  N_5
REMARK    5  A    between atoms: N_5  and  C_6
REMARK    6  A    between atoms: C_14  and  C_16
REMARK    7  A    between atoms: C_16  and  N_17
REMARK    8  A    between atoms: C_20  and  C_24
REMARK    9  A    between atoms: C_20  and  C_25
REMARK                            x       y       z     vdW  Elec       q    Type
REMARK                         _______ _______ _______ _____ _____    ______ ____
ROOT
ATOM      1  N   UNL     1      -0.797  -1.936   3.402  0.00  0.00    -0.215 N 
ATOM      2  C   UNL     1      -0.034  -3.020   3.159  0.00  0.00    +0.251 C 
ATOM      3  O   UNL     1       0.692  -3.206   2.206  0.00  0.00    -0.272 OA
ATOM      4  C   UNL     1      -0.272  -3.958   4.326  0.00  0.00    +0.135 C 
ATOM      5  N   UNL     1      -1.237  -3.228   5.166  0.00  0.00    -0.281 N 
ATOM      6  C   UNL     1      -1.482  -2.061   4.545  0.00  0.00    +0.310 C 
ATOM      7  O   UNL     1      -2.241  -1.214   4.973  0.00  0.00    -0.252 OA
ATOM      8  C   UNL     1       1.028  -4.210   5.093  0.00  0.00    +0.047 C 
ATOM      9  H   UNL     1      -1.621  -3.531   6.004  0.00  0.00    +0.152 HD
ENDROOT
BRANCH   4  10
ATOM     10  C   UNL     1      -0.863  -5.259   3.847  0.00  0.00    -0.015 A 
ATOM     11  C   UNL     1      -0.496  -5.774   2.617  0.00  0.00    +0.007 A 
ATOM     12  C   UNL     1      -1.034  -6.969   2.180  0.00  0.00    +0.020 A 
ATOM     13  C   UNL     1      -1.948  -7.646   2.968  0.00  0.00    +0.041 A 
ATOM     14  C   UNL     1      -2.319  -7.128   4.196  0.00  0.00    +0.020 A 
ATOM     15  C   UNL     1      -1.776  -5.934   4.635  0.00  0.00    +0.007 A 
ATOM     16 CL   UNL     1      -2.629  -9.145   2.416  0.00  0.00    -0.084 Cl
ENDBRANCH   4  10
BRANCH   1  17
ATOM     17  C   UNL     1      -0.871  -0.768   2.521  0.00  0.00    +0.213 C 
BRANCH  17  19
ATOM     18  N   UNL     1       0.295   1.397   2.254  0.00  0.00    -0.295 N 
ATOM     19  C   UNL     1       0.177   0.236   2.928  0.00  0.00    +0.234 C 
ATOM     20  O   UNL     1       0.913  -0.001   3.862  0.00  0.00    -0.274 OA
BRANCH  18  21
ATOM     21  C   UNL     1       1.314   2.373   2.650  0.00  0.00    +0.098 C 
ATOM     22  C   UNL     1       2.696   1.699   2.676  0.00  0.00    +0.046 C 
ATOM     23  C   UNL     1       3.717   2.616   3.392  0.00  0.00    +0.168 C 
ATOM     24  S   UNL     1       2.657   3.570   4.554  0.00  0.00    -0.029 S 
ATOM     25  O   UNL     1       2.716   4.947   4.209  0.00  0.00    -0.174 OA
ATOM     26  O   UNL     1       2.953   3.169   5.885  0.00  0.00    -0.174 OA
ATOM     27  C   UNL     1       1.007   2.903   4.080  0.00  0.00    +0.188 C 
ENDBRANCH  18  21
BRANCH  18  28
ATOM     28  C   UNL     1      -0.594   1.683   1.126  0.00  0.00    +0.111 C 
BRANCH  28  30
ATOM     29  C   UNL     1       1.281   1.726  -0.524  0.00  0.00    +0.009 C 
ATOM     30  C   UNL     1      -0.032   1.040  -0.143  0.00  0.00    +0.000 C 
ATOM     31  C   UNL     1      -1.039   1.197  -1.284  0.00  0.00    +0.009 C 
ENDBRANCH  28  30
ENDBRANCH  18  28
ENDBRANCH  17  19
ENDBRANCH   1  17
TORSDOF 6
