REMARK  Name = ZINC41394155
REMARK  5 active torsions:
REMARK  status: ('A' for Active; 'I' for Inactive)
REMARK    1  A    between atoms: C_1  and  C_2
REMARK    2  A    between atoms: C_2  and  N_3
REMARK    3  A    between atoms: N_17  and  C_18
REMARK    4  A    between atoms: C_18  and  C_19
REMARK    5  A    between atoms: C_18  and  C_20
REMARK                            x       y       z     vdW  Elec       q    Type
REMARK                         _______ _______ _______ _____ _____    ______ ____
ROOT
ATOM      1  N   UNL     1      -1.403  -0.515  -0.224  0.00  0.00    -0.315 N 
ATOM      2  C   UNL     1      -1.620  -1.866  -0.111  0.00  0.00    +0.200 A 
ATOM      3  N   UNL     1      -0.606  -2.699  -0.223  0.00  0.00    -0.208 NA
ATOM      4  C   UNL     1      -0.787  -4.010  -0.119  0.00  0.00    +0.117 A 
ATOM      5  C   UNL     1      -2.054  -4.573   0.114  0.00  0.00    +0.076 A 
ATOM      6  C   UNL     1      -2.097  -6.033   0.204  0.00  0.00    -0.023 A 
ATOM      7  C   UNL     1      -0.929  -6.691   0.057  0.00  0.00    -0.004 A 
ATOM      8  S   UNL     1       0.282  -5.424  -0.206  0.00  0.00    -0.073 S 
ATOM      9  C   UNL     1      -0.709  -8.172   0.107  0.00  0.00    +0.043 C 
ATOM     10  C   UNL     1      -1.955  -8.827   0.720  0.00  0.00    +0.005 C 
ATOM     11  C   UNL     1      -3.199  -8.254   0.035  0.00  0.00    +0.005 C 
ATOM     12  C   UNL     1      -3.396  -6.796   0.452  0.00  0.00    +0.037 C 
ATOM     13  C   UNL     1      -3.136  -3.644   0.232  0.00  0.00    +0.264 A 
ATOM     14  O   UNL     1      -4.271  -4.040   0.434  0.00  0.00    -0.267 OA
ATOM     15  N   UNL     1      -2.882  -2.327   0.120  0.00  0.00    -0.278 N 
ATOM     16  H   UNL     1      -2.154   0.099  -0.220  0.00  0.00    +0.149 HD
ENDROOT
BRANCH  15  17
ATOM     17  C   UNL     1      -3.985  -1.370   0.245  0.00  0.00    +0.087 C 
ATOM     18  C   UNL     1      -5.020  -1.640  -0.848  0.00  0.00    +0.031 C 
ATOM     19  C   UNL     1      -4.641  -1.525   1.619  0.00  0.00    +0.031 C 
ENDBRANCH  15  17
BRANCH   1  21
ATOM     20  C   UNL     1      -0.074   1.524  -0.457  0.00  0.00    +0.024 C 
ATOM     21  C   UNL     1      -0.037  -0.001  -0.349  0.00  0.00    +0.101 C 
ENDBRANCH   1  21
TORSDOF 2
