REMARK  Name = ZINC37665342
REMARK  8 active torsions:
REMARK  status: ('A' for Active; 'I' for Inactive)
REMARK    1  A    between atoms: C_1  and  N_2
REMARK    2  A    between atoms: N_2  and  C_3
REMARK    3  A    between atoms: N_2  and  S_8
REMARK    4  A    between atoms: C_3  and  C_4
REMARK    5  A    between atoms: S_8  and  C_11
REMARK    6  A    between atoms: C_14  and  N_19
REMARK    7  A    between atoms: C_16  and  N_17
REMARK    8  A    between atoms: N_17  and  N_18
REMARK                            x       y       z     vdW  Elec       q    Type
REMARK                         _______ _______ _______ _____ _____    ______ ____
ROOT
ATOM      1  C   UNL     1       1.682  -1.059  -1.905  0.00  0.00    +0.128 A 
ATOM      2  C   UNL     1       2.208  -2.334  -1.976  0.00  0.00    +0.032 A 
ATOM      3  C   UNL     1       3.528  -2.520  -2.343  0.00  0.00    +0.035 A 
ATOM      4  C   UNL     1       4.326  -1.430  -2.642  0.00  0.00    +0.128 A 
ATOM      5  C   UNL     1       3.806  -0.153  -2.573  0.00  0.00    +0.058 A 
ATOM      6  C   UNL     1       2.478   0.037  -2.209  0.00  0.00    +0.070 A 
ENDROOT
BRANCH   1   7
ATOM      7  S   UNL     1      -0.000  -0.824  -1.437  0.00  0.00    +0.063 S 
ATOM      8  O   UNL     1      -0.531  -2.115  -1.167  0.00  0.00    -0.153 OA
ATOM      9  O   UNL     1      -0.572   0.049  -2.401  0.00  0.00    -0.153 OA
BRANCH   7  11
ATOM     10  C   UNL     1      -0.018   1.461   0.010  0.00  0.00    +0.132 C 
ATOM     11  N   UNL     1       0.002  -0.004   0.002  0.00  0.00    -0.171 NA
BRANCH  11  12
ATOM     12  C   UNL     1       0.024  -0.743   1.267  0.00  0.00    +0.222 C 
BRANCH  12  13
ATOM     13  C   UNL     1      -1.406  -0.912   1.784  0.00  0.00    +0.404 C 
ATOM     14  F   UNL     1      -2.162  -1.619   0.843  0.00  0.00    -0.169 F 
ATOM     15  F   UNL     1      -1.385  -1.618   2.992  0.00  0.00    -0.169 F 
ATOM     16  F   UNL     1      -1.979   0.348   1.990  0.00  0.00    -0.169 F 
ENDBRANCH  12  13
ENDBRANCH  11  12
ENDBRANCH   7  11
ENDBRANCH   1   7
BRANCH   4  17
ATOM     17  N   UNL     1       5.738  -1.633  -3.034  0.00  0.00    +0.056 N 
ATOM     18  O   UNL     1       6.194  -2.751  -3.094  0.00  0.00    -0.126 OA
ATOM     19  O   UNL     1       6.436  -0.681  -3.295  0.00  0.00    -0.126 OA
ENDBRANCH   4  17
BRANCH   6  20
ATOM     20  N   UNL     1       1.948   1.327  -2.144  0.00  0.00    -0.281 N 
ATOM     21  H   UNL     1       1.022   1.459  -1.887  0.00  0.00    +0.166 HD
BRANCH  20  22
ATOM     22  N   UNL     1       2.733   2.404  -2.444  0.00  0.00    -0.256 NA
ATOM     23  H   UNL     1       2.215   3.265  -2.353  0.00  0.00    +0.140 HD
ATOM     24  H   UNL     1       3.562   2.419  -1.869  0.00  0.00    +0.140 HD
ENDBRANCH  20  22
ENDBRANCH   6  20
TORSDOF 7
