REMARK  Name = ZINC31157853
REMARK  8 active torsions:
REMARK  status: ('A' for Active; 'I' for Inactive)
REMARK    1  A    between atoms: C_1  and  C_2
REMARK    2  A    between atoms: C_2  and  C_3
REMARK    3  A    between atoms: C_2  and  C_4
REMARK    4  A    between atoms: C_8  and  O_11
REMARK    5  A    between atoms: C_9  and  O_10
REMARK    6  A    between atoms: C_16  and  C_27
REMARK    7  A    between atoms: C_16  and  C_28
REMARK    8  A    between atoms: C_21  and  O_23
REMARK                            x       y       z     vdW  Elec       q    Type
REMARK                         _______ _______ _______ _____ _____    ______ ____
ROOT
ATOM      1  C   UNL     1      -1.440  -0.001   1.253  0.00  0.00    +0.001 A 
ATOM      2  C   UNL     1      -2.449   0.118   2.188  0.00  0.00    +0.014 A 
ATOM      3  C   UNL     1      -3.701  -0.424   1.943  0.00  0.00    -0.007 A 
ATOM      4  C   UNL     1      -3.934  -1.083   0.750  0.00  0.00    +0.021 A 
ATOM      5  C   UNL     1      -2.928  -1.211  -0.191  0.00  0.00    +0.163 A 
ATOM      6  C   UNL     1      -1.673  -0.662   0.058  0.00  0.00    +0.162 A 
ATOM      7  C   UNL     1      -5.303  -1.655   0.476  0.00  0.00    +0.103 C 
ATOM      8  C   UNL     1      -5.296  -2.689  -0.613  0.00  0.00    +0.023 C 
ATOM      9  C   UNL     1      -6.683  -3.311  -0.795  0.00  0.00    +0.002 C 
ATOM     10  C   UNL     1      -7.116  -3.938   0.534  0.00  0.00    +0.007 C 
ATOM     11  C   UNL     1      -7.224  -2.840   1.591  0.00  0.00    -0.027 C 
ATOM     12  C   UNL     1      -5.861  -2.184   1.819  0.00  0.00    +0.060 C 
ATOM     13  C   UNL     1      -6.123  -0.793   2.476  0.00  0.00    +0.214 C 
ATOM     14  C   UNL     1      -4.775  -0.283   2.990  0.00  0.00    +0.186 C 
ATOM     15  O   UNL     1      -6.579   0.033   1.394  0.00  0.00    -0.457 OA
ATOM     16  C   UNL     1      -6.226  -0.484   0.198  0.00  0.00    +0.319 C 
ATOM     17  O   UNL     1      -6.579  -0.089  -0.888  0.00  0.00    -0.250 OA
ATOM     18  C   UNL     1      -7.719  -3.448   2.904  0.00  0.00    +0.011 C 
ATOM     19  C   UNL     1      -8.222  -1.781   1.120  0.00  0.00    +0.011 C 
ENDROOT
BRANCH   1  21
ATOM     20  C   UNL     1      -0.223   2.103   1.742  0.00  0.00    +0.012 C 
ATOM     21  C   UNL     1      -0.084   0.595   1.530  0.00  0.00    +0.017 C 
ATOM     22  C   UNL     1       0.506  -0.045   2.788  0.00  0.00    +0.012 C 
ENDBRANCH   1  21
BRANCH   6  23
ATOM     23  O   UNL     1      -0.680  -0.778  -0.865  0.00  0.00    -0.503 OA
ATOM     24  H   UNL     1      -0.138  -1.572  -0.760  0.00  0.00    +0.292 HD
ENDBRANCH   6  23
BRANCH   5  25
ATOM     25  O   UNL     1      -3.166  -1.867  -1.358  0.00  0.00    -0.503 OA
ATOM     26  H   UNL     1      -3.489  -1.298  -2.071  0.00  0.00    +0.292 HD
ENDBRANCH   5  25
BRANCH  14  27
ATOM     27  O   UNL     1      -4.401  -1.033   4.147  0.00  0.00    -0.383 OA
ATOM     28  H   UNL     1      -3.568  -0.749   4.548  0.00  0.00    +0.210 HD
ENDBRANCH  14  27
TORSDOF 4
