REMARK  Name = ZINC28535801
REMARK  5 active torsions:
REMARK  status: ('A' for Active; 'I' for Inactive)
REMARK    1  A    between atoms: C_4  and  N_7
REMARK    2  A    between atoms: N_11  and  N_24
REMARK    3  A    between atoms: C_12  and  S_15
REMARK    4  A    between atoms: S_15  and  C_16
REMARK    5  A    between atoms: C_16  and  C_17
REMARK                            x       y       z     vdW  Elec       q    Type
REMARK                         _______ _______ _______ _____ _____    ______ ____
ROOT
ATOM      1  N   UNL     1      -0.069   5.239   0.029  0.00  0.00    -0.294 N 
ATOM      2  C   UNL     1      -1.284   5.921  -0.061  0.00  0.00    +0.212 A 
ATOM      3  C   UNL     1      -1.306   7.338  -0.156  0.00  0.00    +0.312 A 
ATOM      4  O   UNL     1      -0.272   7.984  -0.159  0.00  0.00    -0.262 OA
ATOM      5  N   UNL     1      -2.510   7.950  -0.247  0.00  0.00    -0.205 N 
ATOM      6  C   UNL     1      -3.636   7.178  -0.233  0.00  0.00    +0.210 A 
ATOM      7  N   UNL     1      -3.550   5.866  -0.138  0.00  0.00    -0.121 NA
ATOM      8  N   UNL     1      -2.421   5.259  -0.055  0.00  0.00    -0.126 NA
ATOM      9  H   UNL     1       0.872   5.801   0.114  0.00  0.00    +0.154 HD
ENDROOT
BRANCH   1  13
ATOM     10  C   UNL     1      -0.010   1.076  -0.024  0.00  0.00    +0.000 A 
ATOM     11  C   UNL     1       0.928   1.770   0.719  0.00  0.00    +0.002 A 
ATOM     12  C   UNL     1       0.915   3.151   0.734  0.00  0.00    +0.023 A 
ATOM     13  C   UNL     1      -0.049   3.843   0.011  0.00  0.00    +0.033 A 
ATOM     14  C   UNL     1      -0.993   3.142  -0.729  0.00  0.00    +0.023 A 
ATOM     15  C   UNL     1      -0.971   1.762  -0.745  0.00  0.00    +0.002 A 
ENDBRANCH   1  13
BRANCH   5  16
ATOM     16  N   UNL     1      -2.596   9.309  -0.345  0.00  0.00    -0.293 N 
ATOM     17  H   UNL     1      -3.581   9.794  -0.419  0.00  0.00    +0.163 HD
ATOM     18  H   UNL     1      -1.681   9.920  -0.351  0.00  0.00    +0.163 HD
ENDBRANCH   5  16
BRANCH   6  19
ATOM     19  S   UNL     1      -5.220   7.943  -0.343  0.00  0.00    -0.080 S 
BRANCH  19  20
ATOM     20  C   UNL     1      -6.281   6.479  -0.278  0.00  0.00    +0.112 C 
BRANCH  20  21
ATOM     21  C   UNL     1      -7.726   6.901  -0.359  0.00  0.00    -0.037 A 
ATOM     22  C   UNL     1      -8.432   7.173   0.798  0.00  0.00    +0.006 A 
ATOM     23  C   UNL     1      -9.755   7.566   0.724  0.00  0.00    +0.020 A 
ATOM     24  C   UNL     1     -10.376   7.677  -0.508  0.00  0.00    +0.041 A 
ATOM     25  C   UNL     1      -9.670   7.399  -1.665  0.00  0.00    +0.020 A 
ATOM     26  C   UNL     1      -8.345   7.011  -1.590  0.00  0.00    +0.006 A 
ATOM     27 CL   UNL     1     -12.039   8.164  -0.601  0.00  0.00    -0.084 Cl
ENDBRANCH  20  21
ENDBRANCH  19  20
ENDBRANCH   6  19
TORSDOF 5
