REMARK  Name = ZINC55089135
REMARK  5 active torsions:
REMARK  status: ('A' for Active; 'I' for Inactive)
REMARK    1  A    between atoms: C_3  and  C_9
REMARK    2  A    between atoms: C_9  and  N_10
REMARK    3  A    between atoms: C_16  and  C_18
REMARK    4  A    between atoms: C_18  and  C_19
REMARK    5  A    between atoms: N_24  and  C_27
REMARK                            x       y       z     vdW  Elec       q    Type
REMARK                         _______ _______ _______ _____ _____    ______ ____
ROOT
ATOM      1  N   UNL     1       5.872   4.071   0.854  0.00  0.00    -0.285 NA
ATOM      2  C   UNL     1       4.890   4.875   1.598  0.00  0.00    +0.104 C 
ATOM      3  C   UNL     1       3.497   4.598   1.031  0.00  0.00    +0.119 C 
ATOM      4  N   UNL     1       3.264   3.159   0.956  0.00  0.00    -0.313 N 
ATOM      5  C   UNL     1       4.252   2.259   0.996  0.00  0.00    +0.231 C 
ATOM      6  O   UNL     1       3.972   1.083   0.897  0.00  0.00    -0.274 OA
ATOM      7  C   UNL     1       5.695   2.645   1.159  0.00  0.00    +0.152 C 
ATOM      8  H   UNL     1       2.351   2.841   0.874  0.00  0.00    +0.149 HD
ENDROOT
BRANCH   1   9
ATOM      9  C   UNL     1       7.243   4.507   1.150  0.00  0.00    +0.121 C 
BRANCH   9  12
ATOM     10  C   UNL     1       7.638   8.261   1.167  0.00  0.00    +0.039 A 
ATOM     11  C   UNL     1       7.464   6.959   1.597  0.00  0.00    +0.009 A 
ATOM     12  C   UNL     1       7.431   5.926   0.679  0.00  0.00    -0.015 A 
ATOM     13  C   UNL     1       7.572   6.194  -0.671  0.00  0.00    +0.048 A 
ATOM     14  C   UNL     1       7.746   7.496  -1.103  0.00  0.00    +0.058 A 
ATOM     15  C   UNL     1       7.779   8.531  -0.184  0.00  0.00    +0.125 A 
ATOM     16  F   UNL     1       7.948   9.804  -0.604  0.00  0.00    -0.205 F 
ATOM     17 CL   UNL     1       7.532   4.895  -1.822  0.00  0.00    -0.083 Cl
ENDBRANCH   9  12
ENDBRANCH   1   9
BRANCH   7  18
ATOM     18  C   UNL     1       6.554   1.810   0.207  0.00  0.00    +0.124 C 
BRANCH  18  19
ATOM     19  C   UNL     1       6.100   2.040  -1.211  0.00  0.00    +0.218 C 
ATOM     20  O   UNL     1       5.235   2.857  -1.446  0.00  0.00    -0.276 OA
ATOM     21  N   UNL     1       6.653   1.336  -2.219  0.00  0.00    -0.298 N 
ATOM     22  C   UNL     1       7.697   0.338  -1.948  0.00  0.00    +0.126 C 
ATOM     23  C   UNL     1       7.255  -1.006  -2.540  0.00  0.00    +0.124 C 
ATOM     24  N   UNL     1       6.825  -0.789  -3.929  0.00  0.00    -0.327 N 
ATOM     25  C   UNL     1       5.781   0.209  -4.199  0.00  0.00    +0.124 C 
ATOM     26  C   UNL     1       6.220   1.549  -3.607  0.00  0.00    +0.126 C 
BRANCH  24  27
ATOM     27  C   UNL     1       7.397  -1.516  -4.969  0.00  0.00    +0.033 A 
ATOM     28  C   UNL     1       6.937  -1.374  -6.278  0.00  0.00    +0.040 A 
ATOM     29  C   UNL     1       7.531  -2.112  -7.280  0.00  0.00    +0.084 A 
ATOM     30  N   UNL     1       8.521  -2.943  -7.013  0.00  0.00    -0.367 N 
ATOM     31  C   UNL     1       8.985  -3.105  -5.788  0.00  0.00    +0.084 A 
ATOM     32  C   UNL     1       8.449  -2.400  -4.730  0.00  0.00    +0.040 A 
ATOM     33  H   UNL     1       8.920  -3.449  -7.738  0.00  0.00    +0.165 HD
ENDBRANCH  24  27
ENDBRANCH  18  19
ENDBRANCH   7  18
TORSDOF 5
