REMARK  Name = ZINC46594626
REMARK  9 active torsions:
REMARK  status: ('A' for Active; 'I' for Inactive)
REMARK    1  A    between atoms: C_1  and  C_2
REMARK    2  A    between atoms: C_4  and  C_23
REMARK    3  A    between atoms: C_7  and  N_8
REMARK    4  A    between atoms: C_9  and  C_11
REMARK    5  A    between atoms: C_13  and  C_22
REMARK    6  A    between atoms: C_14  and  C_21
REMARK    7  A    between atoms: C_15  and  S_17
REMARK    8  A    between atoms: S_17  and  N_20
REMARK    9  A    between atoms: N_25  and  C_26
REMARK                            x       y       z     vdW  Elec       q    Type
REMARK                         _______ _______ _______ _____ _____    ______ ____
ROOT
ATOM      1  N   UNL     1       0.025  -0.013   2.413  0.00  0.00    -0.281 N 
ATOM      2  C   UNL     1      -0.057  -0.688   3.576  0.00  0.00    +0.248 C 
ATOM      3  O   UNL     1      -0.040  -1.904   3.576  0.00  0.00    -0.270 OA
ATOM      4  H   UNL     1       0.079   0.956   2.417  0.00  0.00    +0.155 HD
ENDROOT
BRANCH   2   5
ATOM      5  C   UNL     1      -0.166   0.049   4.853  0.00  0.00    +0.039 A 
ATOM      6  C   UNL     1      -0.191   1.445   4.856  0.00  0.00    +0.016 A 
ATOM      7  C   UNL     1      -0.293   2.127   6.051  0.00  0.00    -0.045 A 
ATOM      8  C   UNL     1      -0.371   1.430   7.244  0.00  0.00    -0.021 A 
ATOM      9  C   UNL     1      -0.347   0.047   7.248  0.00  0.00    +0.109 A 
ATOM     10  C   UNL     1      -0.250  -0.647   6.059  0.00  0.00    +0.041 A 
ATOM     11  C   UNL     1      -0.483   2.182   8.545  0.00  0.00    +0.046 C 
ATOM     12  C   UNL     1      -0.320   3.633   6.057  0.00  0.00    +0.044 C 
BRANCH   9  13
ATOM     13  S   UNL     1      -0.448  -0.830   8.773  0.00  0.00    +0.056 S 
ATOM     14  O   UNL     1      -1.540  -0.273   9.490  0.00  0.00    -0.153 OA
ATOM     15  O   UNL     1      -0.372  -2.212   8.452  0.00  0.00    -0.153 OA
BRANCH  13  16
ATOM     16  N   UNL     1       0.919  -0.469   9.636  0.00  0.00    -0.204 NA
ATOM     17  H   UNL     1       0.893  -0.464  10.605  0.00  0.00    +0.144 HD
ATOM     18  H   UNL     1       1.745  -0.262   9.172  0.00  0.00    +0.144 HD
ENDBRANCH  13  16
ENDBRANCH   9  13
ENDBRANCH   2   5
BRANCH   1  25
ATOM     19  C   UNL     1      -1.269   1.183   0.184  0.00  0.00    +0.045 C 
ATOM     20  C   UNL     1      -0.589  -0.158   0.086  0.00  0.00    -0.029 A 
ATOM     21  C   UNL     1      -0.579  -0.838  -1.111  0.00  0.00    +0.018 A 
ATOM     22  C   UNL     1       0.052  -2.081  -1.202  0.00  0.00    +0.037 A 
ATOM     23  C   UNL     1       0.671  -2.631  -0.076  0.00  0.00    +0.015 A 
ATOM     24  C   UNL     1       0.657  -1.947   1.119  0.00  0.00    +0.024 A 
ATOM     25  C   UNL     1       0.032  -0.706   1.204  0.00  0.00    +0.037 A 
BRANCH  22  26
ATOM     26  C   UNL     1       0.065  -2.813  -2.484  0.00  0.00    +0.244 C 
ATOM     27  O   UNL     1      -0.474  -2.333  -3.462  0.00  0.00    -0.270 OA
ATOM     28  N   UNL     1       0.674  -4.012  -2.569  0.00  0.00    -0.314 N 
ATOM     29  C   UNL     1       0.686  -4.738  -3.842  0.00  0.00    +0.128 C 
ATOM     30  H   UNL     1       1.104  -4.394  -1.788  0.00  0.00    +0.149 HD
ENDBRANCH  22  26
ENDBRANCH   1  25
TORSDOF 5
