REMARK  Name = ZINC26780130
REMARK  9 active torsions:
REMARK  status: ('A' for Active; 'I' for Inactive)
REMARK    1  A    between atoms: C_1  and  C_2
REMARK    2  A    between atoms: C_2  and  N_24
REMARK    3  A    between atoms: C_4  and  N_11
REMARK    4  A    between atoms: C_7  and  C_9
REMARK    5  A    between atoms: C_7  and  C_10
REMARK    6  A    between atoms: N_14  and  C_15
REMARK    7  A    between atoms: C_18  and  N_21
REMARK    8  A    between atoms: N_27  and  C_28
REMARK    9  A    between atoms: C_31  and  N_34
REMARK                            x       y       z     vdW  Elec       q    Type
REMARK                         _______ _______ _______ _____ _____    ______ ____
ROOT
ATOM      1  C   UNL     1       1.270   2.196   0.207  0.00  0.00    +0.031 C 
ATOM      2  C   UNL     1       1.228   0.758  -0.314  0.00  0.00    +0.035 C 
ATOM      3  C   UNL     1      -0.224   0.355  -0.582  0.00  0.00    +0.048 C 
ATOM      4  C   UNL     1      -0.266  -1.083  -1.103  0.00  0.00    +0.077 C 
ATOM      5  C   UNL     1       0.340  -2.022  -0.058  0.00  0.00    +0.029 C 
ATOM      6  C   UNL     1       1.791  -1.619   0.210  0.00  0.00    -0.031 C 
ATOM      7  C   UNL     1       1.833  -0.181   0.731  0.00  0.00    +0.032 C 
ATOM      8  C   UNL     1       2.595  -1.715  -1.088  0.00  0.00    +0.011 C 
ATOM      9  C   UNL     1       2.396  -2.558   1.256  0.00  0.00    +0.011 C 
ENDROOT
BRANCH   4  10
ATOM     10  N   UNL     1      -1.656  -1.469  -1.359  0.00  0.00    -0.296 N 
ATOM     11  C   UNL     1      -2.234  -1.162  -2.538  0.00  0.00    +0.304 C 
ATOM     12  O   UNL     1      -1.602  -0.565  -3.388  0.00  0.00    -0.253 OA
ATOM     13  N   UNL     1      -3.512  -1.517  -2.774  0.00  0.00    -0.269 N 
ATOM     14  H   UNL     1      -2.160  -1.946  -0.681  0.00  0.00    +0.151 HD
ATOM     15  H   UNL     1      -4.040  -1.924  -2.069  0.00  0.00    +0.156 HD
BRANCH  13  16
ATOM     16  C   UNL     1      -4.078  -1.298  -4.035  0.00  0.00    +0.035 A 
ATOM     17  C   UNL     1      -5.426  -0.983  -4.148  0.00  0.00    +0.025 A 
ATOM     18  C   UNL     1      -5.981  -0.767  -5.394  0.00  0.00    +0.034 A 
ATOM     19  C   UNL     1      -5.196  -0.865  -6.528  0.00  0.00    +0.126 A 
ATOM     20  C   UNL     1      -3.854  -1.179  -6.419  0.00  0.00    +0.034 A 
ATOM     21  C   UNL     1      -3.291  -1.390  -5.176  0.00  0.00    +0.025 A 
BRANCH  19  22
ATOM     22  N   UNL     1      -5.794  -0.633  -7.862  0.00  0.00    +0.056 N 
ATOM     23  O   UNL     1      -6.967  -0.358  -7.959  0.00  0.00    -0.126 OA
ATOM     24  O   UNL     1      -5.109  -0.718  -8.855  0.00  0.00    -0.126 OA
ENDBRANCH  19  22
ENDBRANCH  13  16
ENDBRANCH   4  10
BRANCH   2  25
ATOM     25  N   UNL     1       1.998   0.666  -1.557  0.00  0.00    -0.294 N 
ATOM     26  C   UNL     1       3.297   1.023  -1.573  0.00  0.00    +0.304 C 
ATOM     27  O   UNL     1       3.831   1.421  -0.555  0.00  0.00    -0.252 OA
ATOM     28  N   UNL     1       4.005   0.938  -2.717  0.00  0.00    -0.269 N 
ATOM     29  H   UNL     1       1.572   0.348  -2.369  0.00  0.00    +0.151 HD
ATOM     30  H   UNL     1       3.564   0.685  -3.543  0.00  0.00    +0.156 HD
BRANCH  28  31
ATOM     31  C   UNL     1       5.377   1.216  -2.712  0.00  0.00    +0.035 A 
ATOM     32  C   UNL     1       6.234   0.500  -3.538  0.00  0.00    +0.025 A 
ATOM     33  C   UNL     1       7.587   0.777  -3.532  0.00  0.00    +0.034 A 
ATOM     34  C   UNL     1       8.089   1.765  -2.705  0.00  0.00    +0.126 A 
ATOM     35  C   UNL     1       7.238   2.479  -1.881  0.00  0.00    +0.034 A 
ATOM     36  C   UNL     1       5.883   2.211  -1.887  0.00  0.00    +0.025 A 
BRANCH  34  37
ATOM     37  N   UNL     1       9.539   2.059  -2.701  0.00  0.00    +0.056 N 
ATOM     38  O   UNL     1      10.284   1.436  -3.420  0.00  0.00    -0.126 OA
ATOM     39  O   UNL     1       9.979   2.923  -1.978  0.00  0.00    -0.126 OA
ENDBRANCH  34  37
ENDBRANCH  28  31
ENDBRANCH   2  25
TORSDOF 6
