REMARK  Name = ZINC39887480
REMARK  7 active torsions:
REMARK  status: ('A' for Active; 'I' for Inactive)
REMARK    1  A    between atoms: C_1  and  C_2
REMARK    2  A    between atoms: C_5  and  C_36
REMARK    3  A    between atoms: C_6  and  N_8
REMARK    4  A    between atoms: C_9  and  C_19
REMARK    5  A    between atoms: C_14  and  C_17
REMARK    6  A    between atoms: N_21  and  C_30
REMARK    7  A    between atoms: C_23  and  C_24
REMARK                            x       y       z     vdW  Elec       q    Type
REMARK                         _______ _______ _______ _____ _____    ______ ____
ROOT
ATOM      1  N   UNL     1      -0.390  -2.401   2.610  0.00  0.00    -0.269 N 
ATOM      2  C   UNL     1       0.891  -3.010   2.982  0.00  0.00    +0.201 C 
ATOM      3  N   UNL     1       0.687  -4.417   3.333  0.00  0.00    -0.288 N 
ATOM      4  C   UNL     1      -0.476  -4.826   3.877  0.00  0.00    +0.258 C 
ATOM      5  O   UNL     1      -0.623  -5.990   4.206  0.00  0.00    -0.269 OA
ATOM      6  C   UNL     1      -1.563  -3.864   4.072  0.00  0.00    +0.142 C 
ATOM      7  C   UNL     1      -1.486  -2.626   3.405  0.00  0.00    +0.103 C 
ATOM      8  S   UNL     1      -2.750  -1.411   3.580  0.00  0.00    -0.033 SA
ATOM      9  H   UNL     1       1.395  -5.060   3.172  0.00  0.00    +0.151 HD
ENDROOT
BRANCH   1  15
ATOM     10  C   UNL     1      -0.399   2.068   0.563  0.00  0.00    +0.044 C 
ATOM     11  C   UNL     1      -0.500   0.569   0.447  0.00  0.00    -0.049 A 
ATOM     12  C   UNL     1      -0.693  -0.016  -0.791  0.00  0.00    +0.004 A 
ATOM     13  C   UNL     1      -0.786  -1.391  -0.903  0.00  0.00    +0.005 A 
ATOM     14  C   UNL     1      -0.686  -2.185   0.223  0.00  0.00    -0.029 A 
ATOM     15  C   UNL     1      -0.491  -1.600   1.468  0.00  0.00    +0.040 A 
ATOM     16  C   UNL     1      -0.393  -0.219   1.575  0.00  0.00    +0.027 A 
ATOM     17  C   UNL     1      -0.789  -3.683   0.101  0.00  0.00    +0.045 C 
ENDBRANCH   1  15
BRANCH   2  18
ATOM     18  C   UNL     1       1.469  -2.279   4.166  0.00  0.00    +0.037 A 
ATOM     19  C   UNL     1       1.339  -2.636   5.462  0.00  0.00    +0.122 A 
ATOM     20  N   UNL     1       2.003  -1.721   6.215  0.00  0.00    -0.239 N 
ATOM     21  N   UNL     1       2.559  -0.769   5.351  0.00  0.00    -0.166 NA
ATOM     22  C   UNL     1       2.245  -1.104   4.117  0.00  0.00    +0.100 A 
BRANCH  22  23
ATOM     23  C   UNL     1       2.638  -0.370   2.888  0.00  0.00    +0.002 A 
ATOM     24  C   UNL     1       3.028  -1.071   1.749  0.00  0.00    +0.010 A 
ATOM     25  C   UNL     1       3.391  -0.383   0.609  0.00  0.00    +0.001 A 
ATOM     26  C   UNL     1       3.369   1.000   0.596  0.00  0.00    +0.000 A 
ATOM     27  C   UNL     1       2.983   1.701   1.724  0.00  0.00    +0.001 A 
ATOM     28  C   UNL     1       2.612   1.023   2.868  0.00  0.00    +0.010 A 
ENDBRANCH  22  23
BRANCH  20  29
ATOM     29  C   UNL     1       2.111  -1.727   7.612  0.00  0.00    +0.065 A 
ATOM     30  C   UNL     1       1.512  -2.738   8.352  0.00  0.00    +0.028 A 
ATOM     31  C   UNL     1       1.621  -2.741   9.729  0.00  0.00    +0.002 A 
ATOM     32  C   UNL     1       2.326  -1.739  10.371  0.00  0.00    +0.000 A 
ATOM     33  C   UNL     1       2.923  -0.731   9.637  0.00  0.00    +0.002 A 
ATOM     34  C   UNL     1       2.823  -0.725   8.259  0.00  0.00    +0.028 A 
ENDBRANCH  20  29
ENDBRANCH   2  18
BRANCH   6  35
ATOM     35  C   UNL     1      -2.674  -4.171   4.922  0.00  0.00    +0.107 C 
ATOM     36  N   UNL     1      -3.554  -4.415   5.596  0.00  0.00    -0.191 NA
ENDBRANCH   6  35
TORSDOF 5
