REMARK  Name = ZINC24881159
REMARK  9 active torsions:
REMARK  status: ('A' for Active; 'I' for Inactive)
REMARK    1  A    between atoms: C_1  and  C_2
REMARK    2  A    between atoms: C_4  and  N_11
REMARK    3  A    between atoms: C_6  and  C_8
REMARK    4  A    between atoms: C_8  and  C_9
REMARK    5  A    between atoms: C_8  and  C_10
REMARK    6  A    between atoms: N_14  and  C_17
REMARK    7  A    between atoms: C_17  and  C_18
REMARK    8  A    between atoms: C_18  and  C_19
REMARK    9  A    between atoms: N_21  and  N_22
REMARK                            x       y       z     vdW  Elec       q    Type
REMARK                         _______ _______ _______ _____ _____    ______ ____
ROOT
ATOM      1  C   UNL     1       2.457   1.002  -0.016  0.00  0.00    +0.094 C 
ENDROOT
BRANCH   1   5
ATOM      2  N   UNL     1       6.306   2.442  -0.991  0.00  0.00    -0.313 N 
ATOM      3  C   UNL     1       6.149   1.690   0.262  0.00  0.00    +0.122 C 
ATOM      4  C   UNL     1       4.865   0.861   0.199  0.00  0.00    +0.103 C 
ATOM      5  N   UNL     1       3.719   1.753  -0.024  0.00  0.00    -0.299 NA
ATOM      6  C   UNL     1       3.876   2.505  -1.277  0.00  0.00    +0.103 C 
ATOM      7  C   UNL     1       5.160   3.335  -1.213  0.00  0.00    +0.122 C 
BRANCH   2  11
ATOM      8  C   UNL     1       9.469   5.487  -3.218  0.00  0.00    +0.063 C 
ATOM      9  C   UNL     1       9.045   4.624  -2.057  0.00  0.00    +0.017 A 
ATOM     10  C   UNL     1       7.850   3.933  -2.100  0.00  0.00    +0.064 A 
ATOM     11  C   UNL     1       7.497   3.151  -0.998  0.00  0.00    +0.125 A 
ATOM     12  N   UNL     1       8.324   3.094   0.042  0.00  0.00    -0.219 NA
ATOM     13  C   UNL     1       9.457   3.767   0.038  0.00  0.00    +0.112 A 
ATOM     14  N   UNL     1       9.816   4.517  -0.984  0.00  0.00    -0.347 N 
ATOM     15  H   UNL     1      10.772   5.059  -0.938  0.00  0.00    +0.167 HD
BRANCH  13  16
ATOM     16  C   UNL     1      10.367   3.676   1.236  0.00  0.00    +0.049 C 
ATOM     17  C   UNL     1      11.722   3.111   0.805  0.00  0.00    +0.015 C 
ATOM     18  C   UNL     1      10.562   5.071   1.834  0.00  0.00    +0.015 C 
ENDBRANCH  13  16
ENDBRANCH   2  11
ENDBRANCH   1   5
BRANCH   1  19
ATOM     19  C   UNL     1       1.280   1.980   0.001  0.00  0.00    +0.112 C 
BRANCH  19  20
ATOM     20  C   UNL     1      -0.014   1.209   0.009  0.00  0.00    +0.231 C 
ATOM     21  O   UNL     1       0.002  -0.004   0.002  0.00  0.00    -0.274 OA
ATOM     22  N   UNL     1      -1.191   1.867   0.018  0.00  0.00    -0.224 N 
ATOM     23  H   UNL     1      -1.206   2.966   0.024  0.00  0.00    +0.174 HD
BRANCH  22  24
ATOM     24  N   UNL     1      -2.394   1.150   0.020  0.00  0.00    -0.137 N 
ATOM     25  C   UNL     1      -3.188   1.004   1.101  0.00  0.00    +0.263 C 
ATOM     26  O   UNL     1      -3.004   1.451   2.212  0.00  0.00    -0.271 OA
ATOM     27  C   UNL     1      -4.356   0.166   0.633  0.00  0.00    +0.114 C 
ATOM     28  C   UNL     1      -5.660   0.943   0.780  0.00  0.00    +0.035 C 
ATOM     29  C   UNL     1      -6.826   0.089   0.276  0.00  0.00    +0.003 C 
ATOM     30  C   UNL     1      -6.893  -1.209   1.084  0.00  0.00    +0.000 C 
ATOM     31  C   UNL     1      -5.588  -1.988   0.906  0.00  0.00    +0.003 C 
ATOM     32  C   UNL     1      -4.417  -1.143   1.413  0.00  0.00    +0.035 C 
ATOM     33  N   UNL     1      -4.067  -0.091  -0.783  0.00  0.00    -0.284 N 
ATOM     34  C   UNL     1      -2.902   0.529  -1.052  0.00  0.00    +0.326 C 
ATOM     35  O   UNL     1      -2.370   0.523  -2.145  0.00  0.00    -0.251 OA
ATOM     36  H   UNL     1      -4.762  -0.693  -1.386  0.00  0.00    +0.151 HD
ENDBRANCH  22  24
ENDBRANCH  19  20
ENDBRANCH   1  19
TORSDOF 6
