REMARK  Name = ZINC18009047
REMARK  6 active torsions:
REMARK  status: ('A' for Active; 'I' for Inactive)
REMARK    1  A    between atoms: C_1  and  C_2
REMARK    2  A    between atoms: C_2  and  C_15
REMARK    3  A    between atoms: N_3  and  N_4
REMARK    4  A    between atoms: N_4  and  C_5
REMARK    5  A    between atoms: C_5  and  N_7
REMARK    6  A    between atoms: N_7  and  C_8
REMARK                            x       y       z     vdW  Elec       q    Type
REMARK                         _______ _______ _______ _____ _____    ______ ____
ROOT
ATOM      1  C   UNL     1       2.303  -0.478   0.459  0.00  0.00    +0.071 C 
ATOM      2  C   UNL     1       2.282   0.967   0.029  0.00  0.00    +0.098 C 
ATOM      3  N   UNL     1       1.162   1.627   0.025  0.00  0.00    -0.182 NA
ENDROOT
BRANCH   2   4
ATOM      4  C   UNL     1       3.526   1.628  -0.383  0.00  0.00    +0.157 A 
ATOM      5  N   UNL     1       3.628   2.931  -0.797  0.00  0.00    -0.336 N 
ATOM      6  H   UNL     1       2.881   3.591  -0.873  0.00  0.00    +0.167 HD
ATOM      7  C   UNL     1       4.958   3.158  -1.088  0.00  0.00    +0.086 A 
ATOM      8  C   UNL     1       5.675   4.258  -1.541  0.00  0.00    +0.031 A 
ATOM      9  C   UNL     1       7.039   4.116  -1.734  0.00  0.00    +0.022 A 
ATOM     10  C   UNL     1       7.642   2.896  -1.473  0.00  0.00    +0.113 A 
ATOM     11  N   UNL     1       6.947   1.865  -1.044  0.00  0.00    -0.234 NA
ATOM     12  C   UNL     1       5.632   1.946  -0.842  0.00  0.00    +0.178 A 
ATOM     13  N   UNL     1       4.711   1.059  -0.417  0.00  0.00    -0.207 NA
ENDBRANCH   2   4
BRANCH   3  14
ATOM     14  N   UNL     1      -0.025   0.997   0.418  0.00  0.00    -0.218 N 
ATOM     15  H   UNL     1      -0.012   0.067   0.695  0.00  0.00    +0.176 HD
BRANCH  14  16
ATOM     16  C   UNL     1      -1.187   1.680   0.408  0.00  0.00    +0.154 C 
ATOM     17  S   UNL     1      -2.639   0.906   0.882  0.00  0.00    -0.017 S 
BRANCH  16  18
ATOM     18  N   UNL     1      -1.206   2.971   0.024  0.00  0.00    -0.296 N 
ATOM     19  H   UNL     1      -0.375   3.427  -0.186  0.00  0.00    +0.154 HD
BRANCH  18  20
ATOM     20  C   UNL     1      -2.422   3.655  -0.072  0.00  0.00    +0.033 A 
ATOM     21  C   UNL     1      -2.688   4.450  -1.180  0.00  0.00    +0.025 A 
ATOM     22  C   UNL     1      -3.893   5.118  -1.275  0.00  0.00    +0.022 A 
ATOM     23  C   UNL     1      -4.830   5.007  -0.263  0.00  0.00    +0.041 A 
ATOM     24  C   UNL     1      -4.565   4.220   0.845  0.00  0.00    +0.022 A 
ATOM     25  C   UNL     1      -3.365   3.545   0.942  0.00  0.00    +0.025 A 
ATOM     26 CL   UNL     1      -6.340   5.855  -0.382  0.00  0.00    -0.084 Cl
ENDBRANCH  18  20
ENDBRANCH  16  18
ENDBRANCH  14  16
ENDBRANCH   3  14
TORSDOF 5
