REMARK  Name = ZINC48796488
REMARK  5 active torsions:
REMARK  status: ('A' for Active; 'I' for Inactive)
REMARK    1  A    between atoms: C_1  and  N_2
REMARK    2  A    between atoms: C_7  and  N_12
REMARK    3  A    between atoms: N_12  and  C_13
REMARK    4  A    between atoms: C_13  and  C_14
REMARK    5  A    between atoms: C_19  and  O_20
REMARK                            x       y       z     vdW  Elec       q    Type
REMARK                         _______ _______ _______ _____ _____    ______ ____
ROOT
ATOM      1  N   UNL     1      -0.909  -4.285  -1.108  0.00  0.00    +0.386 N 
ATOM      2  H   UNL     1      -0.800  -4.603  -0.157  0.00  0.00    -0.085 HD
ATOM      3  H   UNL     1      -1.785  -3.794  -1.200  0.00  0.00    -0.085 HD
ENDROOT
BRANCH   1  10
ATOM      4  C   UNL     1       0.656   1.195   0.498  0.00  0.00    +0.172 C 
ATOM      5  N   UNL     1       0.479  -0.255   0.382  0.00  0.00    -0.271 N 
ATOM      6  C   UNL     1       0.466  -0.961  -0.761  0.00  0.00    +0.040 A 
ATOM      7  C   UNL     1       0.276  -2.266  -0.441  0.00  0.00    -0.021 A 
ATOM      8  C   UNL     1       0.170  -2.359   0.945  0.00  0.00    +0.136 A 
ATOM      9  N   UNL     1       0.298  -1.153   1.444  0.00  0.00    -0.179 NA
ATOM     10  C   UNL     1       0.197  -3.383  -1.452  0.00  0.00    -0.037 C 
ATOM     11  C   UNL     1      -0.049  -2.766  -2.835  0.00  0.00    -0.011 C 
ATOM     12  C   UNL     1       0.960  -1.641  -3.080  0.00  0.00    +0.005 C 
ATOM     13  C   UNL     1       0.631  -0.451  -2.171  0.00  0.00    +0.055 C 
ENDBRANCH   1  10
BRANCH   1  14
ATOM     14  C   UNL     1      -0.898  -5.441  -2.015  0.00  0.00    -0.042 C 
BRANCH  14  15
ATOM     15  C   UNL     1      -1.951  -6.429  -1.582  0.00  0.00    -0.022 A 
ATOM     16  C   UNL     1      -1.594  -7.541  -0.843  0.00  0.00    +0.005 A 
ATOM     17  C   UNL     1      -2.559  -8.447  -0.446  0.00  0.00    +0.002 A 
ATOM     18  C   UNL     1      -3.884  -8.244  -0.787  0.00  0.00    +0.019 A 
ATOM     19  C   UNL     1      -4.246  -7.134  -1.526  0.00  0.00    +0.059 A 
ATOM     20  C   UNL     1      -3.279  -6.220  -1.921  0.00  0.00    +0.132 A 
ATOM     21 BR   UNL     1      -6.058  -6.857  -1.992  0.00  0.00    -0.047 Br
BRANCH  20  22
ATOM     22  O   UNL     1      -3.633  -5.124  -2.644  0.00  0.00    -0.505 OA
ATOM     23  H   UNL     1      -3.616  -5.262  -3.601  0.00  0.00    +0.292 HD
ENDBRANCH  20  22
ENDBRANCH  14  15
ENDBRANCH   1  14
TORSDOF 4
