REMARK  Name = ZINC21657588
REMARK  9 active torsions:
REMARK  status: ('A' for Active; 'I' for Inactive)
REMARK    1  A    between atoms: C_1  and  C_2
REMARK    2  A    between atoms: C_5  and  C_25
REMARK    3  A    between atoms: C_6  and  O_8
REMARK    4  A    between atoms: O_8  and  C_9
REMARK    5  A    between atoms: C_9  and  C_11
REMARK    6  A    between atoms: C_9  and  C_12
REMARK    7  A    between atoms: N_14  and  C_15
REMARK    8  A    between atoms: C_19  and  N_22
REMARK    9  A    between atoms: C_20  and  C_21
REMARK                            x       y       z     vdW  Elec       q    Type
REMARK                         _______ _______ _______ _____ _____    ______ ____
ROOT
ATOM      1  C   UNL     1      -2.394   5.178   0.184  0.00  0.00    +0.256 C 
ATOM      2  C   UNL     1      -2.443   5.801  -1.212  0.00  0.00    +0.062 C 
ENDROOT
BRANCH   1   3
ATOM      3  C   UNL     1      -3.546   5.697   1.006  0.00  0.00    +0.258 C 
ATOM      4  O   UNL     1      -4.368   4.925   1.454  0.00  0.00    -0.271 OA
ATOM      5  N   UNL     1      -3.663   7.018   1.244  0.00  0.00    -0.282 N 
ATOM      6  H   UNL     1      -2.958   7.725   0.780  0.00  0.00    +0.155 HD
BRANCH   5   7
ATOM      7  C   UNL     1      -4.680   7.492   2.080  0.00  0.00    +0.039 A 
ATOM      8  C   UNL     1      -5.917   6.861   2.097  0.00  0.00    +0.024 A 
ATOM      9  C   UNL     1      -6.919   7.330   2.923  0.00  0.00    +0.004 A 
ATOM     10  C   UNL     1      -6.691   8.428   3.733  0.00  0.00    +0.033 A 
ATOM     11  C   UNL     1      -5.461   9.059   3.718  0.00  0.00    +0.131 A 
ATOM     12  C   UNL     1      -4.453   8.591   2.898  0.00  0.00    +0.001 A 
ATOM     13  C   UNL     1      -3.110   9.275   2.887  0.00  0.00    +0.048 C 
BRANCH  11  14
ATOM     14  N   UNL     1      -5.222  10.234   4.586  0.00  0.00    +0.057 N 
ATOM     15  O   UNL     1      -5.726  10.285   5.694  0.00  0.00    -0.126 OA
ATOM     16  O   UNL     1      -4.521  11.149   4.193  0.00  0.00    -0.126 OA
ENDBRANCH  11  14
ENDBRANCH   5   7
ENDBRANCH   1   3
BRANCH   1  17
ATOM     17  O   UNL     1      -2.490   3.756   0.075  0.00  0.00    -0.479 OA
BRANCH  17  23
ATOM     18  C   UNL     1       2.381   3.767  -0.164  0.00  0.00    +0.044 C 
ATOM     19  C   UNL     1       1.069   3.028  -0.086  0.00  0.00    -0.047 A 
ATOM     20  C   UNL     1       1.060   1.643  -0.061  0.00  0.00    +0.004 A 
ATOM     21  C   UNL     1      -0.134   0.957   0.009  0.00  0.00    +0.017 A 
ATOM     22  C   UNL     1      -1.340   1.661   0.050  0.00  0.00    +0.078 A 
ATOM     23  C   UNL     1      -1.326   3.062   0.030  0.00  0.00    +0.134 A 
ATOM     24  C   UNL     1      -0.115   3.736  -0.041  0.00  0.00    +0.049 A 
BRANCH  22  25
ATOM     25  C   UNL     1      -2.621   0.933   0.119  0.00  0.00    +0.245 C 
ATOM     26  O   UNL     1      -3.669   1.549   0.155  0.00  0.00    -0.270 OA
ATOM     27  N   UNL     1      -2.630  -0.415   0.143  0.00  0.00    -0.325 N 
ATOM     28  H   UNL     1      -3.586  -0.957   0.195  0.00  0.00    +0.145 HD
ATOM     29  H   UNL     1      -1.682  -0.972   0.111  0.00  0.00    +0.145 HD
ENDBRANCH  22  25
ENDBRANCH  17  23
ENDBRANCH   1  17
TORSDOF 6
