REMARK  Name = ZINC52005390
REMARK  4 active torsions:
REMARK  status: ('A' for Active; 'I' for Inactive)
REMARK    1  A    between atoms: C_2  and  S_8
REMARK    2  A    between atoms: S_8  and  N_11
REMARK    3  A    between atoms: N_11  and  C_12
REMARK    4  A    between atoms: C_18  and  O_20
REMARK                            x       y       z     vdW  Elec       q    Type
REMARK                         _______ _______ _______ _____ _____    ______ ____
ROOT
ATOM      1  S   UNL     1       1.232   3.896  -0.026  0.00  0.00    +0.061 S 
ATOM      2  O   UNL     1       2.150   4.482  -0.939  0.00  0.00    -0.153 OA
ATOM      3  O   UNL     1      -0.158   4.189  -0.050  0.00  0.00    -0.153 OA
ENDROOT
BRANCH   1   5
ATOM      4  C   UNL     1       2.261   1.616  -1.135  0.00  0.00    +0.057 A 
ATOM      5  C   UNL     1       1.382   2.151  -0.211  0.00  0.00    +0.132 A 
ATOM      6  C   UNL     1       0.638   1.311   0.550  0.00  0.00    +0.106 A 
ATOM      7  S   UNL     1       1.173  -0.289  -0.033  0.00  0.00    -0.063 S 
ATOM      8  C   UNL     1       2.352   0.268  -1.252  0.00  0.00    +0.081 A 
ATOM      9 CL   UNL     1       3.355  -0.673  -2.312  0.00  0.00    -0.076 Cl
ATOM     10 CL   UNL     1      -0.532   1.693   1.774  0.00  0.00    -0.074 Cl
ENDBRANCH   1   5
BRANCH   1  11
ATOM     11  N   UNL     1       1.769   4.275   1.494  0.00  0.00    -0.184 NA
ATOM     12  H   UNL     1       1.154   4.642   2.149  0.00  0.00    +0.148 HD
BRANCH  11  13
ATOM     13  C   UNL     1       3.173   4.057   1.850  0.00  0.00    +0.105 C 
ATOM     14  C   UNL     1       3.955   5.359   1.665  0.00  0.00    +0.023 C 
ATOM     15  C   UNL     1       5.421   5.131   2.036  0.00  0.00    +0.002 C 
ATOM     16  C   UNL     1       5.514   4.685   3.497  0.00  0.00    +0.003 C 
ATOM     17  C   UNL     1       4.732   3.383   3.683  0.00  0.00    +0.033 C 
ATOM     18  C   UNL     1       3.266   3.611   3.311  0.00  0.00    +0.133 C 
BRANCH  18  19
ATOM     19  O   UNL     1       2.536   2.395   3.484  0.00  0.00    -0.390 OA
ATOM     20  H   UNL     1       2.551   2.052   4.389  0.00  0.00    +0.210 HD
ENDBRANCH  18  19
ENDBRANCH  11  13
ENDBRANCH   1  11
TORSDOF 4
