REMARK  Name = ZINC34938945
REMARK  4 active torsions:
REMARK  status: ('A' for Active; 'I' for Inactive)
REMARK    1  A    between atoms: C_3  and  C_17
REMARK    2  A    between atoms: C_6  and  C_7
REMARK    3  A    between atoms: C_7  and  O_8
REMARK    4  A    between atoms: O_8  and  C_9
REMARK                            x       y       z     vdW  Elec       q    Type
REMARK                         _______ _______ _______ _____ _____    ______ ____
ROOT
ATOM      1  C   UNL     1      -0.017   1.379   0.010  0.00  0.00    +0.007 A 
ATOM      2  C   UNL     1       1.167   2.088   0.002  0.00  0.00    +0.011 A 
ATOM      3  C   UNL     1       2.385   1.407  -0.013  0.00  0.00    +0.012 A 
ATOM      4  C   UNL     1       2.397   0.012  -0.021  0.00  0.00    +0.011 A 
ATOM      5  C   UNL     1       1.206  -0.685  -0.013  0.00  0.00    +0.007 A 
ATOM      6  C   UNL     1       0.002  -0.004   0.002  0.00  0.00    -0.010 A 
ENDROOT
BRANCH   3   7
ATOM      7  C   UNL     1       3.658   2.161  -0.022  0.00  0.00    +0.094 C 
ATOM      8  N   UNL     1       4.818   1.508  -0.036  0.00  0.00    -0.387 N 
ATOM      9  N   UNL     1       3.643   3.493  -0.015  0.00  0.00    -0.345 N 
ATOM     10  H   UNL     1       4.829   0.538  -0.041  0.00  0.00    +0.157 HD
ATOM     11  H   UNL     1       2.797   3.968  -0.004  0.00  0.00    +0.144 HD
ATOM     12  H   UNL     1       4.477   3.987  -0.021  0.00  0.00    +0.144 HD
ATOM     13  H   UNL     1       5.652   2.003  -0.042  0.00  0.00    +0.157 HD
ENDBRANCH   3   7
BRANCH   6  14
ATOM     14  C   UNL     1      -1.294  -0.772   0.011  0.00  0.00    +0.264 C 
BRANCH  14  15
ATOM     15  O   UNL     1      -1.718  -1.008  -1.334  0.00  0.00    -0.486 OA
BRANCH  15  16
ATOM     16  C   UNL     1      -2.879  -1.694  -1.504  0.00  0.00    +0.139 A 
ATOM     17  C   UNL     1      -3.599  -2.126  -0.400  0.00  0.00    +0.048 A 
ATOM     18  C   UNL     1      -4.779  -2.822  -0.575  0.00  0.00    +0.019 A 
ATOM     19  C   UNL     1      -5.244  -3.089  -1.851  0.00  0.00    +0.019 A 
ATOM     20  C   UNL     1      -4.528  -2.660  -2.954  0.00  0.00    +0.039 A 
ATOM     21  C   UNL     1      -3.349  -1.958  -2.783  0.00  0.00    +0.084 A 
ATOM     22 CL   UNL     1      -2.454  -1.413  -4.167  0.00  0.00    -0.080 Cl
ATOM     23 BR   UNL     1      -6.859  -4.043  -2.086  0.00  0.00    -0.050 Br
ENDBRANCH  15  16
ENDBRANCH  14  15
ENDBRANCH   6  14
TORSDOF 4
