REMARK  Name = ZINC06194957
REMARK  13 active torsions:
REMARK  status: ('A' for Active; 'I' for Inactive)
REMARK    1  A    between atoms: C_1  and  C_2
REMARK    2  A    between atoms: C_2  and  O_3
REMARK    3  A    between atoms: O_3  and  C_4
REMARK    4  A    between atoms: C_4  and  C_6
REMARK    5  A    between atoms: C_6  and  N_7
REMARK    6  A    between atoms: C_8  and  C_12
REMARK    7  A    between atoms: C_12  and  N_63
REMARK    8  A    between atoms: C_13  and  C_14
REMARK    9  A    between atoms: C_13  and  N_63
REMARK   10  A    between atoms: C_19  and  C_27
REMARK   11  A    between atoms: C_20  and  C_26
REMARK   12  A    between atoms: C_28  and  C_29
REMARK   13  A    between atoms: C_28  and  N_63
REMARK                            x       y       z     vdW  Elec       q    Type
REMARK                         _______ _______ _______ _____ _____    ______ ____
ROOT
ATOM      1  N   UNL     1      -0.689  -2.095   4.223  0.00  0.00    +0.389 N 
ATOM      2  H   UNL     1      -0.319  -1.564   3.426  0.00  0.00    -0.081 HD
ENDROOT
BRANCH   1   3
ATOM      3  C   UNL     1      -1.351  -1.160   5.157  0.00  0.00    +0.001 C 
BRANCH   3   5
ATOM      4  N   UNL     1      -0.207   1.100   4.860  0.00  0.00    -0.220 N 
ATOM      5  C   UNL     1      -0.382  -0.062   5.515  0.00  0.00    +0.136 A 
ATOM      6  N   UNL     1       0.455  -0.056   6.523  0.00  0.00    -0.115 NA
ATOM      7  N   UNL     1       1.105   1.056   6.494  0.00  0.00    -0.023 NA
ATOM      8  N   UNL     1       0.707   1.758   5.490  0.00  0.00    -0.043 NA
BRANCH   4   9
ATOM      9  C   UNL     1      -0.924   1.540   3.660  0.00  0.00    +0.267 C 
BRANCH   9  10
ATOM     10  C   UNL     1      -0.175   1.088   2.433  0.00  0.00    +0.329 C 
ATOM     11  O   UNL     1       0.852   0.462   2.549  0.00  0.00    -0.249 OA
BRANCH  10  12
ATOM     12  O   UNL     1      -0.649   1.379   1.212  0.00  0.00    -0.464 OA
BRANCH  12  14
ATOM     13  C   UNL     1      -0.568   1.337  -1.222  0.00  0.00    +0.048 C 
ATOM     14  C   UNL     1       0.124   0.912   0.075  0.00  0.00    +0.229 C 
ENDBRANCH  12  14
ENDBRANCH  10  12
ENDBRANCH   9  10
ENDBRANCH   4   9
ENDBRANCH   3   5
ENDBRANCH   1   3
BRANCH   1  15
ATOM     15  C   UNL     1      -1.664  -3.089   3.727  0.00  0.00    -0.037 C 
BRANCH  15  16
ATOM     16  C   UNL     1      -0.997  -3.947   2.683  0.00  0.00    +0.001 A 
ATOM     17  C   UNL     1      -0.483  -5.154   3.028  0.00  0.00    +0.017 A 
ATOM     18  C   UNL     1       0.157  -5.963   1.990  0.00  0.00    -0.001 A 
ATOM     19  C   UNL     1       0.706  -7.216   2.286  0.00  0.00    +0.010 A 
ATOM     20  C   UNL     1       1.297  -7.947   1.295  0.00  0.00    +0.004 A 
ATOM     21  C   UNL     1       1.358  -7.458  -0.003  0.00  0.00    -0.046 A 
ATOM     22  C   UNL     1       0.825  -6.227  -0.317  0.00  0.00    -0.024 A 
ATOM     23  C   UNL     1       0.218  -5.464   0.676  0.00  0.00    +0.052 A 
ATOM     24  N   UNL     1      -0.324  -4.229   0.390  0.00  0.00    -0.322 N 
ATOM     25  H   UNL     1      -0.276  -3.874  -0.543  0.00  0.00    +0.169 HD
ATOM     26  C   UNL     1      -0.915  -3.495   1.349  0.00  0.00    +0.251 A 
ATOM     27  O   UNL     1      -1.388  -2.410   1.059  0.00  0.00    -0.268 OA
ATOM     28  C   UNL     1       0.898  -5.709  -1.730  0.00  0.00    +0.046 C 
ATOM     29  C   UNL     1       2.016  -8.282  -1.080  0.00  0.00    +0.044 C 
ENDBRANCH  15  16
ENDBRANCH   1  15
BRANCH   1  30
ATOM     30  C   UNL     1       0.429  -2.781   4.904  0.00  0.00    -0.046 C 
BRANCH  30  31
ATOM     31  C   UNL     1      -0.095  -3.672   6.032  0.00  0.00    +0.102 C 
ATOM     32  C   UNL     1       1.055  -4.521   6.607  0.00  0.00    +0.032 C 
ATOM     33  C   UNL     1       1.100  -4.136   8.105  0.00  0.00    +0.030 C 
ATOM     34  C   UNL     1      -0.320  -3.557   8.334  0.00  0.00    +0.160 C 
ATOM     35  O   UNL     1      -0.601  -2.857   7.103  0.00  0.00    -0.378 OA
ENDBRANCH  30  31
ENDBRANCH   1  30
TORSDOF 10
