REMARK  Name = ZINC00752468
REMARK  5 active torsions:
REMARK  status: ('A' for Active; 'I' for Inactive)
REMARK    1  A    between atoms: C_4  and  C_7
REMARK    2  A    between atoms: C_12  and  C_20
REMARK    3  A    between atoms: C_14  and  C_18
REMARK    4  A    between atoms: C_15  and  N_17
REMARK    5  A    between atoms: C_23  and  N_26
REMARK                            x       y       z     vdW  Elec       q    Type
REMARK                         _______ _______ _______ _____ _____    ______ ____
ROOT
ATOM      1  C   UNL     1       1.286  -0.478  -0.688  0.00  0.00    +0.034 C 
ATOM      2  C   UNL     1       2.483   0.135   0.042  0.00  0.00    +0.083 C 
ATOM      3  C   UNL     1       2.378   1.642   0.011  0.00  0.00    +0.115 C 
ATOM      4  C   UNL     1       1.176   2.246   0.003  0.00  0.00    +0.046 C 
ATOM      5  C   UNL     1       1.073   3.752  -0.013  0.00  0.00    +0.101 C 
ATOM      6  C   UNL     1       2.377   4.364   0.419  0.00  0.00    +0.098 C 
ATOM      7  C   UNL     1       3.518   3.632   0.398  0.00  0.00    +0.198 C 
ATOM      8  O   UNL     1       3.521   2.354  -0.010  0.00  0.00    -0.445 OA
ATOM      9  C   UNL     1      -0.018   1.500   0.010  0.00  0.00    +0.164 C 
ATOM     10  O   UNL     1      -1.085   2.082   0.018  0.00  0.00    -0.292 OA
ATOM     11  C   UNL     1       0.002  -0.004   0.002  0.00  0.00    +0.088 C 
ENDROOT
BRANCH   1  15
ATOM     12  C   UNL     1       1.524  -4.740  -0.505  0.00  0.00    +0.000 A 
ATOM     13  C   UNL     1       1.496  -4.101  -1.731  0.00  0.00    +0.000 A 
ATOM     14  C   UNL     1       1.419  -2.722  -1.790  0.00  0.00    +0.004 A 
ATOM     15  C   UNL     1       1.369  -1.982  -0.623  0.00  0.00    -0.043 A 
ATOM     16  C   UNL     1       1.402  -2.620   0.602  0.00  0.00    +0.004 A 
ATOM     17  C   UNL     1       1.474  -4.000   0.661  0.00  0.00    +0.000 A 
ENDBRANCH   1  15
BRANCH   5  18
ATOM     18  C   UNL     1       0.743   4.216  -1.409  0.00  0.00    -0.034 A 
ATOM     19  C   UNL     1       1.603   3.931  -2.453  0.00  0.00    +0.007 A 
ATOM     20  C   UNL     1       1.297   4.352  -3.734  0.00  0.00    +0.033 A 
ATOM     21  C   UNL     1       0.137   5.066  -3.969  0.00  0.00    +0.126 A 
ATOM     22  C   UNL     1      -0.720   5.355  -2.923  0.00  0.00    +0.033 A 
ATOM     23  C   UNL     1      -0.417   4.930  -1.643  0.00  0.00    +0.007 A 
BRANCH  21  24
ATOM     24  N   UNL     1      -0.187   5.522  -5.339  0.00  0.00    +0.056 N 
ATOM     25  O   UNL     1      -1.209   6.151  -5.546  0.00  0.00    -0.126 OA
ATOM     26  O   UNL     1       0.568   5.267  -6.260  0.00  0.00    -0.126 OA
ENDBRANCH  21  24
ENDBRANCH   5  18
BRANCH   7  27
ATOM     27  N   UNL     1       4.695   4.212   0.801  0.00  0.00    -0.328 N 
ATOM     28  H   UNL     1       4.704   5.136   1.097  0.00  0.00    +0.145 HD
ATOM     29  H   UNL     1       5.518   3.698   0.789  0.00  0.00    +0.145 HD
ENDBRANCH   7  27
BRANCH   6  30
ATOM     30  C   UNL     1       2.413   5.726   0.857  0.00  0.00    +0.101 C 
ATOM     31  N   UNL     1       2.442   6.808   1.204  0.00  0.00    -0.191 NA
ENDBRANCH   6  30
TORSDOF 5
