REMARK  Name = ZINC47916169
REMARK  9 active torsions:
REMARK  status: ('A' for Active; 'I' for Inactive)
REMARK    1  A    between atoms: C_1  and  C_2
REMARK    2  A    between atoms: C_2  and  N_3
REMARK    3  A    between atoms: C_7  and  C_8
REMARK    4  A    between atoms: C_8  and  N_9
REMARK    5  A    between atoms: N_12  and  C_13
REMARK    6  A    between atoms: C_13  and  C_14
REMARK    7  A    between atoms: C_14  and  C_16
REMARK    8  A    between atoms: C_14  and  N_21
REMARK    9  A    between atoms: C_24  and  C_27
REMARK                            x       y       z     vdW  Elec       q    Type
REMARK                         _______ _______ _______ _____ _____    ______ ____
ROOT
ATOM      1  C   UNL     1       0.086  -2.716  -6.319  0.00  0.00    +0.095 C 
ENDROOT
BRANCH   1   5
ATOM      2  N   UNL     1      -2.619  -0.895  -8.018  0.00  0.00    -0.292 N 
ATOM      3  C   UNL     1      -1.647  -1.214  -7.140  0.00  0.00    +0.300 C 
ATOM      4  O   UNL     1      -1.382  -0.456  -6.226  0.00  0.00    -0.253 OA
ATOM      5  N   UNL     1      -0.970  -2.371  -7.274  0.00  0.00    -0.301 N 
ATOM      6  H   UNL     1      -2.831  -1.500  -8.747  0.00  0.00    +0.151 HD
ATOM      7  H   UNL     1      -1.182  -2.975  -8.003  0.00  0.00    +0.150 HD
BRANCH   2   8
ATOM      8  C   UNL     1      -3.355   0.362  -7.872  0.00  0.00    +0.182 C 
BRANCH   8  13
ATOM      9  N   UNL     1      -5.658   0.034  -8.929  0.00  0.00    -0.316 N 
ATOM     10  C   UNL     1      -6.206   0.353 -10.127  0.00  0.00    +0.225 A 
ATOM     11  N   UNL     1      -5.281   0.947 -10.831  0.00  0.00    -0.138 NA
ATOM     12  N   UNL     1      -4.194   1.017 -10.147  0.00  0.00    -0.133 NA
ATOM     13  C   UNL     1      -4.378   0.476  -8.973  0.00  0.00    +0.151 A 
BRANCH   9  15
ATOM     14  C   UNL     1      -6.862   0.396  -6.831  0.00  0.00    +0.027 C 
ATOM     15  C   UNL     1      -6.317  -0.645  -7.811  0.00  0.00    +0.121 C 
ENDBRANCH   9  15
ENDBRANCH   8  13
ENDBRANCH   2   8
ENDBRANCH   1   5
BRANCH   1  16
ATOM     16  C   UNL     1       0.612  -4.120  -6.626  0.00  0.00    -0.013 C 
BRANCH  16  17
ATOM     17  N   UNL     1       1.604  -4.504  -5.613  0.00  0.00    +0.386 N 
ATOM     18  C   UNL     1       0.957  -4.569  -4.297  0.00  0.00    -0.078 C 
ATOM     19  C   UNL     1       2.001  -4.889  -3.226  0.00  0.00    -0.015 C 
ATOM     20  C   UNL     1       2.652  -6.238  -3.543  0.00  0.00    -0.018 C 
ATOM     21  C   UNL     1       3.260  -6.183  -4.948  0.00  0.00    -0.015 C 
ATOM     22  C   UNL     1       2.168  -5.815  -5.955  0.00  0.00    -0.078 C 
ATOM     23  C   UNL     1       3.753  -6.528  -2.521  0.00  0.00    +0.007 C 
ATOM     24  H   UNL     1       2.342  -3.817  -5.589  0.00  0.00    -0.081 HD
ENDBRANCH  16  17
BRANCH  16  25
ATOM     25  C   UNL     1       1.257  -4.128  -7.989  0.00  0.00    -0.022 A 
ATOM     26  C   UNL     1       0.748  -4.552  -9.171  0.00  0.00    +0.009 A 
ATOM     27  C   UNL     1       1.530  -4.463 -10.308  0.00  0.00    +0.008 A 
ATOM     28  C   UNL     1       2.782  -3.954 -10.206  0.00  0.00    +0.045 A 
ATOM     29  S   UNL     1       2.886  -3.574  -8.464  0.00  0.00    -0.103 S 
ENDBRANCH  16  25
ENDBRANCH   1  16
TORSDOF 7
