REMARK  Name = ZINC03841031
REMARK  13 active torsions:
REMARK  status: ('A' for Active; 'I' for Inactive)
REMARK    1  A    between atoms: C_1  and  C_2
REMARK    2  A    between atoms: C_5  and  O_39
REMARK    3  A    between atoms: C_7  and  C_36
REMARK    4  A    between atoms: C_7  and  C_37
REMARK    5  A    between atoms: N_16  and  C_17
REMARK    6  A    between atoms: C_19  and  O_25
REMARK    7  A    between atoms: C_22  and  O_23
REMARK    8  A    between atoms: O_23  and  C_24
REMARK    9  A    between atoms: O_25  and  C_26
REMARK   10  A    between atoms: C_27  and  C_29
REMARK   11  A    between atoms: C_29  and  C_30
REMARK   12  A    between atoms: N_32  and  C_33
REMARK   13  A    between atoms: C_37  and  O_38
REMARK                            x       y       z     vdW  Elec       q    Type
REMARK                         _______ _______ _______ _____ _____    ______ ____
ROOT
ATOM      1  C   UNL     1       2.009   3.712   2.340  0.00  0.00    +0.012 C 
ATOM      2  C   UNL     1       2.901   3.148   1.231  0.00  0.00    -0.019 C 
ATOM      3  C   UNL     1       2.950   1.620   1.339  0.00  0.00    +0.010 C 
ATOM      4  C   UNL     1       1.558   1.027   1.131  0.00  0.00    +0.032 C 
ATOM      5  C   UNL     1       1.065   1.406  -0.269  0.00  0.00    +0.123 C 
ATOM      6  C   UNL     1       0.969   2.928  -0.360  0.00  0.00    +0.021 C 
ATOM      7  C   UNL     1       2.345   3.562  -0.133  0.00  0.00    +0.011 C 
ATOM      8  C   UNL     1       2.150   5.091  -0.151  0.00  0.00    +0.049 C 
ATOM      9  C   UNL     1       3.369   5.741   0.402  0.00  0.00    +0.015 A 
ATOM     10  C   UNL     1       4.375   5.158   1.102  0.00  0.00    +0.058 A 
ATOM     11  N   UNL     1       5.360   5.966   1.491  0.00  0.00    -0.229 NA
ATOM     12  C   UNL     1       5.362   7.254   1.213  0.00  0.00    +0.163 A 
ATOM     13  S   UNL     1       3.878   7.437   0.326  0.00  0.00    -0.057 S 
ATOM     14  N   UNL     1       6.305   8.216   1.543  0.00  0.00    -0.291 N 
ATOM     15  C   UNL     1       4.335   3.667   1.399  0.00  0.00    +0.054 C 
ATOM     16  C   UNL     1       0.457   3.320  -1.747  0.00  0.00    +0.016 C 
ATOM     17  H   UNL     1       7.104   7.964   2.030  0.00  0.00    +0.154 HD
ENDROOT
BRANCH  14  18
ATOM     18  C   UNL     1       6.102   9.550   1.172  0.00  0.00    +0.078 A 
ATOM     19  C   UNL     1       4.819  10.076   1.142  0.00  0.00    +0.072 A 
ATOM     20  C   UNL     1       4.622  11.400   0.780  0.00  0.00    +0.122 A 
ATOM     21  C   UNL     1       5.706  12.195   0.438  0.00  0.00    +0.049 A 
ATOM     22  C   UNL     1       6.986  11.671   0.461  0.00  0.00    +0.051 A 
ATOM     23  C   UNL     1       7.189  10.351   0.828  0.00  0.00    +0.141 A 
BRANCH  23  24
ATOM     24  O   UNL     1       8.448   9.837   0.851  0.00  0.00    -0.493 OA
ATOM     25  C   UNL     1       9.515  10.716   0.485  0.00  0.00    +0.277 C 
ENDBRANCH  23  24
BRANCH  20  26
ATOM     26  O   UNL     1       3.365  11.918   0.756  0.00  0.00    -0.495 OA
ATOM     27  C   UNL     1       3.235  13.287   0.368  0.00  0.00    +0.277 C 
ENDBRANCH  20  26
ENDBRANCH  14  18
BRANCH   5  28
ATOM     28  O   UNL     1      -0.223   0.830  -0.495  0.00  0.00    -0.391 OA
ATOM     29  H   UNL     1      -0.236  -0.136  -0.451  0.00  0.00    +0.210 HD
ENDBRANCH   5  28
BRANCH  15  30
ATOM     30  C   UNL     1       4.801   3.421   2.835  0.00  0.00    +0.106 C 
BRANCH  30  31
ATOM     31  C   UNL     1       6.265   3.758   2.953  0.00  0.00    +0.214 C 
ATOM     32  O   UNL     1       6.875   4.156   1.984  0.00  0.00    -0.276 OA
ATOM     33  N   UNL     1       6.896   3.617   4.135  0.00  0.00    -0.312 N 
ATOM     34  H   UNL     1       6.408   3.298   4.911  0.00  0.00    +0.149 HD
BRANCH  33  35
ATOM     35  C   UNL     1       8.320   3.945   4.250  0.00  0.00    +0.073 C 
ATOM     36  C   UNL     1       9.207   2.975   5.032  0.00  0.00    +0.024 C 
ATOM     37  C   UNL     1       8.846   4.336   5.632  0.00  0.00    +0.024 C 
ENDBRANCH  33  35
ENDBRANCH  30  31
ENDBRANCH  15  30
BRANCH   6  38
ATOM     38  C   UNL     1      -0.005   3.438   0.703  0.00  0.00    +0.165 C 
BRANCH  38  39
ATOM     39  O   UNL     1      -1.325   2.985   0.396  0.00  0.00    -0.394 OA
ATOM     40  H   UNL     1      -1.997   3.272   1.030  0.00  0.00    +0.209 HD
ENDBRANCH  38  39
ENDBRANCH   6  38
TORSDOF 9
