REMARK  Name = ZINC18199410
REMARK  4 active torsions:
REMARK  status: ('A' for Active; 'I' for Inactive)
REMARK    1  A    between atoms: C_3  and  O_27
REMARK    2  A    between atoms: C_6  and  C_7
REMARK    3  A    between atoms: O_27  and  C_28
REMARK    4  A    between atoms: C_28  and  C_29
REMARK                            x       y       z     vdW  Elec       q    Type
REMARK                         _______ _______ _______ _____ _____    ______ ____
ROOT
ATOM      1  C   UNL     1      -2.752   2.264   2.502  0.00  0.00    +0.092 C 
ATOM      2  C   UNL     1      -1.903   2.058   3.722  0.00  0.00    +0.067 A 
ATOM      3  C   UNL     1      -0.563   1.838   3.613  0.00  0.00    +0.113 A 
ATOM      4  N   UNL     1       0.190   1.659   4.748  0.00  0.00    -0.295 N 
ATOM      5  H   UNL     1       1.174   1.499   4.673  0.00  0.00    +0.172 HD
ATOM      6  C   UNL     1      -0.391   1.698   5.962  0.00  0.00    +0.328 A 
ATOM      7  O   UNL     1       0.290   1.539   6.957  0.00  0.00    -0.247 OA
ATOM      8  N   UNL     1      -1.713   1.910   6.090  0.00  0.00    -0.275 N 
ATOM      9  H   UNL     1      -2.125   1.934   7.001  0.00  0.00    +0.173 HD
ATOM     10  C   UNL     1      -2.487   2.090   5.002  0.00  0.00    +0.260 A 
ATOM     11  O   UNL     1      -3.685   2.281   5.125  0.00  0.00    -0.267 OA
ATOM     12  N   UNL     1       0.030   1.796   2.376  0.00  0.00    -0.303 N 
ATOM     13  C   UNL     1      -0.718   1.572   1.250  0.00  0.00    +0.017 C 
ATOM     14  C   UNL     1      -2.051   1.778   1.259  0.00  0.00    +0.024 C 
ATOM     15  C   UNL     1      -2.826   1.548   0.109  0.00  0.00    +0.162 C 
ATOM     16  O   UNL     1      -4.028   1.725   0.155  0.00  0.00    -0.292 OA
ATOM     17  C   UNL     1      -2.197   1.086  -1.177  0.00  0.00    +0.080 C 
ATOM     18  C   UNL     1      -0.752   1.592  -1.233  0.00  0.00    +0.014 C 
ATOM     19  C   UNL     1      -0.013   1.086   0.008  0.00  0.00    +0.051 C 
ATOM     20  H   UNL     1       0.988   1.927   2.298  0.00  0.00    +0.153 HD
ENDROOT
BRANCH   1  26
ATOM     21  C   UNL     1      -2.025   4.636   2.176  0.00  0.00    +0.008 A 
ATOM     22  C   UNL     1      -2.302   5.983   2.035  0.00  0.00    +0.046 A 
ATOM     23  C   UNL     1      -3.615   6.429   2.085  0.00  0.00    +0.121 A 
ATOM     24  C   UNL     1      -4.647   5.520   2.270  0.00  0.00    +0.046 A 
ATOM     25  C   UNL     1      -4.365   4.175   2.404  0.00  0.00    +0.008 A 
ATOM     26  C   UNL     1      -3.056   3.733   2.355  0.00  0.00    -0.035 A 
BRANCH  23  27
ATOM     27  O   UNL     1      -3.889   7.753   1.953  0.00  0.00    -0.481 OA
BRANCH  27  28
ATOM     28  C   UNL     1      -2.777   8.630   1.766  0.00  0.00    +0.353 C 
BRANCH  28  29
ATOM     29  C   UNL     1      -3.271  10.048   1.640  0.00  0.00    +0.393 C 
ATOM     30  O   UNL     1      -4.455  10.284   1.704  0.00  0.00    -0.243 OA
ATOM     31  O   UNL     1      -2.397  11.050   1.456  0.00  0.00    -0.243 OA
ENDBRANCH  28  29
ENDBRANCH  27  28
ENDBRANCH  23  27
ENDBRANCH   1  26
TORSDOF 4
