REMARK  Name = ZINC16623799
REMARK  6 active torsions:
REMARK  status: ('A' for Active; 'I' for Inactive)
REMARK    1  A    between atoms: C_1  and  C_2
REMARK    2  A    between atoms: C_5  and  C_8
REMARK    3  A    between atoms: C_8  and  C_28
REMARK    4  A    between atoms: N_11  and  C_15
REMARK    5  A    between atoms: C_15  and  C_16
REMARK    6  A    between atoms: C_18  and  C_21
REMARK                            x       y       z     vdW  Elec       q    Type
REMARK                         _______ _______ _______ _____ _____    ______ ____
ROOT
ATOM      1  C   UNL     1      -7.333  -0.010  -3.412  0.00  0.00    +0.135 C 
ATOM      2  C   UNL     1      -6.864  -0.515  -2.062  0.00  0.00    +0.251 C 
ATOM      3  O   UNL     1      -6.774  -1.670  -1.703  0.00  0.00    -0.272 OA
ATOM      4  N   UNL     1      -6.568   0.586  -1.343  0.00  0.00    -0.215 N 
ATOM      5  C   UNL     1      -6.786   1.705  -2.043  0.00  0.00    +0.310 C 
ATOM      6  O   UNL     1      -6.596   2.823  -1.605  0.00  0.00    -0.252 OA
ATOM      7  N   UNL     1      -7.237   1.455  -3.285  0.00  0.00    -0.281 N 
ATOM      8  C   UNL     1      -6.416  -0.518  -4.525  0.00  0.00    +0.047 C 
ATOM      9  H   UNL     1      -7.459   2.111  -3.964  0.00  0.00    +0.152 HD
ENDROOT
BRANCH   1  14
ATOM     10  C   UNL     1     -12.797  -1.611  -4.397  0.00  0.00    +0.044 C 
ATOM     11  C   UNL     1     -11.373  -1.194  -4.140  0.00  0.00    -0.050 A 
ATOM     12  C   UNL     1     -10.887  -0.020  -4.685  0.00  0.00    +0.004 A 
ATOM     13  C   UNL     1      -9.580   0.363  -4.449  0.00  0.00    +0.006 A 
ATOM     14  C   UNL     1      -8.758  -0.427  -3.668  0.00  0.00    -0.015 A 
ATOM     15  C   UNL     1      -9.242  -1.604  -3.127  0.00  0.00    +0.006 A 
ATOM     16  C   UNL     1     -10.550  -1.985  -3.359  0.00  0.00    +0.004 A 
ENDBRANCH   1  14
BRANCH   4  17
ATOM     17  C   UNL     1      -6.073   0.560   0.035  0.00  0.00    +0.216 C 
BRANCH  17  18
ATOM     18  C   UNL     1      -4.567   0.504   0.027  0.00  0.00    +0.246 A 
ATOM     19  N   UNL     1      -3.750   1.529   0.034  0.00  0.00    -0.190 NA
ATOM     20  C   UNL     1      -2.506   1.001   0.019  0.00  0.00    +0.202 A 
ATOM     21  N   UNL     1      -2.638  -0.300   0.013  0.00  0.00    -0.056 NA
ATOM     22  O   UNL     1      -3.813  -0.599   0.018  0.00  0.00    -0.336 OA
BRANCH  20  23
ATOM     23  C   UNL     1      -1.228   1.757   0.017  0.00  0.00    +0.024 A 
ATOM     24  C   UNL     1      -0.013   1.076   0.008  0.00  0.00    +0.012 A 
ATOM     25  C   UNL     1       1.173   1.783   0.000  0.00  0.00    +0.002 A 
ATOM     26  C   UNL     1       1.156   3.166   0.007  0.00  0.00    +0.020 A 
ATOM     27  C   UNL     1      -0.048   3.848   0.022  0.00  0.00    +0.042 A 
ATOM     28  C   UNL     1      -1.240   3.150   0.030  0.00  0.00    +0.031 A 
ATOM     29 CL   UNL     1      -0.061   5.584   0.029  0.00  0.00    -0.084 Cl
ENDBRANCH  20  23
ENDBRANCH  17  18
ENDBRANCH   4  17
TORSDOF 4
