REMARK  Name = ZINC01399966
REMARK  2 active torsions:
REMARK  status: ('A' for Active; 'I' for Inactive)
REMARK    1  A    between atoms: C_2  and  C_10
REMARK    2  A    between atoms: N_5  and  N_8
REMARK                            x       y       z     vdW  Elec       q    Type
REMARK                         _______ _______ _______ _____ _____    ______ ____
ROOT
ATOM      1  C   UNL     1      -0.017   1.402   0.010  0.00  0.00    +0.104 A 
ATOM      2  C   UNL     1       1.169   2.078   0.002  0.00  0.00    +0.152 A 
ATOM      3  N   UNL     1       2.319   1.408  -0.013  0.00  0.00    -0.211 NA
ATOM      4  C   UNL     1       2.345   0.090  -0.020  0.00  0.00    +0.213 A 
ATOM      5  N   UNL     1       1.195  -0.637  -0.013  0.00  0.00    -0.202 N 
ATOM      6  C   UNL     1       0.002  -0.004   0.002  0.00  0.00    +0.272 A 
ATOM      7  O   UNL     1      -1.039  -0.640   0.009  0.00  0.00    -0.266 OA
ATOM      8  N   UNL     1       3.550  -0.559  -0.035  0.00  0.00    -0.328 N 
ATOM      9  H   UNL     1       4.375  -0.049  -0.040  0.00  0.00    +0.145 HD
ATOM     10  H   UNL     1       3.579  -1.529  -0.040  0.00  0.00    +0.145 HD
ENDROOT
BRANCH   2  11
ATOM     11  C   UNL     1       1.176   3.584   0.010  0.00  0.00    +0.434 C 
ATOM     12  F   UNL     1      -0.141   4.057   0.024  0.00  0.00    -0.164 F 
ATOM     13  F   UNL     1       1.848   4.042   1.148  0.00  0.00    -0.164 F 
ATOM     14  F   UNL     1       1.827   4.053  -1.137  0.00  0.00    -0.164 F 
ENDBRANCH   2  11
BRANCH   5  15
ATOM     15  N   UNL     1       1.246  -2.002  -0.022  0.00  0.00    -0.293 N 
ATOM     16  H   UNL     1       0.319  -2.399  -0.015  0.00  0.00    +0.163 HD
ATOM     17  H   UNL     1       1.778  -2.338  -0.810  0.00  0.00    +0.163 HD
ENDBRANCH   5  15
TORSDOF 2
