REMARK  Name = ZINC60213527
REMARK  8 active torsions:
REMARK  status: ('A' for Active; 'I' for Inactive)
REMARK    1  A    between atoms: C_1  and  C_2
REMARK    2  A    between atoms: C_2  and  C_3
REMARK    3  A    between atoms: C_3  and  C_24
REMARK    4  A    between atoms: N_6  and  C_10
REMARK    5  A    between atoms: C_10  and  C_11
REMARK    6  A    between atoms: N_13  and  C_14
REMARK    7  A    between atoms: C_14  and  C_15
REMARK    8  A    between atoms: N_17  and  C_18
REMARK                            x       y       z     vdW  Elec       q    Type
REMARK                         _______ _______ _______ _____ _____    ______ ____
ROOT
ATOM      1  C   UNL     1       0.718  -0.497  -1.257  0.00  0.00    +0.138 C 
ATOM      2  C   UNL     1       0.081   0.093  -2.499  0.00  0.00    +0.251 C 
ATOM      3  O   UNL     1      -1.061  -0.057  -2.878  0.00  0.00    -0.272 OA
ATOM      4  N   UNL     1       1.047   0.819  -3.095  0.00  0.00    -0.215 N 
ATOM      5  C   UNL     1       2.195   0.770  -2.408  0.00  0.00    +0.310 C 
ATOM      6  O   UNL     1       3.210   1.345  -2.748  0.00  0.00    -0.252 OA
ATOM      7  N   UNL     1       2.099   0.013  -1.301  0.00  0.00    -0.281 N 
ATOM      8  H   UNL     1       2.803  -0.163  -0.657  0.00  0.00    +0.152 HD
ENDROOT
BRANCH   1   9
ATOM      9  C   UNL     1       0.707  -2.003  -1.315  0.00  0.00    -0.015 A 
ATOM     10  C   UNL     1      -0.340  -2.709  -0.752  0.00  0.00    +0.006 A 
ATOM     11  C   UNL     1      -0.350  -4.090  -0.806  0.00  0.00    +0.000 A 
ATOM     12  C   UNL     1       0.686  -4.766  -1.424  0.00  0.00    +0.000 A 
ATOM     13  C   UNL     1       1.732  -4.060  -1.988  0.00  0.00    +0.000 A 
ATOM     14  C   UNL     1       1.740  -2.679  -1.938  0.00  0.00    +0.006 A 
ENDBRANCH   1   9
BRANCH   1  16
ATOM     15  C   UNL     1      -0.019   1.526   0.010  0.00  0.00    +0.007 C 
ATOM     16  C   UNL     1       0.002  -0.004   0.002  0.00  0.00    +0.037 C 
ENDBRANCH   1  16
BRANCH   4  17
ATOM     17  C   UNL     1       0.864   1.569  -4.340  0.00  0.00    +0.213 C 
BRANCH  17  18
ATOM     18  C   UNL     1       0.403   2.967  -4.021  0.00  0.00    +0.231 C 
ATOM     19  O   UNL     1       0.243   3.305  -2.867  0.00  0.00    -0.274 OA
ATOM     20  N   UNL     1       0.169   3.843  -5.018  0.00  0.00    -0.305 N 
ATOM     21  H   UNL     1       0.296   3.573  -5.941  0.00  0.00    +0.149 HD
BRANCH  20  22
ATOM     22  C   UNL     1      -0.280   5.203  -4.708  0.00  0.00    +0.200 C 
BRANCH  22  23
ATOM     23  C   UNL     1      -0.468   5.974  -5.989  0.00  0.00    +0.230 C 
ATOM     24  O   UNL     1      -0.249   5.441  -7.056  0.00  0.00    -0.274 OA
ATOM     25  N   UNL     1      -0.879   7.257  -5.949  0.00  0.00    -0.311 N 
ATOM     26  H   UNL     1      -1.054   7.684  -5.096  0.00  0.00    +0.149 HD
BRANCH  25  27
ATOM     27  C   UNL     1      -1.062   8.007  -7.195  0.00  0.00    +0.073 C 
ATOM     28  C   UNL     1       0.277   8.603  -7.632  0.00  0.00    +0.022 C 
ATOM     29  C   UNL     1       0.086   9.386  -8.933  0.00  0.00    +0.002 C 
ATOM     30  C   UNL     1      -0.925  10.512  -8.706  0.00  0.00    +0.000 C 
ATOM     31  C   UNL     1      -2.264   9.916  -8.269  0.00  0.00    +0.002 C 
ATOM     32  C   UNL     1      -2.073   9.133  -6.968  0.00  0.00    +0.022 C 
ENDBRANCH  25  27
ENDBRANCH  22  23
ENDBRANCH  20  22
ENDBRANCH  17  18
ENDBRANCH   4  17
TORSDOF 7
