REMARK  Name = ZINC20028232
REMARK  9 active torsions:
REMARK  status: ('A' for Active; 'I' for Inactive)
REMARK    1  A    between atoms: C_1  and  C_2
REMARK    2  A    between atoms: C_2  and  C_3
REMARK    3  A    between atoms: C_3  and  C_4
REMARK    4  A    between atoms: C_10  and  N_12
REMARK    5  A    between atoms: N_15  and  C_16
REMARK    6  A    between atoms: C_18  and  O_24
REMARK    7  A    between atoms: C_20  and  O_22
REMARK    8  A    between atoms: O_22  and  C_23
REMARK    9  A    between atoms: O_24  and  C_25
REMARK                            x       y       z     vdW  Elec       q    Type
REMARK                         _______ _______ _______ _____ _____    ______ ____
ROOT
ATOM      1  N   UNL     1      -0.676  -4.576  -2.473  0.00  0.00    -0.179 NA
ATOM      2  C   UNL     1      -0.732  -3.702  -3.463  0.00  0.00    +0.203 C 
ATOM      3  N   UNL     1      -0.118  -3.977  -4.652  0.00  0.00    -0.369 N 
ATOM      4  N   UNL     1      -1.404  -2.523  -3.298  0.00  0.00    -0.326 N 
ATOM      5  H   UNL     1       0.274  -4.851  -4.805  0.00  0.00    +0.159 HD
ATOM      6  H   UNL     1      -1.773  -2.293  -2.430  0.00  0.00    +0.169 HD
ATOM      7  H   UNL     1      -0.074  -3.298  -5.344  0.00  0.00    +0.159 HD
ENDROOT
BRANCH   1  14
ATOM      8  C   UNL     1      -3.450  -3.535  -0.552  0.00  0.00    +0.050 A 
ATOM      9  C   UNL     1      -3.354  -4.335   0.552  0.00  0.00    +0.093 A 
ATOM     10  C   UNL     1      -2.301  -5.261   0.634  0.00  0.00    +0.253 A 
ATOM     11  O   UNL     1      -2.189  -5.990   1.606  0.00  0.00    -0.268 OA
ATOM     12  N   UNL     1      -1.415  -5.330  -0.383  0.00  0.00    -0.291 N 
ATOM     13  H   UNL     1      -0.680  -5.963  -0.347  0.00  0.00    +0.172 HD
ATOM     14  C   UNL     1      -1.559  -4.505  -1.464  0.00  0.00    +0.234 A 
ATOM     15  N   UNL     1      -2.560  -3.639  -1.532  0.00  0.00    -0.217 NA
BRANCH   8  16
ATOM     16  C   UNL     1      -4.572  -2.535  -0.659  0.00  0.00    +0.055 C 
BRANCH  16  18
ATOM     17  C   UNL     1      -5.228  -0.155  -0.277  0.00  0.00    +0.004 C 
ATOM     18  C   UNL     1      -4.088  -1.170  -0.168  0.00  0.00    +0.003 C 
ENDBRANCH  16  18
ENDBRANCH   8  16
ENDBRANCH   1  14
BRANCH   4  19
ATOM     19  C   UNL     1      -1.560  -1.649  -4.378  0.00  0.00    +0.049 A 
ATOM     20  C   UNL     1      -1.691  -2.152  -5.665  0.00  0.00    +0.071 A 
ATOM     21  C   UNL     1      -1.845  -1.285  -6.736  0.00  0.00    +0.126 A 
ATOM     22  C   UNL     1      -1.868   0.085  -6.522  0.00  0.00    +0.091 A 
ATOM     23  C   UNL     1      -1.737   0.588  -5.236  0.00  0.00    +0.126 A 
ATOM     24  C   UNL     1      -1.588  -0.278  -4.164  0.00  0.00    +0.071 A 
BRANCH  23  25
ATOM     25  O   UNL     1      -1.759   1.931  -5.027  0.00  0.00    -0.495 OA
ATOM     26  C   UNL     1      -1.921   2.764  -6.176  0.00  0.00    +0.277 C 
ENDBRANCH  23  25
BRANCH  21  27
ATOM     27  O   UNL     1      -1.974  -1.778  -7.996  0.00  0.00    -0.495 OA
ATOM     28  C   UNL     1      -2.129  -0.827  -9.052  0.00  0.00    +0.277 C 
ENDBRANCH  21  27
ENDBRANCH   4  19
TORSDOF 6
