REMARK  Name = ZINC16951845
REMARK  10 active torsions:
REMARK  status: ('A' for Active; 'I' for Inactive)
REMARK    1  A    between atoms: C_1  and  C_2
REMARK    2  A    between atoms: C_2  and  N_11
REMARK    3  A    between atoms: N_11  and  N_12
REMARK    4  A    between atoms: C_13  and  C_15
REMARK    5  A    between atoms: C_15  and  N_28
REMARK    6  A    between atoms: C_16  and  C_17
REMARK    7  A    between atoms: C_20  and  O_26
REMARK    8  A    between atoms: C_21  and  N_23
REMARK    9  A    between atoms: O_26  and  C_27
REMARK   10  A    between atoms: C_29  and  C_31
REMARK                            x       y       z     vdW  Elec       q    Type
REMARK                         _______ _______ _______ _____ _____    ______ ____
ROOT
ATOM      1  C   UNL     1      -0.261  -4.156  -2.257  0.00  0.00    +0.098 C 
ATOM      2  C   UNL     1       0.046  -4.716  -3.451  0.00  0.00    +0.036 C 
ENDROOT
BRANCH   2   3
ATOM      3  C   UNL     1      -0.018  -6.175  -3.618  0.00  0.00    -0.021 A 
ATOM      4  C   UNL     1      -0.889  -6.934  -2.828  0.00  0.00    +0.012 A 
ATOM      5  C   UNL     1      -0.946  -8.300  -2.988  0.00  0.00    +0.048 A 
ATOM      6  C   UNL     1      -0.140  -8.926  -3.932  0.00  0.00    +0.150 A 
ATOM      7  C   UNL     1       0.727  -8.177  -4.719  0.00  0.00    +0.168 A 
ATOM      8  C   UNL     1       0.787  -6.809  -4.570  0.00  0.00    +0.044 A 
BRANCH   7   9
ATOM      9  N   UNL     1       1.582  -8.850  -5.722  0.00  0.00    +0.060 N 
ATOM     10  O   UNL     1       2.336  -8.199  -6.407  0.00  0.00    -0.126 OA
ATOM     11  O   UNL     1       1.526 -10.050  -5.857  0.00  0.00    -0.126 OA
ENDBRANCH   7   9
BRANCH   6  12
ATOM     12  O   UNL     1      -0.200 -10.274  -4.086  0.00  0.00    -0.493 OA
ATOM     13  C   UNL     1      -1.112 -10.983  -3.245  0.00  0.00    +0.277 C 
ENDBRANCH   6  12
ENDBRANCH   2   3
BRANCH   1  15
ATOM     14  N   UNL     1      -0.530  -2.134  -0.918  0.00  0.00    -0.232 N 
ATOM     15  C   UNL     1      -0.340  -2.696  -2.129  0.00  0.00    +0.274 C 
ATOM     16  O   UNL     1      -0.233  -1.992  -3.116  0.00  0.00    -0.267 OA
ATOM     17  H   UNL     1      -0.687  -2.696  -0.143  0.00  0.00    +0.173 HD
BRANCH  14  18
ATOM     18  N   UNL     1      -0.500  -0.741  -0.780  0.00  0.00    -0.268 N 
ATOM     19  H   UNL     1      -0.420  -0.177  -1.565  0.00  0.00    +0.170 HD
BRANCH  18  21
ATOM     20  C   UNL     1      -0.602  -1.060   1.667  0.00  0.00    +0.063 C 
ATOM     21  C   UNL     1      -0.583  -0.185   0.440  0.00  0.00    +0.030 C 
ATOM     22  C   UNL     1      -0.652   1.202   0.572  0.00  0.00    +0.040 C 
ATOM     23  C   UNL     1      -0.926   1.782   1.831  0.00  0.00    +0.017 C 
ATOM     24  C   UNL     1      -0.992   3.130   1.956  0.00  0.00    +0.051 C 
ATOM     25  C   UNL     1      -0.789   3.958   0.833  0.00  0.00    +0.183 C 
ATOM     26  O   UNL     1      -0.850   5.175   0.953  0.00  0.00    -0.288 OA
ATOM     27  C   UNL     1      -0.516   3.392  -0.422  0.00  0.00    +0.102 C 
ATOM     28  C   UNL     1      -0.441   2.035  -0.557  0.00  0.00    +0.191 C 
ATOM     29  O   UNL     1      -0.173   1.486  -1.766  0.00  0.00    -0.287 OA
ENDBRANCH  18  21
ENDBRANCH  14  18
ENDBRANCH   1  15
BRANCH   1  30
ATOM     30  N   UNL     1      -0.503  -4.970  -1.145  0.00  0.00    -0.277 N 
ATOM     31  C   UNL     1      -1.672  -4.875  -0.482  0.00  0.00    +0.248 C 
ATOM     32  O   UNL     1      -2.545  -4.134  -0.892  0.00  0.00    -0.270 OA
ATOM     33  H   UNL     1       0.172  -5.603  -0.851  0.00  0.00    +0.155 HD
BRANCH  31  34
ATOM     34  C   UNL     1      -1.895  -5.672   0.743  0.00  0.00    +0.037 A 
ATOM     35  C   UNL     1      -0.856  -6.433   1.282  0.00  0.00    +0.013 A 
ATOM     36  C   UNL     1      -1.070  -7.175   2.425  0.00  0.00    +0.001 A 
ATOM     37  C   UNL     1      -2.311  -7.166   3.037  0.00  0.00    +0.000 A 
ATOM     38  C   UNL     1      -3.345  -6.414   2.507  0.00  0.00    +0.001 A 
ATOM     39  C   UNL     1      -3.142  -5.663   1.368  0.00  0.00    +0.013 A 
ENDBRANCH  31  34
ENDBRANCH   1  30
TORSDOF 8
