REMARK  Name = ZINC06703765
REMARK  4 active torsions:
REMARK  status: ('A' for Active; 'I' for Inactive)
REMARK    1  A    between atoms: C_1  and  C_2
REMARK    2  A    between atoms: C_7  and  C_9
REMARK    3  A    between atoms: C_7  and  C_10
REMARK    4  A    between atoms: N_14  and  C_16
REMARK                            x       y       z     vdW  Elec       q    Type
REMARK                         _______ _______ _______ _____ _____    ______ ____
ROOT
ATOM      1  C   UNL     1      -1.689   1.193  -0.542  0.00  0.00    +0.007 C 
ATOM      2  C   UNL     1      -1.076  -0.200  -0.388  0.00  0.00    -0.010 C 
ATOM      3  C   UNL     1      -2.171  -1.200  -0.007  0.00  0.00    +0.046 C 
ATOM      4  C   UNL     1      -1.558  -2.586   0.165  0.00  0.00    +0.104 C 
ATOM      5  C   UNL     1      -0.481  -2.565   1.245  0.00  0.00    +0.049 C 
ATOM      6  C   UNL     1       0.609  -1.561   0.860  0.00  0.00    -0.031 C 
ATOM      7  C   UNL     1      -0.011  -0.171   0.710  0.00  0.00    +0.010 C 
ATOM      8  C   UNL     1       1.245  -1.982  -0.466  0.00  0.00    +0.011 C 
ATOM      9  C   UNL     1       1.679  -1.528   1.953  0.00  0.00    +0.011 C 
ATOM     10  N   UNL     1      -2.598  -3.568   0.497  0.00  0.00    -0.279 N 
ATOM     11  C   UNL     1      -2.599  -4.479  -0.495  0.00  0.00    +0.322 C 
ATOM     12  O   UNL     1      -3.344  -5.440  -0.538  0.00  0.00    -0.251 OA
ATOM     13  N   UNL     1      -1.680  -4.197  -1.428  0.00  0.00    -0.187 N 
ATOM     14  N   UNL     1      -0.994  -3.058  -1.111  0.00  0.00    -0.209 NA
ATOM     15  H   UNL     1      -3.172  -3.562   1.278  0.00  0.00    +0.152 HD
ATOM     16  H   UNL     1      -1.099  -2.360  -1.833  0.00  0.00    +0.147 HD
ENDROOT
BRANCH  13  17
ATOM     17  C   UNL     1      -1.452  -4.966  -2.575  0.00  0.00    +0.054 A 
ATOM     18  C   UNL     1      -2.521  -5.381  -3.358  0.00  0.00    +0.025 A 
ATOM     19  C   UNL     1      -2.293  -6.140  -4.489  0.00  0.00    +0.002 A 
ATOM     20  C   UNL     1      -1.001  -6.486  -4.842  0.00  0.00    +0.000 A 
ATOM     21  C   UNL     1       0.065  -6.075  -4.064  0.00  0.00    +0.002 A 
ATOM     22  C   UNL     1      -0.156  -5.312  -2.934  0.00  0.00    +0.025 A 
ENDBRANCH  13  17
TORSDOF 1
