REMARK  Name = ZINC22984326
REMARK  6 active torsions:
REMARK  status: ('A' for Active; 'I' for Inactive)
REMARK    1  A    between atoms: C_1  and  C_2
REMARK    2  A    between atoms: C_5  and  N_9
REMARK    3  A    between atoms: C_6  and  C_8
REMARK    4  A    between atoms: C_13  and  C_15
REMARK    5  A    between atoms: C_15  and  N_16
REMARK    6  A    between atoms: C_23  and  C_26
REMARK                            x       y       z     vdW  Elec       q    Type
REMARK                         _______ _______ _______ _____ _____    ______ ____
ROOT
ATOM      1  C   UNL     1      -1.283  -0.710   0.011  0.00  0.00    +0.222 C 
ENDROOT
BRANCH   1   2
ATOM      2  N   UNL     1      -0.017   0.026   0.004  0.00  0.00    -0.290 N 
ATOM      3  C   UNL     1       1.154  -0.662   0.000  0.00  0.00    +0.203 A 
ATOM      4  N   UNL     1       2.302  -0.041  -0.007  0.00  0.00    -0.230 NA
ATOM      5  C   UNL     1       2.363   1.289  -0.011  0.00  0.00    +0.116 A 
ATOM      6  C   UNL     1       1.205   2.084  -0.008  0.00  0.00    +0.080 A 
ATOM      7  C   UNL     1      -0.036   1.372  -0.000  0.00  0.00    +0.263 A 
ATOM      8  O   UNL     1      -1.096   1.976  -0.002  0.00  0.00    -0.267 OA
ATOM      9  C   UNL     1       1.444   3.522  -0.012  0.00  0.00    +0.004 A 
ATOM     10  C   UNL     1       2.723   3.970  -0.019  0.00  0.00    +0.056 A 
ATOM     11  S   UNL     1       3.686   2.471  -0.019  0.00  0.00    -0.076 S 
BRANCH   9  12
ATOM     12  C   UNL     1       0.310   4.477  -0.010  0.00  0.00    -0.016 A 
ATOM     13  C   UNL     1      -0.725   4.334  -0.934  0.00  0.00    +0.011 A 
ATOM     14  C   UNL     1      -1.782   5.222  -0.924  0.00  0.00    +0.039 A 
ATOM     15  C   UNL     1      -1.810   6.260  -0.007  0.00  0.00    +0.123 A 
ATOM     16  C   UNL     1      -0.781   6.408   0.909  0.00  0.00    +0.039 A 
ATOM     17  C   UNL     1       0.277   5.522   0.911  0.00  0.00    +0.011 A 
ATOM     18  F   UNL     1      -2.843   7.129  -0.006  0.00  0.00    -0.205 F 
ENDBRANCH   9  12
ENDBRANCH   1   2
BRANCH   1  23
ATOM     19  N   UNL     1      -4.409  -2.530  -3.155  0.00  0.00    -0.269 N 
ATOM     20  C   UNL     1      -3.263  -1.863  -2.916  0.00  0.00    +0.310 C 
ATOM     21  O   UNL     1      -2.584  -1.469  -3.843  0.00  0.00    -0.252 OA
ATOM     22  N   UNL     1      -2.869  -1.634  -1.647  0.00  0.00    -0.238 N 
ATOM     23  C   UNL     1      -1.723  -0.967  -1.407  0.00  0.00    +0.240 C 
ATOM     24  O   UNL     1      -1.046  -0.573  -2.333  0.00  0.00    -0.273 OA
ATOM     25  H   UNL     1      -4.976  -2.967  -2.320  0.00  0.00    +0.156 HD
ATOM     26  H   UNL     1      -3.484  -1.991  -0.808  0.00  0.00    +0.159 HD
BRANCH  19  31
ATOM     27  C   UNL     1      -6.311  -3.083  -8.472  0.00  0.00    +0.044 C 
ATOM     28  C   UNL     1      -5.806  -2.936  -7.059  0.00  0.00    -0.050 A 
ATOM     29  C   UNL     1      -4.976  -1.879  -6.730  0.00  0.00    +0.005 A 
ATOM     30  C   UNL     1      -4.512  -1.742  -5.436  0.00  0.00    +0.024 A 
ATOM     31  C   UNL     1      -4.878  -2.666  -4.467  0.00  0.00    +0.038 A 
ATOM     32  C   UNL     1      -5.707  -3.728  -4.802  0.00  0.00    -0.029 A 
ATOM     33  C   UNL     1      -6.173  -3.857  -6.096  0.00  0.00    +0.008 A 
ATOM     34  C   UNL     1      -6.103  -4.737  -3.754  0.00  0.00    +0.045 C 
ENDBRANCH  19  31
ENDBRANCH   1  23
TORSDOF 4
