REMARK  Name = ZINC04111049
REMARK  10 active torsions:
REMARK  status: ('A' for Active; 'I' for Inactive)
REMARK    1  A    between atoms: C_1  and  O_2
REMARK    2  A    between atoms: O_2  and  C_3
REMARK    3  A    between atoms: C_8  and  O_9
REMARK    4  A    between atoms: O_9  and  C_10
REMARK    5  A    between atoms: N_11  and  C_24
REMARK    6  A    between atoms: N_14  and  C_17
REMARK    7  A    between atoms: C_17  and  C_18
REMARK    8  A    between atoms: C_24  and  C_25
REMARK    9  A    between atoms: N_27  and  C_28
REMARK   10  A    between atoms: C_28  and  C_29
REMARK                            x       y       z     vdW  Elec       q    Type
REMARK                         _______ _______ _______ _____ _____    ______ ____
ROOT
ATOM      1  C   UNL     1      -1.202  -0.638   0.010  0.00  0.00    +0.162 A 
ATOM      2  C   UNL     1      -2.368   0.101   0.019  0.00  0.00    +0.064 A 
ATOM      3  C   UNL     1      -3.598  -0.557   0.028  0.00  0.00    +0.067 A 
ATOM      4  C   UNL     1      -3.648  -1.963   0.026  0.00  0.00    +0.063 A 
ATOM      5  C   UNL     1      -2.472  -2.693   0.017  0.00  0.00    +0.076 A 
ATOM      6  C   UNL     1      -1.253  -2.034   0.003  0.00  0.00    +0.163 A 
ATOM      7  N   UNL     1      -4.889  -2.587   0.034  0.00  0.00    -0.284 N 
ATOM      8  C   UNL     1      -6.020  -1.861   0.043  0.00  0.00    +0.333 A 
ATOM      9  O   UNL     1      -7.087  -2.444   0.049  0.00  0.00    -0.246 OA
ATOM     10  N   UNL     1      -6.022  -0.519   0.045  0.00  0.00    -0.256 N 
ATOM     11  C   UNL     1      -4.869   0.185   0.037  0.00  0.00    +0.265 A 
ATOM     12  O   UNL     1      -4.881   1.401   0.039  0.00  0.00    -0.267 OA
ENDROOT
BRANCH   1  14
ATOM     13  C   UNL     1      -0.017   1.425   0.010  0.00  0.00    +0.277 C 
ATOM     14  O   UNL     1       0.002  -0.004   0.002  0.00  0.00    -0.491 OA
ENDBRANCH   1  14
BRANCH   6  15
ATOM     15  O   UNL     1      -0.099  -2.750  -0.012  0.00  0.00    -0.491 OA
ATOM     16  C   UNL     1      -0.220  -4.174  -0.018  0.00  0.00    +0.277 C 
ENDBRANCH   6  15
BRANCH  10  17
ATOM     17  C   UNL     1      -7.300   0.197   0.054  0.00  0.00    +0.165 C 
BRANCH  17  18
ATOM     18  C   UNL     1      -7.729   0.441   1.478  0.00  0.00    -0.028 A 
ATOM     19  C   UNL     1      -8.506  -0.494   2.136  0.00  0.00    +0.005 A 
ATOM     20  C   UNL     1      -8.899  -0.271   3.442  0.00  0.00    +0.000 A 
ATOM     21  C   UNL     1      -8.515   0.887   4.091  0.00  0.00    +0.000 A 
ATOM     22  C   UNL     1      -7.737   1.822   3.434  0.00  0.00    +0.000 A 
ATOM     23  C   UNL     1      -7.340   1.597   2.129  0.00  0.00    +0.005 A 
ENDBRANCH  17  18
ENDBRANCH  10  17
BRANCH   7  24
ATOM     24  C   UNL     1      -4.966  -4.050   0.033  0.00  0.00    +0.222 C 
BRANCH  24  25
ATOM     25  C   UNL     1      -4.983  -4.553   1.454  0.00  0.00    +0.233 C 
ATOM     26  O   UNL     1      -4.935  -3.768   2.376  0.00  0.00    -0.274 OA
ATOM     27  N   UNL     1      -5.050  -5.877   1.699  0.00  0.00    -0.311 N 
ATOM     28  H   UNL     1      -5.089  -6.506   0.961  0.00  0.00    +0.149 HD
BRANCH  27  29
ATOM     29  C   UNL     1      -5.066  -6.366   3.080  0.00  0.00    +0.135 C 
BRANCH  29  30
ATOM     30  C   UNL     1      -5.147  -7.894   3.079  0.00  0.00    +0.135 C 
ATOM     31  C   UNL     1      -5.200  -8.431   4.531  0.00  0.00    +0.035 C 
ATOM     32  C   UNL     1      -5.905  -9.798   4.314  0.00  0.00    +0.031 C 
ATOM     33  C   UNL     1      -6.872  -9.487   3.152  0.00  0.00    +0.160 C 
ATOM     34  O   UNL     1      -6.373  -8.329   2.470  0.00  0.00    -0.375 OA
ENDBRANCH  29  30
ENDBRANCH  27  29
ENDBRANCH  24  25
ENDBRANCH   7  24
TORSDOF 8
