REMARK  Name = ZINC37928648
REMARK  4 active torsions:
REMARK  status: ('A' for Active; 'I' for Inactive)
REMARK    1  A    between atoms: C_3  and  N_17
REMARK    2  A    between atoms: C_4  and  S_8
REMARK    3  A    between atoms: S_8  and  N_11
REMARK    4  A    between atoms: N_11  and  C_12
REMARK                            x       y       z     vdW  Elec       q    Type
REMARK                         _______ _______ _______ _____ _____    ______ ____
ROOT
ATOM      1  C   UNL     1      -0.017   1.379   0.010  0.00  0.00    +0.017 A 
ATOM      2  C   UNL     1       1.169   2.087   0.002  0.00  0.00    +0.026 A 
ATOM      3  C   UNL     1       2.381   1.409  -0.013  0.00  0.00    +0.052 A 
ATOM      4  C   UNL     1       2.397   0.020  -0.021  0.00  0.00    +0.132 A 
ATOM      5  C   UNL     1       1.208  -0.682  -0.013  0.00  0.00    +0.046 A 
ATOM      6  C   UNL     1       0.002  -0.004   0.002  0.00  0.00    +0.020 A 
ATOM      7 BR   UNL     1      -1.624  -0.970   0.012  0.00  0.00    -0.050 Br
ENDROOT
BRANCH   4   8
ATOM      8  S   UNL     1       3.932  -0.844  -0.041  0.00  0.00    +0.095 S 
ATOM      9  O   UNL     1       4.736  -0.268   0.980  0.00  0.00    -0.148 OA
ATOM     10  O   UNL     1       3.618  -2.230  -0.072  0.00  0.00    -0.148 OA
BRANCH   8  11
ATOM     11  N   UNL     1       4.673  -0.494  -1.480  0.00  0.00    -0.070 NA
BRANCH  11  12
ATOM     12  C   UNL     1       5.911  -1.043  -1.773  0.00  0.00    +0.201 A 
ATOM     13  N   UNL     1       6.639  -1.858  -1.040  0.00  0.00    -0.231 NA
ATOM     14  C   UNL     1       7.810  -2.297  -1.467  0.00  0.00    +0.120 A 
ATOM     15  C   UNL     1       8.222  -1.869  -2.685  0.00  0.00    +0.068 A 
ATOM     16  S   UNL     1       6.846  -0.834  -3.157  0.00  0.00    -0.058 S 
ENDBRANCH  11  12
ENDBRANCH   8  11
ENDBRANCH   4   8
BRANCH   3  17
ATOM     17  N   UNL     1       3.582   2.123  -0.021  0.00  0.00    -0.356 N 
ATOM     18  H   UNL     1       3.570   3.093  -0.016  0.00  0.00    +0.142 HD
ATOM     19  H   UNL     1       4.428   1.649  -0.032  0.00  0.00    +0.142 HD
ENDBRANCH   3  17
TORSDOF 4
