REMARK  Name = ZINC04144338
REMARK  3 active torsions:
REMARK  status: ('A' for Active; 'I' for Inactive)
REMARK    1  A    between atoms: C_4  and  N_7
REMARK    2  A    between atoms: C_9  and  C_17
REMARK    3  A    between atoms: C_10  and  C_12
REMARK                            x       y       z     vdW  Elec       q    Type
REMARK                         _______ _______ _______ _____ _____    ______ ____
ROOT
ATOM      1  C   UNL     1       5.745  -3.626  -0.081  0.00  0.00    +0.096 C 
ATOM      2  C   UNL     1       5.337  -4.374   1.153  0.00  0.00    +0.069 A 
ATOM      3  C   UNL     1       4.356  -5.369   1.091  0.00  0.00    +0.137 A 
ATOM      4  N   UNL     1       4.001  -6.018   2.195  0.00  0.00    -0.178 NA
ATOM      5  C   UNL     1       4.570  -5.735   3.364  0.00  0.00    +0.350 A 
ATOM      6  N   UNL     1       5.521  -4.788   3.465  0.00  0.00    -0.273 N 
ATOM      7  C   UNL     1       5.918  -4.091   2.358  0.00  0.00    +0.260 A 
ATOM      8  O   UNL     1       6.869  -3.138   2.454  0.00  0.00    -0.267 OA
ATOM      9  O   UNL     1       4.224  -6.346   4.362  0.00  0.00    -0.245 OA
ATOM     10  N   UNL     1       3.768  -5.670  -0.119  0.00  0.00    -0.302 N 
ATOM     11  C   UNL     1       4.375  -5.317  -1.295  0.00  0.00    +0.017 C 
ATOM     12  C   UNL     1       5.317  -4.354  -1.330  0.00  0.00    +0.024 C 
ATOM     13  C   UNL     1       5.933  -3.991  -2.542  0.00  0.00    +0.162 C 
ATOM     14  C   UNL     1       5.551  -4.645  -3.841  0.00  0.00    +0.080 C 
ATOM     15  C   UNL     1       4.093  -5.111  -3.753  0.00  0.00    +0.014 C 
ATOM     16  C   UNL     1       3.959  -6.044  -2.551  0.00  0.00    +0.051 C 
ATOM     17  O   UNL     1       6.792  -3.131  -2.538  0.00  0.00    -0.292 OA
ATOM     18  H   UNL     1       2.918  -6.137  -0.138  0.00  0.00    +0.153 HD
ATOM     19  H   UNL     1       5.925  -4.598   4.326  0.00  0.00    +0.173 HD
ENDROOT
BRANCH   1  22
ATOM     20  N   UNL     1       3.623  -0.651  -0.037  0.00  0.00    -0.239 N 
ATOM     21  C   UNL     1       3.784  -2.001  -0.051  0.00  0.00    +0.119 A 
ATOM     22  C   UNL     1       5.109  -2.260  -0.063  0.00  0.00    +0.011 A 
ATOM     23  C   UNL     1       5.793  -1.026  -0.057  0.00  0.00    +0.104 A 
ATOM     24  N   UNL     1       4.894  -0.062  -0.046  0.00  0.00    -0.166 NA
BRANCH  20  28
ATOM     25  C   UNL     1      -0.017   1.379   0.010  0.00  0.00    +0.000 A 
ATOM     26  C   UNL     1       1.170   2.089   0.002  0.00  0.00    +0.002 A 
ATOM     27  C   UNL     1       2.377   1.419  -0.013  0.00  0.00    +0.028 A 
ATOM     28  C   UNL     1       2.400   0.031  -0.021  0.00  0.00    +0.065 A 
ATOM     29  C   UNL     1       1.206  -0.680  -0.013  0.00  0.00    +0.028 A 
ATOM     30  C   UNL     1       0.002  -0.004   0.002  0.00  0.00    +0.002 A 
ENDBRANCH  20  28
BRANCH  23  31
ATOM     31  C   UNL     1       7.260  -0.846  -0.065  0.00  0.00    +0.040 A 
ATOM     32  C   UNL     1       8.005   0.133  -0.667  0.00  0.00    +0.018 A 
ATOM     33  C   UNL     1       9.377   0.096  -0.536  0.00  0.00    +0.008 A 
ATOM     34  C   UNL     1       9.946  -0.906   0.182  0.00  0.00    +0.046 A 
ATOM     35  S   UNL     1       8.521  -1.843   0.712  0.00  0.00    -0.095 S 
ENDBRANCH  23  31
ENDBRANCH   1  22
TORSDOF 3
