REMARK  Name = ZINC34907195
REMARK  5 active torsions:
REMARK  status: ('A' for Active; 'I' for Inactive)
REMARK    1  A    between atoms: N_9  and  C_10
REMARK    2  A    between atoms: C_18  and  N_21
REMARK    3  A    between atoms: C_22  and  C_24
REMARK    4  A    between atoms: C_24  and  C_25
REMARK    5  A    between atoms: C_25  and  C_26
REMARK                            x       y       z     vdW  Elec       q    Type
REMARK                         _______ _______ _______ _____ _____    ______ ____
ROOT
ATOM      1  C   UNL     1       1.555   2.197   0.034  0.00  0.00    +0.002 A 
ATOM      2  C   UNL     1       0.290   1.630   0.076  0.00  0.00    +0.002 A 
ATOM      3  C   UNL     1       0.138   0.259   0.069  0.00  0.00    +0.028 A 
ATOM      4  C   UNL     1       1.257  -0.559   0.019  0.00  0.00    +0.068 A 
ATOM      5  C   UNL     1       2.540   0.010  -0.025  0.00  0.00    +0.065 A 
ATOM      6  C   UNL     1       2.677   1.400  -0.017  0.00  0.00    +0.028 A 
ATOM      7  N   UNL     1       3.431  -1.016  -0.068  0.00  0.00    -0.327 N 
ATOM      8  C   UNL     1       2.789  -2.157  -0.055  0.00  0.00    +0.177 A 
ATOM      9  N   UNL     1       1.443  -1.932  -0.002  0.00  0.00    -0.310 N 
ATOM     10  N   UNL     1       3.383  -3.401  -0.089  0.00  0.00    -0.301 N 
ATOM     11  C   UNL     1       4.829  -3.659  -0.219  0.00  0.00    +0.110 C 
ATOM     12  C   UNL     1       5.037  -5.064   0.401  0.00  0.00    +0.043 C 
ATOM     13  C   UNL     1       3.750  -5.800  -0.055  0.00  0.00    +0.092 C 
ATOM     14  C   UNL     1       2.680  -4.689   0.003  0.00  0.00    +0.130 C 
ATOM     15  H   UNL     1       4.395  -0.917  -0.104  0.00  0.00    +0.169 HD
ENDROOT
BRANCH   9  16
ATOM     16  C   UNL     1       0.392  -2.952   0.029  0.00  0.00    +0.090 C 
ATOM     17  C   UNL     1      -0.499  -2.831  -1.224  0.00  0.00    +0.025 C 
ATOM     18  C   UNL     1      -1.925  -3.149  -0.710  0.00  0.00    +0.002 C 
ATOM     19  C   UNL     1      -1.942  -2.476   0.685  0.00  0.00    +0.002 C 
ATOM     20  C   UNL     1      -0.526  -2.726   1.244  0.00  0.00    +0.025 C 
ENDBRANCH   9  16
BRANCH  13  21
ATOM     21  N   UNL     1       3.420  -6.887   0.869  0.00  0.00    -0.311 N 
ATOM     22  C   UNL     1       3.970  -8.106   0.701  0.00  0.00    +0.213 C 
ATOM     23  O   UNL     1       4.739  -8.302  -0.216  0.00  0.00    -0.276 OA
ATOM     24  H   UNL     1       2.805  -6.730   1.603  0.00  0.00    +0.149 HD
BRANCH  22  25
ATOM     25  C   UNL     1       3.630  -9.224   1.652  0.00  0.00    +0.096 C 
BRANCH  25  26
ATOM     26  C   UNL     1       4.383 -10.491   1.240  0.00  0.00    +0.013 C 
BRANCH  26  27
ATOM     27  C   UNL     1       4.038 -11.626   2.205  0.00  0.00    -0.011 C 
ATOM     28  C   UNL     1       4.619 -11.326   3.603  0.00  0.00    +0.003 C 
ATOM     29  C   UNL     1       5.077 -12.709   4.129  0.00  0.00    +0.000 C 
ATOM     30  C   UNL     1       5.643 -13.388   2.857  0.00  0.00    +0.000 C 
ATOM     31  C   UNL     1       4.690 -12.938   1.731  0.00  0.00    +0.003 C 
ENDBRANCH  26  27
ENDBRANCH  25  26
ENDBRANCH  22  25
ENDBRANCH  13  21
TORSDOF 5
