REMARK  Name = ZINC45725008
REMARK  8 active torsions:
REMARK  status: ('A' for Active; 'I' for Inactive)
REMARK    1  A    between atoms: C_1  and  C_2
REMARK    2  A    between atoms: C_2  and  C_3
REMARK    3  A    between atoms: C_2  and  C_4
REMARK    4  A    between atoms: C_4  and  C_6
REMARK    5  A    between atoms: C_4  and  N_16
REMARK    6  A    between atoms: N_19  and  C_20
REMARK    7  A    between atoms: C_25  and  C_26
REMARK    8  A    between atoms: C_26  and  C_27
REMARK                            x       y       z     vdW  Elec       q    Type
REMARK                         _______ _______ _______ _____ _____    ______ ____
ROOT
ATOM      1  N   UNL     1      -1.397  -1.999   0.003  0.00  0.00    -0.292 N 
ATOM      2  C   UNL     1      -1.288  -2.677   1.162  0.00  0.00    +0.304 C 
ATOM      3  O   UNL     1      -1.202  -2.073   2.214  0.00  0.00    -0.252 OA
ATOM      4  N   UNL     1      -1.273  -4.025   1.155  0.00  0.00    -0.269 N 
ATOM      5  H   UNL     1      -1.465  -2.480  -0.837  0.00  0.00    +0.151 HD
ATOM      6  H   UNL     1      -1.423  -4.507   0.327  0.00  0.00    +0.156 HD
ENDROOT
BRANCH   4   7
ATOM      7  C   UNL     1      -1.042  -4.728   2.343  0.00  0.00    +0.038 A 
ATOM      8  C   UNL     1      -0.341  -4.129   3.381  0.00  0.00    +0.023 A 
ATOM      9  C   UNL     1      -0.115  -4.825   4.552  0.00  0.00    +0.002 A 
ATOM     10  C   UNL     1      -0.585  -6.118   4.691  0.00  0.00    +0.000 A 
ATOM     11  C   UNL     1      -1.283  -6.718   3.659  0.00  0.00    +0.006 A 
ATOM     12  C   UNL     1      -1.518  -6.024   2.488  0.00  0.00    -0.017 A 
BRANCH  12  13
ATOM     13  C   UNL     1      -2.284  -6.676   1.366  0.00  0.00    +0.132 C 
BRANCH  13  14
ATOM     14  C   UNL     1      -1.317  -7.295   0.390  0.00  0.00    +0.215 C 
ATOM     15  O   UNL     1      -0.123  -7.215   0.587  0.00  0.00    -0.276 OA
ATOM     16  N   UNL     1      -1.779  -7.938  -0.700  0.00  0.00    -0.329 N 
ATOM     17  H   UNL     1      -2.734  -8.002  -0.857  0.00  0.00    +0.145 HD
ATOM     18  H   UNL     1      -1.156  -8.336  -1.329  0.00  0.00    +0.145 HD
ENDBRANCH  13  14
ENDBRANCH  12  13
ENDBRANCH   4   7
BRANCH   1  19
ATOM     19  C   UNL     1      -1.413  -0.534   0.010  0.00  0.00    +0.107 C 
BRANCH  19  20
ATOM     20  C   UNL     1      -2.129  -0.033  -1.218  0.00  0.00    -0.023 A 
ATOM     21  C   UNL     1      -1.938  -0.663  -2.433  0.00  0.00    +0.009 A 
ATOM     22  C   UNL     1      -2.592  -0.206  -3.562  0.00  0.00    +0.050 A 
ATOM     23  C   UNL     1      -3.442   0.887  -3.477  0.00  0.00    +0.162 A 
ATOM     24  C   UNL     1      -3.635   1.519  -2.255  0.00  0.00    +0.162 A 
ATOM     25  C   UNL     1      -2.979   1.052  -1.126  0.00  0.00    +0.055 A 
ATOM     26  O   UNL     1      -4.471   2.588  -2.148  0.00  0.00    -0.485 OA
ATOM     27  C   UNL     1      -4.824   3.252  -3.367  0.00  0.00    +0.270 C 
ATOM     28  C   UNL     1      -5.205   2.186  -4.403  0.00  0.00    +0.270 C 
ATOM     29  O   UNL     1      -4.076   1.328  -4.598  0.00  0.00    -0.485 OA
ENDBRANCH  19  20
BRANCH  19  31
ATOM     30  C   UNL     1       0.008   1.522   0.020  0.00  0.00    +0.009 C 
ATOM     31  C   UNL     1       0.025  -0.008   0.012  0.00  0.00    +0.008 C 
ATOM     32  C   UNL     1       0.752  -0.517   1.258  0.00  0.00    +0.009 C 
ENDBRANCH  19  31
ENDBRANCH   1  19
TORSDOF 6
