REMARK  Name = ZINC53046213
REMARK  6 active torsions:
REMARK  status: ('A' for Active; 'I' for Inactive)
REMARK    1  A    between atoms: C_1  and  O_2
REMARK    2  A    between atoms: O_2  and  C_3
REMARK    3  A    between atoms: C_6  and  C_10
REMARK    4  A    between atoms: N_12  and  C_13
REMARK    5  A    between atoms: C_13  and  C_18
REMARK    6  A    between atoms: C_18  and  O_19
REMARK                            x       y       z     vdW  Elec       q    Type
REMARK                         _______ _______ _______ _____ _____    ______ ____
ROOT
ATOM      1  C   UNL     1      -5.127  -2.528   0.196  0.00  0.00    +0.245 C 
ATOM      2  O   UNL     1      -5.746  -2.825   1.199  0.00  0.00    -0.270 OA
ATOM      3  N   UNL     1      -5.602  -2.876  -1.017  0.00  0.00    -0.304 N 
ATOM      4  H   UNL     1      -5.149  -2.575  -1.820  0.00  0.00    +0.150 HD
ENDROOT
BRANCH   1   8
ATOM      5  C   UNL     1      -1.466  -0.397   0.511  0.00  0.00    +0.157 A 
ATOM      6  C   UNL     1      -2.172  -0.736   1.660  0.00  0.00    +0.085 A 
ATOM      7  C   UNL     1      -3.361  -1.427   1.561  0.00  0.00    +0.036 A 
ATOM      8  C   UNL     1      -3.855  -1.788   0.305  0.00  0.00    +0.040 A 
ATOM      9  C   UNL     1      -3.142  -1.446  -0.847  0.00  0.00    +0.036 A 
ATOM     10  C   UNL     1      -1.957  -0.750  -0.741  0.00  0.00    +0.085 A 
ATOM     11 CL   UNL     1      -1.073  -0.319  -2.172  0.00  0.00    -0.080 Cl
ATOM     12 CL   UNL     1      -1.557  -0.287   3.220  0.00  0.00    -0.080 Cl
BRANCH   5  14
ATOM     13  C   UNL     1      -0.372   1.711   0.600  0.00  0.00    +0.277 C 
ATOM     14  O   UNL     1      -0.295   0.284   0.612  0.00  0.00    -0.492 OA
ENDBRANCH   5  14
ENDBRANCH   1   8
BRANCH   3  15
ATOM     15  C   UNL     1      -6.804  -3.707  -1.122  0.00  0.00    +0.058 C 
ATOM     16  C   UNL     1      -7.178  -3.933  -2.608  0.00  0.00    +0.028 C 
ATOM     17  C   UNL     1      -7.919  -2.625  -2.977  0.00  0.00    +0.002 C 
ATOM     18  C   UNL     1      -8.733  -2.281  -1.712  0.00  0.00    +0.002 C 
ATOM     19  C   UNL     1      -8.024  -2.970  -0.533  0.00  0.00    +0.028 C 
BRANCH  15  20
ATOM     20  C   UNL     1      -6.592  -5.045  -0.410  0.00  0.00    +0.181 C 
BRANCH  20  21
ATOM     21  O   UNL     1      -5.420  -5.679  -0.928  0.00  0.00    -0.393 OA
ATOM     22  H   UNL     1      -5.224  -6.534  -0.521  0.00  0.00    +0.209 HD
ENDBRANCH  20  21
ENDBRANCH  15  20
ENDBRANCH   3  15
TORSDOF 5
