REMARK  Name = ZINC22937211
REMARK  8 active torsions:
REMARK  status: ('A' for Active; 'I' for Inactive)
REMARK    1  A    between atoms: C_1  and  C_2
REMARK    2  A    between atoms: C_2  and  N_3
REMARK    3  A    between atoms: N_6  and  C_9
REMARK    4  A    between atoms: C_9  and  C_10
REMARK    5  A    between atoms: C_10  and  C_11
REMARK    6  A    between atoms: C_11  and  N_12
REMARK    7  A    between atoms: C_13  and  C_15
REMARK    8  A    between atoms: C_23  and  C_30
REMARK                            x       y       z     vdW  Elec       q    Type
REMARK                         _______ _______ _______ _____ _____    ______ ____
ROOT
ATOM      1  N   UNL     1      -7.647  -6.240  -0.536  0.00  0.00    -0.315 N 
ATOM      2  C   UNL     1      -8.557  -7.235  -0.537  0.00  0.00    +0.216 C 
ATOM      3  O   UNL     1      -9.712  -7.000  -0.252  0.00  0.00    -0.276 OA
ATOM      4  H   UNL     1      -6.723  -6.428  -0.764  0.00  0.00    +0.149 HD
ENDROOT
BRANCH   2   5
ATOM      5  C   UNL     1      -8.138  -8.638  -0.893  0.00  0.00    +0.078 C 
ATOM      6  C   UNL     1      -7.567  -8.656  -2.312  0.00  0.00    +0.031 C 
ATOM      7  C   UNL     1      -7.111 -10.077  -2.657  0.00  0.00    +0.107 C 
ATOM      8  N   UNL     1      -8.236 -10.999  -2.448  0.00  0.00    -0.314 N 
ATOM      9  C   UNL     1      -8.916 -10.998  -1.146  0.00  0.00    +0.107 C 
ATOM     10  C   UNL     1      -9.352  -9.567  -0.818  0.00  0.00    +0.031 C 
ATOM     11  C   UNL     1      -8.646 -11.849  -3.455  0.00  0.00    +0.137 A 
ATOM     12  C   UNL     1      -8.177 -13.172  -3.517  0.00  0.00    +0.103 A 
ATOM     13  C   UNL     1      -7.269 -13.982  -2.708  0.00  0.00    +0.093 A 
ATOM     14  N   UNL     1      -7.212 -15.160  -3.253  0.00  0.00    -0.080 NA
ATOM     15  O   UNL     1      -8.040 -15.194  -4.399  0.00  0.00    -0.334 OA
ATOM     16  C   UNL     1      -8.625 -13.996  -4.563  0.00  0.00    +0.263 A 
ATOM     17  N   UNL     1      -9.475 -13.492  -5.453  0.00  0.00    -0.198 NA
ATOM     18  C   UNL     1      -9.888 -12.245  -5.358  0.00  0.00    +0.227 A 
ATOM     19  N   UNL     1      -9.498 -11.437  -4.389  0.00  0.00    -0.220 NA
ATOM     20  C   UNL     1      -6.535 -13.534  -1.471  0.00  0.00    +0.070 C 
ENDBRANCH   2   5
BRANCH   1  21
ATOM     21  C   UNL     1      -8.054  -4.876  -0.191  0.00  0.00    +0.105 C 
BRANCH  21  22
ATOM     22  C   UNL     1      -6.840  -3.947  -0.266  0.00  0.00    +0.034 C 
BRANCH  22  23
ATOM     23  C   UNL     1      -7.265  -2.522   0.095  0.00  0.00    +0.086 C 
BRANCH  23  27
ATOM     24  N   UNL     1      -4.308   0.344   1.047  0.00  0.00    +0.381 N 
ATOM     25  C   UNL     1      -5.274   0.673  -0.009  0.00  0.00    -0.063 C 
ATOM     26  C   UNL     1      -6.507  -0.223   0.129  0.00  0.00    +0.066 C 
ATOM     27  N   UNL     1      -6.100  -1.631   0.023  0.00  0.00    -0.306 NA
ATOM     28  C   UNL     1      -5.114  -1.969   1.059  0.00  0.00    +0.066 C 
ATOM     29  C   UNL     1      -3.892  -1.059   0.913  0.00  0.00    -0.063 C 
ATOM     30  H   UNL     1      -4.737   0.483   1.950  0.00  0.00    -0.082 HD
BRANCH  24  32
ATOM     31  C   UNL     1      -3.544   2.666   1.187  0.00  0.00    -0.017 C 
ATOM     32  C   UNL     1      -3.132   1.216   0.924  0.00  0.00    -0.082 C 
ENDBRANCH  24  32
ENDBRANCH  23  27
ENDBRANCH  22  23
ENDBRANCH  21  22
ENDBRANCH   1  21
TORSDOF 6
