REMARK  Name = ZINC39584314
REMARK  6 active torsions:
REMARK  status: ('A' for Active; 'I' for Inactive)
REMARK    1  A    between atoms: C_1  and  C_2
REMARK    2  A    between atoms: C_5  and  C_8
REMARK    3  A    between atoms: C_10  and  C_14
REMARK    4  A    between atoms: N_16  and  N_17
REMARK    5  A    between atoms: C_18  and  C_19
REMARK    6  A    between atoms: C_18  and  C_20
REMARK                            x       y       z     vdW  Elec       q    Type
REMARK                         _______ _______ _______ _____ _____    ______ ____
ROOT
ATOM      1  C   UNL     1       0.931  -8.977   0.737  0.00  0.00    +0.263 C 
ATOM      2  O   UNL     1       1.831  -9.335   0.006  0.00  0.00    -0.271 OA
ATOM      3  N   UNL     1       1.176  -8.743   2.042  0.00  0.00    -0.205 N 
ATOM      4  H   UNL     1       0.457  -8.457   2.626  0.00  0.00    +0.177 HD
ENDROOT
BRANCH   1   7
ATOM      5  C   UNL     1      -0.969  -7.278  -1.407  0.00  0.00    +0.092 C 
ATOM      6  C   UNL     1      -0.742  -7.327  -0.080  0.00  0.00    +0.041 C 
ATOM      7  C   UNL     1      -0.460  -8.794   0.187  0.00  0.00    +0.240 C 
ATOM      8  N   UNL     1      -0.579  -9.407  -1.147  0.00  0.00    -0.170 NA
ATOM      9  N   UNL     1      -0.863  -8.518  -1.952  0.00  0.00    -0.153 NA
BRANCH   5  14
ATOM     10  C   UNL     1      -2.232  -2.491  -4.350  0.00  0.00    +0.044 C 
ATOM     11  C   UNL     1      -1.902  -3.744  -3.580  0.00  0.00    -0.050 A 
ATOM     12  C   UNL     1      -1.819  -4.956  -4.239  0.00  0.00    +0.004 A 
ATOM     13  C   UNL     1      -1.516  -6.106  -3.539  0.00  0.00    +0.010 A 
ATOM     14  C   UNL     1      -1.294  -6.044  -2.165  0.00  0.00    +0.002 A 
ATOM     15  C   UNL     1      -1.379  -4.820  -1.505  0.00  0.00    +0.010 A 
ATOM     16  C   UNL     1      -1.677  -3.675  -2.216  0.00  0.00    +0.004 A 
ENDBRANCH   5  14
ENDBRANCH   1   7
BRANCH   3  17
ATOM     17  N   UNL     1       2.469  -8.913   2.553  0.00  0.00    -0.184 NA
ATOM     18  C   UNL     1       2.682  -8.800   3.828  0.00  0.00    +0.063 C 
ATOM     19  C   UNL     1       4.093  -8.796   4.359  0.00  0.00    +0.068 C 
BRANCH  18  20
ATOM     20  C   UNL     1       1.544  -8.676   4.758  0.00  0.00    -0.002 A 
ATOM     21  C   UNL     1       0.366  -9.387   4.523  0.00  0.00    +0.012 A 
ATOM     22  C   UNL     1      -0.695  -9.267   5.395  0.00  0.00    +0.039 A 
ATOM     23  C   UNL     1      -0.593  -8.442   6.505  0.00  0.00    +0.123 A 
ATOM     24  C   UNL     1       0.574  -7.734   6.743  0.00  0.00    +0.039 A 
ATOM     25  C   UNL     1       1.643  -7.850   5.881  0.00  0.00    +0.012 A 
ATOM     26  F   UNL     1      -1.636  -8.328   7.356  0.00  0.00    -0.205 F 
ENDBRANCH  18  20
ENDBRANCH   3  17
TORSDOF 4
