REMARK  Name = ZINC43217273
REMARK  11 active torsions:
REMARK  status: ('A' for Active; 'I' for Inactive)
REMARK    1  A    between atoms: C_1  and  C_2
REMARK    2  A    between atoms: C_2  and  C_3
REMARK    3  A    between atoms: C_3  and  C_4
REMARK    4  A    between atoms: C_4  and  C_5
REMARK    5  A    between atoms: C_5  and  C_7
REMARK    6  A    between atoms: C_5  and  N_24
REMARK    7  A    between atoms: C_9  and  C_12
REMARK    8  A    between atoms: N_14  and  C_15
REMARK    9  A    between atoms: C_15  and  C_16
REMARK   10  A    between atoms: C_16  and  C_17
REMARK   11  A    between atoms: C_20  and  N_23
REMARK                            x       y       z     vdW  Elec       q    Type
REMARK                         _______ _______ _______ _____ _____    ______ ____
ROOT
ATOM      1  C   UNL     1       0.182  -7.179   3.775  0.00  0.00    +0.266 C 
ATOM      2  O   UNL     1       0.447  -8.325   3.465  0.00  0.00    -0.268 OA
ATOM      3  N   UNL     1      -0.720  -6.935   4.746  0.00  0.00    -0.310 N 
ATOM      4  H   UNL     1      -0.931  -6.021   4.994  0.00  0.00    +0.149 HD
ENDROOT
BRANCH   1   7
ATOM      5  C   UNL     1       1.417  -4.051   2.529  0.00  0.00    +0.182 A 
ATOM      6  N   UNL     1       0.653  -4.732   3.329  0.00  0.00    -0.210 NA
ATOM      7  C   UNL     1       0.848  -6.057   3.089  0.00  0.00    +0.163 A 
ATOM      8  C   UNL     1       1.775  -6.151   2.096  0.00  0.00    +0.230 A 
ATOM      9  O   UNL     1       2.114  -4.897   1.757  0.00  0.00    -0.449 OA
BRANCH   5  10
ATOM     10  C   UNL     1       1.503  -2.548   2.473  0.00  0.00    +0.013 C 
BRANCH  10  11
ATOM     11  N   UNL     1       2.912  -2.139   2.403  0.00  0.00    +0.386 N 
ATOM     12  H   UNL     1       2.969  -1.133   2.365  0.00  0.00    -0.089 HD
ATOM     13  H   UNL     1       3.400  -2.474   3.220  0.00  0.00    -0.089 HD
ATOM     14  H   UNL     1       3.335  -2.531   1.575  0.00  0.00    -0.089 HD
ENDBRANCH  10  11
BRANCH  10  15
ATOM     15  C   UNL     1       0.763  -2.041   1.233  0.00  0.00    -0.007 C 
BRANCH  15  16
ATOM     16  C   UNL     1       0.742  -0.511   1.242  0.00  0.00    -0.001 C 
BRANCH  16  18
ATOM     17  C   UNL     1      -0.019   1.526   0.010  0.00  0.00    +0.004 C 
ATOM     18  C   UNL     1       0.002  -0.004   0.002  0.00  0.00    -0.003 C 
ENDBRANCH  16  18
ENDBRANCH  15  16
ENDBRANCH  10  15
ENDBRANCH   5  10
ENDBRANCH   1   7
BRANCH   3  19
ATOM     19  C   UNL     1      -1.382  -8.050   5.428  0.00  0.00    +0.109 C 
BRANCH  19  20
ATOM     20  C   UNL     1      -2.351  -7.503   6.478  0.00  0.00    +0.054 C 
BRANCH  20  21
ATOM     21  C   UNL     1      -3.032  -8.649   7.179  0.00  0.00    -0.046 A 
ATOM     22  C   UNL     1      -4.217  -9.159   6.678  0.00  0.00    +0.005 A 
ATOM     23  C   UNL     1      -4.843 -10.210   7.319  0.00  0.00    +0.023 A 
ATOM     24  C   UNL     1      -4.283 -10.755   8.466  0.00  0.00    +0.025 A 
ATOM     25  C   UNL     1      -3.093 -10.242   8.966  0.00  0.00    +0.023 A 
ATOM     26  C   UNL     1      -2.469  -9.194   8.318  0.00  0.00    +0.005 A 
BRANCH  24  27
ATOM     27  N   UNL     1      -4.914 -11.818   9.117  0.00  0.00    -0.358 N 
ATOM     28  H   UNL     1      -5.745 -12.176   8.767  0.00  0.00    +0.142 HD
ATOM     29  H   UNL     1      -4.522 -12.198   9.918  0.00  0.00    +0.142 HD
ENDBRANCH  24  27
ENDBRANCH  20  21
ENDBRANCH  19  20
ENDBRANCH   3  19
TORSDOF 10
