REMARK  Name = ZINC44020984
REMARK  9 active torsions:
REMARK  status: ('A' for Active; 'I' for Inactive)
REMARK    1  A    between atoms: C_1  and  C_2
REMARK    2  A    between atoms: C_4  and  O_37
REMARK    3  A    between atoms: C_14  and  C_20
REMARK    4  A    between atoms: C_16  and  C_18
REMARK    5  A    between atoms: C_16  and  C_19
REMARK    6  A    between atoms: C_20  and  C_22
REMARK    7  A    between atoms: C_22  and  O_23
REMARK    8  A    between atoms: C_25  and  O_35
REMARK    9  A    between atoms: C_33  and  C_34
REMARK                            x       y       z     vdW  Elec       q    Type
REMARK                         _______ _______ _______ _____ _____    ______ ____
ROOT
ATOM      1  C   UNL     1      -0.129   1.538  -0.681  0.00  0.00    +0.015 C 
ATOM      2  C   UNL     1       0.063   0.022  -0.603  0.00  0.00    +0.012 C 
ATOM      3  C   UNL     1       0.819  -0.372  -1.845  0.00  0.00    +0.044 C 
ATOM      4  C   UNL     1       1.958   0.653  -2.004  0.00  0.00    +0.154 C 
ATOM      5  C   UNL     1       2.838   0.737  -0.761  0.00  0.00    +0.153 C 
ATOM      6  C   UNL     1       2.023   0.949   0.524  0.00  0.00    +0.036 C 
ATOM      7  C   UNL     1       1.036  -0.204   0.608  0.00  0.00    +0.007 C 
ATOM      8  C   UNL     1       0.051  -0.181   1.808  0.00  0.00    +0.039 C 
ATOM      9  C   UNL     1      -1.014  -1.140   1.248  0.00  0.00    +0.162 C 
ATOM     10  C   UNL     1      -1.212  -0.527  -0.190  0.00  0.00    +0.164 C 
ATOM     11  O   UNL     1      -2.285  -1.226  -0.685  0.00  0.00    -0.332 OA
ATOM     12  C   UNL     1      -3.102  -1.497   0.493  0.00  0.00    +0.166 C 
ATOM     13  O   UNL     1      -2.361  -1.060   1.688  0.00  0.00    -0.343 OA
ATOM     14  C   UNL     1      -4.428  -0.741   0.388  0.00  0.00    +0.074 C 
ATOM     15  C   UNL     1      -3.371  -3.000   0.601  0.00  0.00    +0.074 C 
ATOM     16  C   UNL     1       2.930   0.969   1.749  0.00  0.00    +0.043 C 
ATOM     17  C   UNL     1       3.942   2.116   1.645  0.00  0.00    +0.142 C 
ATOM     18  C   UNL     1       4.664   1.962   0.318  0.00  0.00    -0.025 C 
ATOM     19  C   UNL     1       5.980   1.859   0.298  0.00  0.00    +0.053 C 
ATOM     20  C   UNL     1       6.697   1.642  -0.969  0.00  0.00    +0.179 C 
ATOM     21  O   UNL     1       7.900   1.464  -0.985  0.00  0.00    -0.288 OA
ATOM     22  C   UNL     1       5.915   1.646  -2.218  0.00  0.00    +0.047 C 
ATOM     23  C   UNL     1       4.601   1.771  -2.176  0.00  0.00    -0.009 C 
ATOM     24  C   UNL     1       3.807   1.925  -0.917  0.00  0.00    +0.047 C 
ATOM     25  C   UNL     1       3.004   3.225  -1.003  0.00  0.00    +0.023 C 
ATOM     26  F   UNL     1       3.574  -0.446  -0.636  0.00  0.00    -0.238 F 
ENDROOT
BRANCH  10  27
ATOM     27  C   UNL     1      -1.925   0.760   0.138  0.00  0.00    +0.193 C 
ATOM     28  O   UNL     1      -1.776   1.274   1.220  0.00  0.00    -0.292 OA
BRANCH  27  29
ATOM     29  C   UNL     1      -2.825   1.404  -0.885  0.00  0.00    +0.233 C 
BRANCH  29  30
ATOM     30  O   UNL     1      -3.257   2.679  -0.404  0.00  0.00    -0.387 OA
ATOM     31  H   UNL     1      -3.840   3.152  -1.013  0.00  0.00    +0.210 HD
ENDBRANCH  29  30
ENDBRANCH  27  29
ENDBRANCH  10  27
BRANCH  17  32
ATOM     32  O   UNL     1       4.878   2.038   2.721  0.00  0.00    -0.387 OA
ATOM     33  H   UNL     1       5.547   2.737   2.713  0.00  0.00    +0.210 HD
ENDBRANCH  17  32
BRANCH   4  34
ATOM     34  O   UNL     1       2.768   0.276  -3.119  0.00  0.00    -0.389 OA
ATOM     35  H   UNL     1       2.290   0.241  -3.959  0.00  0.00    +0.210 HD
ENDBRANCH   4  34
TORSDOF 5
