REMARK  Name = ZINC21742716
REMARK  5 active torsions:
REMARK  status: ('A' for Active; 'I' for Inactive)
REMARK    1  A    between atoms: C_1  and  C_2
REMARK    2  A    between atoms: C_2  and  C_4
REMARK    3  A    between atoms: C_2  and  N_14
REMARK    4  A    between atoms: C_15  and  C_17
REMARK    5  A    between atoms: C_17  and  N_18
REMARK                            x       y       z     vdW  Elec       q    Type
REMARK                         _______ _______ _______ _____ _____    ______ ____
ROOT
ATOM      1  C   UNL     1      -2.683   7.359  -2.851  0.00  0.00    +0.213 C 
ENDROOT
BRANCH   1   2
ATOM      2  N   UNL     1      -2.221   8.710  -3.178  0.00  0.00    -0.215 N 
ATOM      3  C   UNL     1      -2.782   9.840  -2.699  0.00  0.00    +0.252 C 
ATOM      4  O   UNL     1      -3.728   9.928  -1.946  0.00  0.00    -0.272 OA
ATOM      5  C   UNL     1      -1.981  10.973  -3.297  0.00  0.00    +0.144 C 
ATOM      6  C   UNL     1      -2.877  11.856  -4.160  0.00  0.00    +0.081 C 
ATOM      7  C   UNL     1      -2.092  13.121  -4.533  0.00  0.00    +0.232 C 
ATOM      8  O   UNL     1      -1.803  13.843  -3.336  0.00  0.00    -0.492 OA
ATOM      9  C   UNL     1      -1.260  13.164  -2.293  0.00  0.00    +0.126 A 
ATOM     10  C   UNL     1      -1.318  11.781  -2.217  0.00  0.00    +0.027 A 
ATOM     11  C   UNL     1      -0.759  11.128  -1.133  0.00  0.00    +0.010 A 
ATOM     12  C   UNL     1      -0.140  11.847  -0.128  0.00  0.00    +0.001 A 
ATOM     13  C   UNL     1      -0.077  13.226  -0.203  0.00  0.00    +0.004 A 
ATOM     14  C   UNL     1      -0.634  13.883  -1.281  0.00  0.00    +0.046 A 
ATOM     15  N   UNL     1      -0.973  10.299  -4.126  0.00  0.00    -0.281 N 
ATOM     16  C   UNL     1      -1.193   8.977  -3.992  0.00  0.00    +0.310 C 
ATOM     17  O   UNL     1      -0.531   8.122  -4.549  0.00  0.00    -0.252 OA
ATOM     18  H   UNL     1      -0.241  10.893  -4.693  0.00  0.00    +0.152 HD
ENDBRANCH   1   2
BRANCH   1  20
ATOM     19  N   UNL     1      -2.219   5.631  -1.143  0.00  0.00    -0.311 N 
ATOM     20  C   UNL     1      -1.954   6.859  -1.630  0.00  0.00    +0.231 C 
ATOM     21  O   UNL     1      -1.130   7.563  -1.086  0.00  0.00    -0.274 OA
ATOM     22  H   UNL     1      -2.967   4.993  -1.636  0.00  0.00    +0.149 HD
BRANCH  19  24
ATOM     23  C   UNL     1      -2.227   5.639   1.303  0.00  0.00    +0.028 C 
ATOM     24  C   UNL     1      -1.510   5.146   0.044  0.00  0.00    +0.076 C 
BRANCH  24  25
ATOM     25  C   UNL     1      -1.490   3.616   0.036  0.00  0.00    -0.010 C 
ATOM     26  C   UNL     1      -0.773   3.123  -1.223  0.00  0.00    +0.012 C 
ATOM     27  C   UNL     1      -0.753   1.593  -1.232  0.00  0.00    -0.010 C 
ATOM     28  C   UNL     1      -0.013   1.086   0.008  0.00  0.00    +0.007 C 
ATOM     29  C   UNL     1      -0.729   1.579   1.267  0.00  0.00    -0.010 C 
ATOM     30  C   UNL     1      -0.750   3.109   1.275  0.00  0.00    +0.012 C 
ATOM     31  C   UNL     1      -2.164   1.050   1.278  0.00  0.00    +0.007 C 
ATOM     32  C   UNL     1      -2.904   1.556   0.038  0.00  0.00    -0.010 C 
ATOM     33  C   UNL     1      -2.188   1.063  -1.221  0.00  0.00    +0.007 C 
ATOM     34  C   UNL     1      -2.925   3.086   0.047  0.00  0.00    +0.012 C 
ENDBRANCH  24  25
ENDBRANCH  19  24
ENDBRANCH   1  20
TORSDOF 4
