REMARK  Name = ZINC57346121
REMARK  3 active torsions:
REMARK  status: ('A' for Active; 'I' for Inactive)
REMARK    1  A    between atoms: C_1  and  C_2
REMARK    2  A    between atoms: C_2  and  C_3
REMARK    3  A    between atoms: C_19  and  C_21
REMARK                            x       y       z     vdW  Elec       q    Type
REMARK                         _______ _______ _______ _____ _____    ______ ____
ROOT
ATOM      1  C   UNL     1       0.660  -1.936   2.102  0.00  0.00    +0.048 A 
ATOM      2  C   UNL     1       0.032  -0.772   2.402  0.00  0.00    +0.072 A 
ATOM      3  C   UNL     1       0.819   0.384   2.643  0.00  0.00    +0.166 A 
ATOM      4  N   UNL     1       0.520   1.621   2.947  0.00  0.00    -0.151 NA
ATOM      5  N   UNL     1       1.720   2.337   3.066  0.00  0.00    -0.226 N 
ATOM      6  H   UNL     1       1.807   3.278   3.285  0.00  0.00    +0.194 HD
ATOM      7  C   UNL     1       2.734   1.479   2.822  0.00  0.00    +0.351 A 
ATOM      8  O   UNL     1       3.922   1.750   2.838  0.00  0.00    -0.245 OA
ATOM      9  N   UNL     1       2.199   0.272   2.560  0.00  0.00    -0.215 N 
ATOM     10  C   UNL     1       2.752  -0.945   2.249  0.00  0.00    +0.208 A 
ATOM     11  N   UNL     1       1.995  -1.995   2.039  0.00  0.00    -0.220 NA
ATOM     12  N   UNL     1       4.116  -1.065   2.164  0.00  0.00    -0.298 N 
ATOM     13  C   UNL     1       4.910  -1.435   3.344  0.00  0.00    +0.108 C 
ATOM     14  C   UNL     1       5.778  -2.648   2.995  0.00  0.00    +0.019 C 
ATOM     15  C   UNL     1       6.611  -2.332   1.750  0.00  0.00    +0.003 C 
ATOM     16  C   UNL     1       5.680  -2.047   0.570  0.00  0.00    +0.022 C 
ATOM     17  C   UNL     1       4.810  -0.834   0.890  0.00  0.00    +0.073 C 
ATOM     18  C   UNL     1       3.782  -0.633  -0.225  0.00  0.00    +0.028 C 
ENDROOT
BRANCH   1  20
ATOM     19  C   UNL     1      -0.376  -3.336   0.337  0.00  0.00    +0.010 C 
ATOM     20  C   UNL     1      -0.155  -3.177   1.843  0.00  0.00    +0.052 C 
ENDBRANCH   1  20
TORSDOF 1
