REMARK  Name = ZINC04017678
REMARK  9 active torsions:
REMARK  status: ('A' for Active; 'I' for Inactive)
REMARK    1  A    between atoms: C_1  and  C_2
REMARK    2  A    between atoms: C_5  and  C_8
REMARK    3  A    between atoms: N_10  and  C_11
REMARK    4  A    between atoms: C_11  and  C_13
REMARK    5  A    between atoms: C_11  and  N_17
REMARK    6  A    between atoms: N_17  and  C_18
REMARK    7  A    between atoms: C_18  and  N_20
REMARK    8  A    between atoms: N_20  and  C_21
REMARK    9  A    between atoms: C_24  and  N_27
REMARK                            x       y       z     vdW  Elec       q    Type
REMARK                         _______ _______ _______ _____ _____    ______ ____
ROOT
ATOM      1  C   UNL     1       3.554   6.260   0.315  0.00  0.00    +0.211 C 
ENDROOT
BRANCH   1   4
ATOM      2  C   UNL     1       4.785   6.434  -1.781  0.00  0.00    +0.246 C 
ATOM      3  O   UNL     1       5.411   5.442  -1.461  0.00  0.00    -0.270 OA
ATOM      4  N   UNL     1       3.834   6.923  -0.961  0.00  0.00    -0.290 N 
ATOM      5  H   UNL     1       3.335   7.715  -1.216  0.00  0.00    +0.151 HD
BRANCH   2  10
ATOM      6  C   UNL     1       5.884   9.037  -6.794  0.00  0.00    +0.044 C 
ATOM      7  C   UNL     1       5.596   8.355  -5.481  0.00  0.00    -0.050 A 
ATOM      8  C   UNL     1       6.311   7.227  -5.120  0.00  0.00    +0.004 A 
ATOM      9  C   UNL     1       6.053   6.598  -3.919  0.00  0.00    +0.013 A 
ATOM     10  C   UNL     1       5.068   7.103  -3.068  0.00  0.00    +0.037 A 
ATOM     11  C   UNL     1       4.347   8.238  -3.441  0.00  0.00    +0.013 A 
ATOM     12  C   UNL     1       4.619   8.860  -4.642  0.00  0.00    +0.004 A 
ENDBRANCH   2  10
ENDBRANCH   1   4
BRANCH   1  13
ATOM     13  C   UNL     1       3.435   7.311   1.420  0.00  0.00    +0.225 C 
ATOM     14 CL   UNL     1       3.090   6.495   2.990  0.00  0.00    -0.080 Cl
ATOM     15 CL   UNL     1       4.981   8.229   1.546  0.00  0.00    -0.080 Cl
ATOM     16 CL   UNL     1       2.091   8.448   1.026  0.00  0.00    -0.080 Cl
ENDBRANCH   1  13
BRANCH   1  17
ATOM     17  N   UNL     1       2.297   5.514   0.212  0.00  0.00    -0.305 N 
ATOM     18  H   UNL     1       1.451   5.987   0.222  0.00  0.00    +0.150 HD
BRANCH  17  19
ATOM     19  C   UNL     1       2.318   4.171   0.104  0.00  0.00    +0.136 C 
ATOM     20  S   UNL     1       3.813   3.337   0.086  0.00  0.00    -0.019 S 
BRANCH  19  21
ATOM     21  N   UNL     1       1.162   3.485   0.009  0.00  0.00    -0.297 N 
ATOM     22  H   UNL     1       0.320   3.961  -0.062  0.00  0.00    +0.154 HD
BRANCH  21  23
ATOM     23  C   UNL     1       1.177   2.086   0.013  0.00  0.00    +0.033 A 
ATOM     24  C   UNL     1       2.010   1.401   0.888  0.00  0.00    +0.025 A 
ATOM     25  C   UNL     1       2.022   0.020   0.890  0.00  0.00    +0.034 A 
ATOM     26  C   UNL     1       1.205  -0.681   0.022  0.00  0.00    +0.126 A 
ATOM     27  C   UNL     1       0.374  -0.002  -0.851  0.00  0.00    +0.034 A 
ATOM     28  C   UNL     1       0.358   1.379  -0.858  0.00  0.00    +0.025 A 
BRANCH  26  29
ATOM     29  N   UNL     1       1.220  -2.161   0.027  0.00  0.00    +0.056 N 
ATOM     30  O   UNL     1       1.951  -2.760   0.794  0.00  0.00    -0.126 OA
ATOM     31  O   UNL     1       0.501  -2.780  -0.737  0.00  0.00    -0.126 OA
ENDBRANCH  26  29
ENDBRANCH  21  23
ENDBRANCH  19  21
ENDBRANCH  17  19
ENDBRANCH   1  17
TORSDOF 8
