REMARK  Name = ZINC16884315
REMARK  6 active torsions:
REMARK  status: ('A' for Active; 'I' for Inactive)
REMARK    1  A    between atoms: C_1  and  C_2
REMARK    2  A    between atoms: C_5  and  C_9
REMARK    3  A    between atoms: C_6  and  C_8
REMARK    4  A    between atoms: C_9  and  C_10
REMARK    5  A    between atoms: C_11  and  C_21
REMARK    6  A    between atoms: C_15  and  O_16
REMARK                            x       y       z     vdW  Elec       q    Type
REMARK                         _______ _______ _______ _____ _____    ______ ____
ROOT
ATOM      1  C   UNL     1      -3.319   3.877   1.581  0.00  0.00    +0.039 A 
ATOM      2  C   UNL     1      -4.024   2.823   2.130  0.00  0.00    +0.050 A 
ATOM      3  N   UNL     1      -4.487   2.928   3.366  0.00  0.00    -0.219 NA
ATOM      4  C   UNL     1      -4.292   4.029   4.074  0.00  0.00    +0.226 A 
ATOM      5  N   UNL     1      -3.626   5.062   3.582  0.00  0.00    -0.179 NA
ATOM      6  C   UNL     1      -3.130   5.024   2.351  0.00  0.00    +0.221 A 
ATOM      7  N   UNL     1      -4.797   4.103   5.366  0.00  0.00    -0.238 N 
ATOM      8  C   UNL     1      -4.607   5.216   6.101  0.00  0.00    +0.303 C 
ATOM      9  O   UNL     1      -3.994   6.156   5.634  0.00  0.00    -0.253 OA
ATOM     10  N   UNL     1      -5.098   5.288   7.355  0.00  0.00    -0.313 N 
ATOM     11  C   UNL     1      -4.259   1.565   1.333  0.00  0.00    +0.066 C 
ATOM     12  H   UNL     1      -5.287   3.353   5.739  0.00  0.00    +0.159 HD
ATOM     13  H   UNL     1      -5.587   4.538   7.727  0.00  0.00    +0.146 HD
ATOM     14  H   UNL     1      -4.961   6.089   7.884  0.00  0.00    +0.146 HD
ENDROOT
BRANCH   6  15
ATOM     15  O   UNL     1      -2.449   6.083   1.851  0.00  0.00    -0.492 OA
ATOM     16  H   UNL     1      -3.005   6.726   1.391  0.00  0.00    +0.294 HD
ENDBRANCH   6  15
BRANCH   1  17
ATOM     17  C   UNL     1      -2.773   3.792   0.179  0.00  0.00    +0.077 C 
BRANCH  17  22
ATOM     18  C   UNL     1       2.356   1.132   0.268  0.00  0.00    +0.044 C 
ATOM     19  C   UNL     1       1.018   1.825   0.245  0.00  0.00    -0.050 A 
ATOM     20  C   UNL     1       0.377   2.130   1.431  0.00  0.00    +0.003 A 
ATOM     21  C   UNL     1      -0.850   2.766   1.410  0.00  0.00    +0.004 A 
ATOM     22  C   UNL     1      -1.435   3.099   0.202  0.00  0.00    -0.040 A 
ATOM     23  C   UNL     1      -0.791   2.800  -0.984  0.00  0.00    -0.047 A 
ATOM     24  C   UNL     1       0.433   2.158  -0.962  0.00  0.00    +0.007 A 
ATOM     25  C   UNL     1      -1.426   3.168  -2.300  0.00  0.00    +0.044 C 
ENDBRANCH  17  22
ENDBRANCH   1  17
TORSDOF 3
