REMARK  Name = ZINC50859493
REMARK  5 active torsions:
REMARK  status: ('A' for Active; 'I' for Inactive)
REMARK    1  A    between atoms: C_4  and  C_26
REMARK    2  A    between atoms: C_8  and  C_10
REMARK    3  A    between atoms: C_10  and  C_11
REMARK    4  A    between atoms: C_11  and  N_12
REMARK    5  A    between atoms: N_15  and  C_16
REMARK                            x       y       z     vdW  Elec       q    Type
REMARK                         _______ _______ _______ _____ _____    ______ ____
ROOT
ATOM      1  N   UNL     1      -3.074  -0.333   3.812  0.00  0.00    -0.299 N 
ATOM      2  C   UNL     1      -3.791  -1.041   4.707  0.00  0.00    +0.300 C 
ATOM      3  O   UNL     1      -3.761  -2.257   4.684  0.00  0.00    -0.253 OA
ATOM      4  N   UNL     1      -4.540  -0.403   5.627  0.00  0.00    -0.294 N 
ATOM      5  H   UNL     1      -3.097   0.637   3.830  0.00  0.00    +0.150 HD
ATOM      6  H   UNL     1      -4.564   0.567   5.645  0.00  0.00    +0.151 HD
ENDROOT
BRANCH   4   7
ATOM      7  C   UNL     1      -5.319  -1.173   6.599  0.00  0.00    +0.037 C 
ATOM      8  C   UNL     1      -4.377  -2.046   7.431  0.00  0.00    +0.029 C 
ATOM      9  C   UNL     1      -5.191  -2.850   8.447  0.00  0.00    -0.008 C 
ATOM     10  C   UNL     1      -5.945  -1.891   9.370  0.00  0.00    +0.007 C 
ATOM     11  C   UNL     1      -6.887  -1.018   8.538  0.00  0.00    -0.008 C 
ATOM     12  C   UNL     1      -6.074  -0.214   7.522  0.00  0.00    +0.029 C 
ATOM     13  C   UNL     1      -7.888  -1.909   7.800  0.00  0.00    +0.007 C 
ATOM     14  C   UNL     1      -7.134  -2.868   6.877  0.00  0.00    -0.008 C 
ATOM     15  C   UNL     1      -6.192  -3.740   7.708  0.00  0.00    +0.007 C 
ATOM     16  C   UNL     1      -6.320  -2.063   5.861  0.00  0.00    +0.029 C 
ENDBRANCH   4   7
BRANCH   1  17
ATOM     17  C   UNL     1      -2.259  -1.027   2.811  0.00  0.00    +0.115 C 
BRANCH  17  18
ATOM     18  C   UNL     1      -1.553   0.002   1.926  0.00  0.00    +0.114 C 
BRANCH  18  25
ATOM     19  C   UNL     1      -0.018   1.467   0.010  0.00  0.00    +0.136 C 
ATOM     20  C   UNL     1       1.430   1.970  -0.001  0.00  0.00    +0.180 C 
ATOM     21  O   UNL     1       2.135   1.351  -1.079  0.00  0.00    -0.364 OA
ATOM     22  C   UNL     1       2.234  -0.071  -0.974  0.00  0.00    +0.221 C 
ATOM     23  C   UNL     1       0.827  -0.679  -1.012  0.00  0.00    +0.149 C 
ATOM     24  N   UNL     1       0.002  -0.004   0.002  0.00  0.00    -0.296 N 
ATOM     25  C   UNL     1      -0.715  -0.713   0.897  0.00  0.00    +0.217 C 
ATOM     26  O   UNL     1      -0.685  -1.925   0.874  0.00  0.00    -0.276 OA
BRANCH  22  27
ATOM     27  C   UNL     1       3.047  -0.606  -2.124  0.00  0.00    +0.241 C 
ATOM     28  O   UNL     1       3.420   0.142  -3.003  0.00  0.00    -0.273 OA
ATOM     29  N   UNL     1       3.358  -1.917  -2.178  0.00  0.00    -0.327 N 
ATOM     30  H   UNL     1       3.059  -2.515  -1.476  0.00  0.00    +0.145 HD
ATOM     31  H   UNL     1       3.881  -2.261  -2.919  0.00  0.00    +0.145 HD
ENDBRANCH  22  27
ENDBRANCH  18  25
ENDBRANCH  17  18
ENDBRANCH   1  17
TORSDOF 5
