REMARK  Name = ZINC67185971
REMARK  6 active torsions:
REMARK  status: ('A' for Active; 'I' for Inactive)
REMARK    1  A    between atoms: C_1  and  C_2
REMARK    2  A    between atoms: C_2  and  C_4
REMARK    3  A    between atoms: C_2  and  N_15
REMARK    4  A    between atoms: N_15  and  C_16
REMARK    5  A    between atoms: C_16  and  C_17
REMARK    6  A    between atoms: C_20  and  C_22
REMARK                            x       y       z     vdW  Elec       q    Type
REMARK                         _______ _______ _______ _____ _____    ______ ____
ROOT
ATOM      1  C   UNL     1      -0.019   1.526   0.010  0.00  0.00    -0.009 C 
ATOM      2  C   UNL     1       0.002  -0.004   0.002  0.00  0.00    -0.043 C 
ENDROOT
BRANCH   2   3
ATOM      3  C   UNL     1       0.731  -0.503   1.223  0.00  0.00    -0.060 A 
ATOM      4  C   UNL     1       0.079  -0.558   2.441  0.00  0.00    +0.006 A 
ATOM      5  C   UNL     1       0.740  -1.016   3.566  0.00  0.00    +0.048 A 
ATOM      6  C   UNL     1       2.060  -1.421   3.473  0.00  0.00    +0.142 A 
ATOM      7  C   UNL     1       2.718  -1.365   2.245  0.00  0.00    +0.076 A 
ATOM      8  C   UNL     1       2.048  -0.911   1.121  0.00  0.00    +0.029 A 
ATOM      9  N   UNL     1       4.056  -1.776   2.165  0.00  0.00    -0.280 N 
ATOM     10  C   UNL     1       4.580  -2.501   3.177  0.00  0.00    +0.255 C 
ATOM     11  O   UNL     1       5.744  -2.841   3.144  0.00  0.00    -0.272 OA
ATOM     12  C   UNL     1       3.712  -2.886   4.348  0.00  0.00    +0.325 C 
ATOM     13  O   UNL     1       2.726  -1.875   4.568  0.00  0.00    -0.481 OA
ATOM     14  H   UNL     1       4.597  -1.543   1.394  0.00  0.00    +0.155 HD
ENDBRANCH   2   3
BRANCH   2  15
ATOM     15  N   UNL     1      -1.376  -0.512   0.012  0.00  0.00    +0.387 N 
ATOM     16  H   UNL     1      -1.363  -1.518   0.090  0.00  0.00    -0.085 HD
ATOM     17  H   UNL     1      -1.873  -0.121   0.799  0.00  0.00    -0.085 HD
BRANCH  15  18
ATOM     18  C   UNL     1      -2.050  -0.126  -1.234  0.00  0.00    -0.025 C 
BRANCH  18  19
ATOM     19  C   UNL     1      -3.464  -0.648  -1.224  0.00  0.00    +0.032 A 
ATOM     20  C   UNL     1      -4.480   0.153  -0.812  0.00  0.00    +0.068 A 
ATOM     21  S   UNL     1      -5.872  -0.954  -1.006  0.00  0.00    -0.075 S 
ATOM     22  C   UNL     1      -4.949  -2.360  -1.613  0.00  0.00    +0.109 A 
ATOM     23  N   UNL     1      -3.715  -1.876  -1.617  0.00  0.00    -0.246 NA
BRANCH  22  24
ATOM     24  C   UNL     1      -5.433  -3.700  -2.008  0.00  0.00    +0.014 A 
ATOM     25  C   UNL     1      -6.788  -4.018  -1.942  0.00  0.00    +0.018 A 
ATOM     26  C   UNL     1      -7.191  -5.253  -2.311  0.00  0.00    +0.046 A 
ATOM     27  S   UNL     1      -5.654  -6.031  -2.776  0.00  0.00    -0.104 S 
ATOM     28  C   UNL     1      -4.561  -4.657  -2.454  0.00  0.00    +0.055 A 
ENDBRANCH  22  24
ENDBRANCH  18  19
ENDBRANCH  15  18
ENDBRANCH   2  15
TORSDOF 5
