REMARK  Name = ZINC62350766
REMARK  7 active torsions:
REMARK  status: ('A' for Active; 'I' for Inactive)
REMARK    1  A    between atoms: C_1  and  C_2
REMARK    2  A    between atoms: C_7  and  C_8
REMARK    3  A    between atoms: C_7  and  C_9
REMARK    4  A    between atoms: C_11  and  N_13
REMARK    5  A    between atoms: N_13  and  C_14
REMARK    6  A    between atoms: N_17  and  C_19
REMARK    7  A    between atoms: C_19  and  C_20
REMARK                            x       y       z     vdW  Elec       q    Type
REMARK                         _______ _______ _______ _____ _____    ______ ____
ROOT
ATOM      1  N   UNL     1      -2.268  -0.017   1.012  0.00  0.00    -0.338 N 
ATOM      2  H   UNL     1      -1.886   0.499   1.739  0.00  0.00    +0.146 HD
ENDROOT
BRANCH   1  12
ATOM      3  C   UNL     1      -0.019   1.526   0.010  0.00  0.00    +0.013 C 
ATOM      4  C   UNL     1       0.002  -0.004   0.002  0.00  0.00    -0.008 C 
ATOM      5  C   UNL     1       0.744  -0.669  -1.197  0.00  0.00    +0.009 C 
ATOM      6  C   UNL     1       1.062  -2.103  -0.714  0.00  0.00    +0.005 C 
ATOM      7  C   UNL     1       0.481  -2.169   0.732  0.00  0.00    -0.003 C 
ATOM      8  C   UNL     1       0.727  -0.695   1.211  0.00  0.00    -0.025 C 
ATOM      9  C   UNL     1       2.216  -0.348   1.260  0.00  0.00    +0.012 C 
ATOM     10  C   UNL     1       0.031  -0.400   2.541  0.00  0.00    +0.012 C 
ATOM     11  C   UNL     1      -1.065  -2.175   0.532  0.00  0.00    +0.026 C 
ATOM     12  C   UNL     1      -1.389  -0.705   0.062  0.00  0.00    +0.077 C 
ENDBRANCH   1  12
BRANCH   1  13
ATOM     13  C   UNL     1      -3.666  -0.104   0.868  0.00  0.00    +0.065 A 
ATOM     14  C   UNL     1      -4.351  -0.815  -0.127  0.00  0.00    +0.157 A 
ATOM     15  N   UNL     1      -5.636  -0.661   0.066  0.00  0.00    -0.177 NA
ATOM     16  N   UNL     1      -5.818   0.154   1.191  0.00  0.00    -0.261 N 
ATOM     17  C   UNL     1      -4.589   0.481   1.672  0.00  0.00    +0.131 A 
BRANCH  16  18
ATOM     18  C   UNL     1      -7.104   0.574   1.752  0.00  0.00    +0.238 C 
BRANCH  18  19
ATOM     19  C   UNL     1      -7.924   1.246   0.681  0.00  0.00    +0.232 C 
ATOM     20  O   UNL     1      -7.478   1.361  -0.441  0.00  0.00    -0.274 OA
ATOM     21  N   UNL     1      -9.153   1.717   0.969  0.00  0.00    -0.328 N 
ATOM     22  H   UNL     1      -9.510   1.625   1.866  0.00  0.00    +0.145 HD
ATOM     23  H   UNL     1      -9.681   2.150   0.279  0.00  0.00    +0.145 HD
ENDBRANCH  18  19
ENDBRANCH  16  18
ENDBRANCH   1  13
TORSDOF 4
