REMARK  Name = ZINC09138325
REMARK  8 active torsions:
REMARK  status: ('A' for Active; 'I' for Inactive)
REMARK    1  A    between atoms: C_1  and  C_2
REMARK    2  A    between atoms: C_5  and  N_9
REMARK    3  A    between atoms: C_10  and  C_12
REMARK    4  A    between atoms: N_14  and  C_15
REMARK    5  A    between atoms: C_15  and  C_16
REMARK    6  A    between atoms: C_16  and  C_18
REMARK    7  A    between atoms: C_16  and  N_66
REMARK    8  A    between atoms: N_27  and  C_28
REMARK                            x       y       z     vdW  Elec       q    Type
REMARK                         _______ _______ _______ _____ _____    ______ ____
ROOT
ATOM      1  C   UNL     1      -2.111  -1.108   0.732  0.00  0.00    -0.020 C 
ENDROOT
BRANCH   1   2
ATOM      2  C   UNL     1      -0.715  -0.556   0.592  0.00  0.00    -0.059 A 
ATOM      3  C   UNL     1      -0.505   0.633  -0.083  0.00  0.00    +0.004 A 
ATOM      4  C   UNL     1       0.772   1.132  -0.217  0.00  0.00    +0.023 A 
ATOM      5  C   UNL     1       1.860   0.444   0.324  0.00  0.00    +0.033 A 
ATOM      6  C   UNL     1       1.644  -0.743   1.001  0.00  0.00    -0.026 A 
ATOM      7  C   UNL     1       0.356  -1.239   1.132  0.00  0.00    +0.007 A 
ATOM      8  C   UNL     1       2.774  -1.529   1.618  0.00  0.00    +0.038 C 
ATOM      9  C   UNL     1       4.109  -1.042   1.051  0.00  0.00    +0.024 C 
ATOM     10  C   UNL     1       4.114   0.491   1.104  0.00  0.00    +0.105 C 
ATOM     11  N   UNL     1       3.128   0.996   0.146  0.00  0.00    -0.333 N 
ATOM     12  C   UNL     1       3.072   2.463   0.173  0.00  0.00    +0.129 C 
ENDBRANCH   1   2
BRANCH   1  18
ATOM     13  C   UNL     1      -4.142  -0.408   1.847  0.00  0.00    -0.078 C 
ATOM     14  C   UNL     1      -5.022   0.803   2.163  0.00  0.00    -0.019 C 
ATOM     15  C   UNL     1      -5.596   1.364   0.859  0.00  0.00    -0.004 C 
ATOM     16  C   UNL     1      -4.444   1.733  -0.080  0.00  0.00    -0.019 C 
ATOM     17  C   UNL     1      -3.581   0.495  -0.331  0.00  0.00    -0.078 C 
ATOM     18  N   UNL     1      -3.039   0.018   0.959  0.00  0.00    +0.385 N 
ATOM     19  H   UNL     1      -2.527   0.786   1.409  0.00  0.00    -0.081 HD
ENDBRANCH   1  18
BRANCH   1  20
ATOM     20  C   UNL     1      -2.490  -1.863  -0.544  0.00  0.00    +0.094 C 
BRANCH  20  23
ATOM     21  C   UNL     1      -4.399  -3.114  -1.400  0.00  0.00    +0.299 C 
ATOM     22  O   UNL     1      -3.866  -3.122  -2.491  0.00  0.00    -0.265 OA
ATOM     23  N   UNL     1      -3.792  -2.510  -0.359  0.00  0.00    -0.309 N 
ATOM     24  H   UNL     1      -4.217  -2.503   0.513  0.00  0.00    +0.149 HD
BRANCH  21  26
ATOM     25  N   UNL     1      -6.332  -4.377  -2.253  0.00  0.00    -0.278 N 
ATOM     26  C   UNL     1      -5.725  -3.773  -1.212  0.00  0.00    +0.303 C 
ATOM     27  O   UNL     1      -6.258  -3.765  -0.121  0.00  0.00    -0.265 OA
ATOM     28  H   UNL     1      -5.874  -4.449  -3.105  0.00  0.00    +0.155 HD
BRANCH  25  33
ATOM     29  C   UNL     1     -11.559  -6.497  -1.655  0.00  0.00    +0.047 C 
ATOM     30  C   UNL     1     -10.171  -5.933  -1.814  0.00  0.00    -0.015 A 
ATOM     31  C   UNL     1      -9.278  -6.532  -2.683  0.00  0.00    +0.008 A 
ATOM     32  C   UNL     1      -8.006  -6.016  -2.835  0.00  0.00    +0.024 A 
ATOM     33  C   UNL     1      -7.620  -4.898  -2.104  0.00  0.00    +0.037 A 
ATOM     34  C   UNL     1      -8.517  -4.298  -1.232  0.00  0.00    +0.062 A 
ATOM     35  C   UNL     1      -9.791  -4.816  -1.088  0.00  0.00    +0.128 A 
ATOM     36  F   UNL     1     -10.666  -4.234  -0.239  0.00  0.00    -0.205 F 
ENDBRANCH  25  33
ENDBRANCH  21  26
ENDBRANCH  20  23
ENDBRANCH   1  20
TORSDOF 6
