REMARK  Name = ZINC47156223
REMARK  6 active torsions:
REMARK  status: ('A' for Active; 'I' for Inactive)
REMARK    1  A    between atoms: C_1  and  C_2
REMARK    2  A    between atoms: C_2  and  C_4
REMARK    3  A    between atoms: C_2  and  N_14
REMARK    4  A    between atoms: N_17  and  C_18
REMARK    5  A    between atoms: C_23  and  O_24
REMARK    6  A    between atoms: O_24  and  C_25
REMARK                            x       y       z     vdW  Elec       q    Type
REMARK                         _______ _______ _______ _____ _____    ______ ____
ROOT
ATOM      1  N   UNL     1       0.552  -0.092  -1.589  0.00  0.00    -0.293 N 
ATOM      2  C   UNL     1       1.874   0.134  -1.719  0.00  0.00    +0.304 C 
ATOM      3  O   UNL     1       2.387   1.084  -1.159  0.00  0.00    -0.252 OA
ATOM      4  N   UNL     1       2.629  -0.692  -2.470  0.00  0.00    -0.266 N 
ATOM      5  H   UNL     1       0.143  -0.850  -2.036  0.00  0.00    +0.151 HD
ATOM      6  H   UNL     1       2.229  -1.475  -2.880  0.00  0.00    +0.156 HD
ENDROOT
BRANCH   4   7
ATOM      7  C   UNL     1       3.991  -0.420  -2.659  0.00  0.00    +0.077 A 
ATOM      8  C   UNL     1       4.675   0.368  -1.746  0.00  0.00    +0.027 A 
ATOM      9  C   UNL     1       6.018   0.635  -1.934  0.00  0.00    +0.002 A 
ATOM     10  C   UNL     1       6.683   0.117  -3.031  0.00  0.00    +0.004 A 
ATOM     11  C   UNL     1       6.007  -0.669  -3.945  0.00  0.00    +0.048 A 
ATOM     12  C   UNL     1       4.662  -0.946  -3.761  0.00  0.00    +0.150 A 
BRANCH  12  13
ATOM     13  O   UNL     1       3.997  -1.725  -4.655  0.00  0.00    -0.454 OA
BRANCH  13  14
ATOM     14  C   UNL     1       4.675  -2.158  -5.751  0.00  0.00    +0.129 A 
ATOM     15  C   UNL     1       5.379  -3.353  -5.705  0.00  0.00    +0.046 A 
ATOM     16  C   UNL     1       6.066  -3.792  -6.820  0.00  0.00    +0.004 A 
ATOM     17  C   UNL     1       6.054  -3.041  -7.981  0.00  0.00    +0.000 A 
ATOM     18  C   UNL     1       5.353  -1.850  -8.029  0.00  0.00    +0.004 A 
ATOM     19  C   UNL     1       4.659  -1.409  -6.919  0.00  0.00    +0.046 A 
ENDBRANCH  13  14
ENDBRANCH  12  13
ENDBRANCH   4   7
BRANCH   1  21
ATOM     20  C   UNL     1      -0.705   2.006  -1.616  0.00  0.00    +0.033 C 
ATOM     21  C   UNL     1      -0.268   0.806  -0.772  0.00  0.00    +0.102 C 
BRANCH  21  22
ATOM     22  C   UNL     1      -1.486   0.067  -0.281  0.00  0.00    -0.027 A 
ATOM     23  C   UNL     1      -2.147  -0.814  -1.118  0.00  0.00    +0.007 A 
ATOM     24  C   UNL     1      -3.262  -1.493  -0.674  0.00  0.00    +0.024 A 
ATOM     25  C   UNL     1      -3.731  -1.296   0.623  0.00  0.00    +0.037 A 
ATOM     26  C   UNL     1      -3.058  -0.410   1.454  0.00  0.00    -0.017 A 
ATOM     27  C   UNL     1      -1.943   0.264   1.010  0.00  0.00    +0.011 A 
ATOM     28  C   UNL     1      -3.799  -0.416   2.772  0.00  0.00    +0.133 C 
ATOM     29  C   UNL     1      -4.931  -1.397   2.552  0.00  0.00    +0.222 C 
ATOM     30  O   UNL     1      -5.780  -1.710   3.361  0.00  0.00    -0.275 OA
ATOM     31  N   UNL     1      -4.819  -1.856   1.294  0.00  0.00    -0.285 N 
ATOM     32  H   UNL     1      -5.425  -2.502   0.898  0.00  0.00    +0.155 HD
ENDBRANCH  21  22
ENDBRANCH   1  21
TORSDOF 5
