REMARK  Name = ZINC63731004
REMARK  7 active torsions:
REMARK  status: ('A' for Active; 'I' for Inactive)
REMARK    1  A    between atoms: C_1  and  C_2
REMARK    2  A    between atoms: C_2  and  N_3
REMARK    3  A    between atoms: N_3  and  C_4
REMARK    4  A    between atoms: C_12  and  C_14
REMARK    5  A    between atoms: C_14  and  C_16
REMARK    6  A    between atoms: C_14  and  S_17
REMARK    7  A    between atoms: S_17  and  C_18
REMARK                            x       y       z     vdW  Elec       q    Type
REMARK                         _______ _______ _______ _____ _____    ______ ____
ROOT
ATOM      1  C   UNL     1      -1.274  -0.497   2.484  0.00  0.00    +0.133 C 
ATOM      2  C   UNL     1      -0.337  -1.668   2.785  0.00  0.00    +0.029 C 
ENDROOT
BRANCH   1   4
ATOM      3  N   UNL     1      -1.372  -0.511   0.012  0.00  0.00    -0.296 N 
ATOM      4  C   UNL     1      -1.993  -0.751   1.184  0.00  0.00    +0.229 C 
ATOM      5  O   UNL     1      -3.131  -1.171   1.193  0.00  0.00    -0.274 OA
BRANCH   3   6
ATOM      6  C   UNL     1      -2.072  -0.758  -1.251  0.00  0.00    +0.098 C 
ATOM      7  C   UNL     1      -2.477  -2.239  -1.329  0.00  0.00    +0.046 C 
ATOM      8  C   UNL     1      -3.477  -2.406  -2.510  0.00  0.00    +0.168 C 
ATOM      9  S   UNL     1      -4.503  -0.890  -2.299  0.00  0.00    -0.029 S 
ATOM     10  O   UNL     1      -5.628  -1.203  -1.488  0.00  0.00    -0.174 OA
ATOM     11  O   UNL     1      -4.703  -0.287  -3.570  0.00  0.00    -0.174 OA
ATOM     12  C   UNL     1      -3.332   0.138  -1.324  0.00  0.00    +0.188 C 
ENDBRANCH   3   6
BRANCH   3  14
ATOM     13  C   UNL     1      -0.019   1.526   0.010  0.00  0.00    +0.024 C 
ATOM     14  C   UNL     1       0.002  -0.004   0.002  0.00  0.00    +0.105 C 
ENDBRANCH   3  14
ENDBRANCH   1   4
BRANCH   1  15
ATOM     15  S   UNL     1      -2.486  -0.332   3.824  0.00  0.00    -0.103 S 
BRANCH  15  16
ATOM     16  C   UNL     1      -1.485   0.116   5.269  0.00  0.00    +0.236 C 
ATOM     17  N   UNL     1      -0.732   1.347   4.998  0.00  0.00    -0.355 N 
ATOM     18  C   UNL     1       0.534   1.060   5.093  0.00  0.00    +0.061 A 
ATOM     19  C   UNL     1       1.755   1.863   4.932  0.00  0.00    +0.029 A 
ATOM     20  C   UNL     1       2.959   1.281   5.094  0.00  0.00    +0.022 A 
ATOM     21  C   UNL     1       3.106  -0.082   5.416  0.00  0.00    +0.043 A 
ATOM     22  C   UNL     1       2.051  -0.907   5.586  0.00  0.00    +0.047 A 
ATOM     23  C   UNL     1       0.689  -0.381   5.433  0.00  0.00    +0.062 A 
ATOM     24  N   UNL     1      -0.489  -0.930   5.535  0.00  0.00    -0.355 N 
ATOM     25 CL   UNL     1       4.707  -0.727   5.602  0.00  0.00    -0.083 Cl
ATOM     26  H   UNL     1      -1.109   2.215   4.787  0.00  0.00    +0.162 HD
ATOM     27  H   UNL     1      -0.674  -1.858   5.749  0.00  0.00    +0.162 HD
ENDBRANCH  15  16
ENDBRANCH   1  15
TORSDOF 5
