REMARK  Name = ZINC05444253
REMARK  10 active torsions:
REMARK  status: ('A' for Active; 'I' for Inactive)
REMARK    1  A    between atoms: C_1  and  C_2
REMARK    2  A    between atoms: C_2  and  C_3
REMARK    3  A    between atoms: C_3  and  C_4
REMARK    4  A    between atoms: C_3  and  C_5
REMARK    5  A    between atoms: C_3  and  N_6
REMARK    6  A    between atoms: C_7  and  C_11
REMARK    7  A    between atoms: C_11  and  C_13
REMARK    8  A    between atoms: C_11  and  N_62
REMARK    9  A    between atoms: C_19  and  C_25
REMARK   10  A    between atoms: C_29  and  C_32
REMARK                            x       y       z     vdW  Elec       q    Type
REMARK                         _______ _______ _______ _____ _____    ______ ____
ROOT
ATOM      1  C   UNL     1       2.567   3.833   0.041  0.00  0.00    +0.039 C 
ENDROOT
BRANCH   1   2
ATOM      2  C   UNL     1       1.374   2.931   0.227  0.00  0.00    +0.011 A 
ATOM      3  C   UNL     1       0.126   3.461   0.257  0.00  0.00    +0.017 A 
ATOM      4  C   UNL     1      -1.012   2.558   0.438  0.00  0.00    -0.001 A 
ATOM      5  C   UNL     1      -2.324   3.044   0.476  0.00  0.00    +0.010 A 
ATOM      6  C   UNL     1      -3.364   2.175   0.647  0.00  0.00    +0.001 A 
ATOM      7  C   UNL     1      -3.132   0.813   0.781  0.00  0.00    +0.005 A 
ATOM      8  C   UNL     1      -1.849   0.311   0.746  0.00  0.00    -0.026 A 
ATOM      9  C   UNL     1      -0.774   1.177   0.569  0.00  0.00    +0.052 A 
ATOM     10  N   UNL     1       0.520   0.703   0.535  0.00  0.00    -0.322 N 
ATOM     11  H   UNL     1       0.689  -0.278   0.635  0.00  0.00    +0.169 HD
ATOM     12  C   UNL     1       1.559   1.539   0.368  0.00  0.00    +0.251 A 
ATOM     13  O   UNL     1       2.690   1.085   0.338  0.00  0.00    -0.268 OA
ATOM     14  C   UNL     1      -1.611  -1.169   0.892  0.00  0.00    +0.046 C 
ENDBRANCH   1   2
BRANCH   1  21
ATOM     15  C   UNL     1       4.737   4.414   0.944  0.00  0.00    -0.077 C 
ATOM     16  C   UNL     1       5.758   4.059   2.027  0.00  0.00    -0.018 C 
ATOM     17  C   UNL     1       5.156   4.348   3.405  0.00  0.00    -0.001 C 
ATOM     18  C   UNL     1       3.862   3.546   3.565  0.00  0.00    -0.031 C 
ATOM     19  C   UNL     1       2.895   3.915   2.438  0.00  0.00    -0.074 C 
ATOM     20  C   UNL     1       3.222   3.873   4.915  0.00  0.00    +0.005 C 
ATOM     21  N   UNL     1       3.524   3.591   1.140  0.00  0.00    +0.389 N 
ATOM     22  H   UNL     1       3.791   2.600   1.138  0.00  0.00    -0.080 HD
ENDBRANCH   1  21
BRANCH   1  24
ATOM     23  N   UNL     1       3.272   4.296  -2.366  0.00  0.00    -0.225 N 
ATOM     24  C   UNL     1       3.238   3.515  -1.270  0.00  0.00    +0.143 A 
ATOM     25  N   UNL     1       3.906   2.426  -1.564  0.00  0.00    -0.115 NA
ATOM     26  N   UNL     1       4.322   2.530  -2.779  0.00  0.00    -0.023 NA
ATOM     27  N   UNL     1       3.943   3.660  -3.266  0.00  0.00    -0.043 NA
BRANCH  23  28
ATOM     28  C   UNL     1       2.662   5.620  -2.510  0.00  0.00    +0.061 C 
ATOM     29  C   UNL     1       1.161   5.524  -2.230  0.00  0.00    +0.036 C 
ATOM     30  C   UNL     1       3.305   6.588  -1.514  0.00  0.00    +0.036 C 
BRANCH  28  32
ATOM     31  C   UNL     1       2.247   7.515  -4.085  0.00  0.00    +0.006 C 
ATOM     32  C   UNL     1       2.884   6.132  -3.934  0.00  0.00    +0.026 C 
ENDBRANCH  28  32
ENDBRANCH  23  28
ENDBRANCH   1  24
TORSDOF 5
