REMARK  Name = ZINC55634206
REMARK  9 active torsions:
REMARK  status: ('A' for Active; 'I' for Inactive)
REMARK    1  A    between atoms: C_1  and  C_2
REMARK    2  A    between atoms: C_2  and  C_3
REMARK    3  A    between atoms: C_2  and  N_15
REMARK    4  A    between atoms: C_3  and  O_4
REMARK    5  A    between atoms: O_4  and  C_5
REMARK    6  A    between atoms: C_10  and  C_11
REMARK    7  A    between atoms: C_16  and  C_18
REMARK    8  A    between atoms: C_21  and  C_24
REMARK    9  A    between atoms: C_24  and  N_25
REMARK                            x       y       z     vdW  Elec       q    Type
REMARK                         _______ _______ _______ _____ _____    ______ ____
ROOT
ATOM      1  N   UNL     1       0.711  -0.489   1.189  0.00  0.00    -0.306 N 
ATOM      2  C   UNL     1       2.054  -0.600   1.174  0.00  0.00    +0.244 C 
ATOM      3  O   UNL     1       2.677  -0.297   0.175  0.00  0.00    -0.270 OA
ATOM      4  H   UNL     1       0.213  -0.731   1.986  0.00  0.00    +0.149 HD
ENDROOT
BRANCH   2   5
ATOM      5  C   UNL     1       2.769  -1.090   2.372  0.00  0.00    +0.037 A 
ATOM      6  C   UNL     1       2.055  -1.444   3.518  0.00  0.00    +0.013 A 
ATOM      7  C   UNL     1       2.729  -1.901   4.632  0.00  0.00    +0.006 A 
ATOM      8  C   UNL     1       4.108  -2.007   4.615  0.00  0.00    -0.030 A 
ATOM      9  C   UNL     1       4.821  -1.657   3.482  0.00  0.00    +0.006 A 
ATOM     10  C   UNL     1       4.160  -1.205   2.359  0.00  0.00    +0.013 A 
BRANCH   8  11
ATOM     11  C   UNL     1       4.837  -2.507   5.836  0.00  0.00    +0.141 C 
BRANCH  11  12
ATOM     12  N   UNL     1       4.967  -3.964   5.765  0.00  0.00    -0.295 N 
ATOM     13  C   UNL     1       5.589  -4.634   6.755  0.00  0.00    +0.297 C 
ATOM     14  O   UNL     1       6.042  -4.029   7.707  0.00  0.00    -0.253 OA
ATOM     15  N   UNL     1       5.709  -5.975   6.690  0.00  0.00    -0.313 N 
ATOM     16  H   UNL     1       4.606  -4.447   5.005  0.00  0.00    +0.151 HD
ATOM     17  H   UNL     1       5.347  -6.458   5.930  0.00  0.00    +0.146 HD
ATOM     18  H   UNL     1       6.157  -6.457   7.402  0.00  0.00    +0.146 HD
ENDBRANCH  11  12
ENDBRANCH   8  11
ENDBRANCH   2   5
BRANCH   1  20
ATOM     19  C   UNL     1      -0.019   1.526   0.010  0.00  0.00    +0.031 C 
ATOM     20  C   UNL     1       0.002  -0.004   0.002  0.00  0.00    +0.108 C 
BRANCH  20  21
ATOM     21  C   UNL     1      -1.433  -0.534   0.013  0.00  0.00    +0.251 C 
BRANCH  21  22
ATOM     22  O   UNL     1      -2.137   0.021   1.126  0.00  0.00    -0.490 OA
BRANCH  22  23
ATOM     23  C   UNL     1      -3.435  -0.351   1.282  0.00  0.00    +0.132 A 
ATOM     24  C   UNL     1      -4.018  -1.235   0.386  0.00  0.00    +0.046 A 
ATOM     25  C   UNL     1      -5.337  -1.611   0.547  0.00  0.00    +0.004 A 
ATOM     26  C   UNL     1      -6.077  -1.107   1.601  0.00  0.00    +0.001 A 
ATOM     27  C   UNL     1      -5.499  -0.226   2.496  0.00  0.00    +0.016 A 
ATOM     28  C   UNL     1      -4.178   0.149   2.342  0.00  0.00    +0.096 A 
BRANCH  28  29
ATOM     29  C   UNL     1      -3.547   1.105   3.321  0.00  0.00    +0.421 C 
ATOM     30  F   UNL     1      -4.487   1.466   4.292  0.00  0.00    -0.166 F 
ATOM     31  F   UNL     1      -2.453   0.487   3.937  0.00  0.00    -0.166 F 
ATOM     32  F   UNL     1      -3.114   2.249   2.642  0.00  0.00    -0.166 F 
ENDBRANCH  28  29
ENDBRANCH  22  23
ENDBRANCH  21  22
ENDBRANCH  20  21
ENDBRANCH   1  20
TORSDOF 8
