REMARK  Name = ZINC18250508
REMARK  5 active torsions:
REMARK  status: ('A' for Active; 'I' for Inactive)
REMARK    1  A    between atoms: C_1  and  C_2
REMARK    2  A    between atoms: C_5  and  N_9
REMARK    3  A    between atoms: C_13  and  N_17
REMARK    4  A    between atoms: C_20  and  C_23
REMARK    5  A    between atoms: C_20  and  N_26
REMARK                            x       y       z     vdW  Elec       q    Type
REMARK                         _______ _______ _______ _____ _____    ______ ____
ROOT
ATOM      1  N   UNL     1       1.256  -7.626   0.641  0.00  0.00    -0.291 NA
ATOM      2  C   UNL     1       1.682  -8.997   0.331  0.00  0.00    +0.084 C 
ATOM      3  C   UNL     1       3.093  -9.229   0.876  0.00  0.00    +0.013 C 
ATOM      4  C   UNL     1       3.092  -9.005   2.391  0.00  0.00    +0.015 C 
ATOM      5  C   UNL     1       2.599  -7.587   2.689  0.00  0.00    +0.013 C 
ATOM      6  C   UNL     1       1.202  -7.402   2.091  0.00  0.00    +0.084 C 
ENDROOT
BRANCH   1  11
ATOM      7  N   UNL     1      -0.455  -5.322  -1.100  0.00  0.00    -0.209 N 
ATOM      8  C   UNL     1      -0.258  -6.195  -2.095  0.00  0.00    +0.228 C 
ATOM      9  O   UNL     1      -0.301  -5.933  -3.278  0.00  0.00    -0.275 OA
ATOM     10  C   UNL     1       0.029  -7.560  -1.510  0.00  0.00    +0.125 C 
ATOM     11  C   UNL     1      -0.037  -7.322   0.013  0.00  0.00    +0.153 C 
ATOM     12  C   UNL     1      -0.349  -5.846   0.127  0.00  0.00    +0.244 C 
ATOM     13  O   UNL     1      -0.484  -5.235   1.166  0.00  0.00    -0.273 OA
BRANCH   7  18
ATOM     14  C   UNL     1      -1.618   0.160  -2.009  0.00  0.00    +0.045 C 
ATOM     15  C   UNL     1      -1.310  -1.296  -1.768  0.00  0.00    -0.032 A 
ATOM     16  C   UNL     1      -0.156  -1.654  -1.095  0.00  0.00    +0.006 A 
ATOM     17  C   UNL     1       0.130  -2.987  -0.873  0.00  0.00    +0.024 A 
ATOM     18  C   UNL     1      -0.743  -3.968  -1.325  0.00  0.00    +0.045 A 
ATOM     19  C   UNL     1      -1.901  -3.606  -1.999  0.00  0.00    +0.044 A 
ATOM     20  C   UNL     1      -2.184  -2.270  -2.215  0.00  0.00    +0.046 A 
ATOM     21 CL   UNL     1      -3.635  -1.816  -3.053  0.00  0.00    -0.083 Cl
ENDBRANCH   7  18
ENDBRANCH   1  11
BRANCH   4  22
ATOM     22  N   UNL     1       4.456  -9.170   2.912  0.00  0.00    +0.389 N 
ATOM     23  C   UNL     1       4.944 -10.515   2.584  0.00  0.00    -0.077 C 
ATOM     24  C   UNL     1       6.393 -10.664   3.053  0.00  0.00    -0.019 C 
ATOM     25  C   UNL     1       6.458 -10.451   4.568  0.00  0.00    -0.004 C 
ATOM     26  C   UNL     1       5.877  -9.075   4.906  0.00  0.00    -0.019 C 
ATOM     27  C   UNL     1       4.447  -8.985   4.368  0.00  0.00    -0.077 C 
ATOM     28  H   UNL     1       5.062  -8.482   2.490  0.00  0.00    -0.080 HD
ENDBRANCH   4  22
BRANCH   4  29
ATOM     29  C   UNL     1       2.176 -10.006   3.047  0.00  0.00    +0.200 C 
ATOM     30  O   UNL     1       1.810 -10.986   2.434  0.00  0.00    -0.278 OA
ATOM     31  N   UNL     1       1.765  -9.812   4.316  0.00  0.00    -0.330 N 
ATOM     32  H   UNL     1       2.113  -9.066   4.830  0.00  0.00    +0.145 HD
ATOM     33  H   UNL     1       1.121 -10.418   4.715  0.00  0.00    +0.145 HD
ENDBRANCH   4  29
TORSDOF 4
