REMARK  Name = ZINC16010102
REMARK  5 active torsions:
REMARK  status: ('A' for Active; 'I' for Inactive)
REMARK    1  A    between atoms: C_1  and  O_2
REMARK    2  A    between atoms: O_2  and  C_3
REMARK    3  A    between atoms: C_8  and  N_9
REMARK    4  A    between atoms: C_14  and  C_31
REMARK    5  A    between atoms: C_31  and  C_32
REMARK                            x       y       z     vdW  Elec       q    Type
REMARK                         _______ _______ _______ _____ _____    ______ ____
ROOT
ATOM      1  N   UNL     1       0.852  -3.401   0.123  0.00  0.00    -0.206 N 
ATOM      2  C   UNL     1      -0.461  -3.346   0.372  0.00  0.00    +0.232 C 
ATOM      3  O   UNL     1      -1.238  -2.566  -0.136  0.00  0.00    -0.274 OA
ATOM      4  C   UNL     1      -0.827  -4.407   1.384  0.00  0.00    +0.108 C 
ATOM      5  C   UNL     1      -1.706  -5.478   0.706  0.00  0.00    +0.076 C 
ATOM      6  N   UNL     1      -0.744  -6.446   0.116  0.00  0.00    -0.295 NA
ATOM      7  C   UNL     1       0.333  -6.540   1.120  0.00  0.00    +0.136 C 
ATOM      8  C   UNL     1       0.530  -5.108   1.675  0.00  0.00    +0.123 C 
ATOM      9  C   UNL     1       1.505  -4.355   0.797  0.00  0.00    +0.233 C 
ATOM     10  O   UNL     1       2.693  -4.580   0.719  0.00  0.00    -0.274 OA
ATOM     11  C   UNL     1       1.599  -7.084   0.522  0.00  0.00    +0.003 A 
ATOM     12  C   UNL     1       2.420  -6.667  -0.501  0.00  0.00    +0.008 A 
ATOM     13  C   UNL     1       3.546  -7.401  -0.829  0.00  0.00    +0.000 A 
ATOM     14  C   UNL     1       3.845  -8.554  -0.126  0.00  0.00    +0.002 A 
ATOM     15  C   UNL     1       3.026  -8.975   0.902  0.00  0.00    +0.023 A 
ATOM     16  C   UNL     1       1.890  -8.242   1.238  0.00  0.00    +0.039 A 
ATOM     17  N   UNL     1       0.923  -8.458   2.222  0.00  0.00    -0.283 N 
ATOM     18  C   UNL     1      -0.026  -7.503   2.219  0.00  0.00    +0.243 C 
ATOM     19  O   UNL     1      -0.985  -7.432   2.959  0.00  0.00    -0.273 OA
ATOM     20  H   UNL     1      -1.179  -7.344  -0.032  0.00  0.00    +0.124 HD
ATOM     21  H   UNL     1       0.933  -9.210   2.835  0.00  0.00    +0.155 HD
ENDROOT
BRANCH   1  27
ATOM     22  C   UNL     1       2.018  -1.326  -0.327  0.00  0.00    +0.142 A 
ATOM     23  C   UNL     1       2.654  -0.476  -1.217  0.00  0.00    +0.049 A 
ATOM     24  C   UNL     1       2.759  -0.825  -2.551  0.00  0.00    +0.024 A 
ATOM     25  C   UNL     1       2.232  -2.022  -3.000  0.00  0.00    +0.043 A 
ATOM     26  C   UNL     1       1.596  -2.876  -2.117  0.00  0.00    +0.047 A 
ATOM     27  C   UNL     1       1.492  -2.534  -0.776  0.00  0.00    +0.087 A 
ATOM     28 CL   UNL     1       2.367  -2.454  -4.676  0.00  0.00    -0.083 Cl
BRANCH  22  30
ATOM     29  C   UNL     1       2.477   0.270   1.375  0.00  0.00    +0.277 C 
ATOM     30  O   UNL     1       1.914  -0.984   0.985  0.00  0.00    -0.493 OA
ENDBRANCH  22  30
ENDBRANCH   1  27
BRANCH   5  31
ATOM     31  C   UNL     1      -2.594  -6.171   1.742  0.00  0.00    +0.115 C 
BRANCH  31  32
ATOM     32  C   UNL     1      -3.923  -5.464   1.818  0.00  0.00    +0.212 C 
ATOM     33  O   UNL     1      -4.138  -4.501   1.113  0.00  0.00    -0.276 OA
ATOM     34  N   UNL     1      -4.872  -5.902   2.669  0.00  0.00    -0.329 N 
ATOM     35  H   UNL     1      -4.699  -6.672   3.233  0.00  0.00    +0.145 HD
ATOM     36  H   UNL     1      -5.727  -5.447   2.718  0.00  0.00    +0.145 HD
ENDBRANCH  31  32
ENDBRANCH   5  31
TORSDOF 4
