REMARK  Name = ZINC01047393
REMARK  6 active torsions:
REMARK  status: ('A' for Active; 'I' for Inactive)
REMARK    1  A    between atoms: C_1  and  C_2
REMARK    2  A    between atoms: C_3  and  N_22
REMARK    3  A    between atoms: C_4  and  C_8
REMARK    4  A    between atoms: N_5  and  C_7
REMARK    5  A    between atoms: N_10  and  N_11
REMARK    6  A    between atoms: C_12  and  C_14
REMARK                            x       y       z     vdW  Elec       q    Type
REMARK                         _______ _______ _______ _____ _____    ______ ____
ROOT
ATOM      1  C   UNL     1      -2.435   8.042   0.064  0.00  0.00    +0.280 C 
ATOM      2  O   UNL     1      -3.478   7.420  -0.010  0.00  0.00    -0.267 OA
ATOM      3  N   UNL     1      -1.257   7.388   0.037  0.00  0.00    -0.229 N 
ATOM      4  H   UNL     1      -0.425   7.887   0.021  0.00  0.00    +0.173 HD
ENDROOT
BRANCH   1   8
ATOM      5  C   UNL     1      -2.714  13.008  -0.927  0.00  0.00    +0.070 C 
ATOM      6  C   UNL     1      -2.579  11.677  -0.233  0.00  0.00    +0.091 A 
ATOM      7  C   UNL     1      -2.623  10.422  -0.844  0.00  0.00    +0.179 A 
ATOM      8  C   UNL     1      -2.460   9.508   0.183  0.00  0.00    +0.155 A 
ATOM      9  N   UNL     1      -2.321  10.241   1.327  0.00  0.00    -0.260 N 
ATOM     10  N   UNL     1      -2.395  11.493   1.050  0.00  0.00    -0.174 NA
ATOM     11  C   UNL     1      -2.117   9.683   2.667  0.00  0.00    +0.173 C 
BRANCH   7  12
ATOM     12  N   UNL     1      -2.808  10.131  -2.284  0.00  0.00    +0.061 N 
ATOM     13  O   UNL     1      -3.929   9.982  -2.736  0.00  0.00    -0.126 OA
ATOM     14  O   UNL     1      -1.839  10.041  -3.016  0.00  0.00    -0.126 OA
ENDBRANCH   7  12
ENDBRANCH   1   8
BRANCH   3  15
ATOM     15  N   UNL     1      -1.233   5.987   0.033  0.00  0.00    -0.230 N 
ATOM     16  C   UNL     1      -0.055   5.333   0.006  0.00  0.00    +0.260 C 
ATOM     17  O   UNL     1       0.987   5.958  -0.014  0.00  0.00    -0.269 OA
ATOM     18  H   UNL     1      -2.065   5.488   0.050  0.00  0.00    +0.173 HD
BRANCH  16  19
ATOM     19  C   UNL     1      -0.030   3.855   0.002  0.00  0.00    +0.041 A 
ATOM     20  C   UNL     1       1.189   3.175  -0.026  0.00  0.00    +0.033 A 
ATOM     21  C   UNL     1       1.206   1.794  -0.030  0.00  0.00    +0.043 A 
ATOM     22  C   UNL     1       0.017   1.084  -0.007  0.00  0.00    +0.040 A 
ATOM     23  C   UNL     1      -1.195   1.753   0.016  0.00  0.00    +0.043 A 
ATOM     24  C   UNL     1      -1.225   3.134   0.025  0.00  0.00    +0.033 A 
ATOM     25 CL   UNL     1      -2.680   0.855   0.037  0.00  0.00    -0.083 Cl
ATOM     26 CL   UNL     1       2.720   0.946  -0.065  0.00  0.00    -0.083 Cl
ENDBRANCH  16  19
ENDBRANCH   3  15
TORSDOF 4
