REMARK  Name = ZINC19707593
REMARK  5 active torsions:
REMARK  status: ('A' for Active; 'I' for Inactive)
REMARK    1  A    between atoms: C_1  and  C_2
REMARK    2  A    between atoms: C_2  and  C_3
REMARK    3  A    between atoms: C_9  and  C_16
REMARK    4  A    between atoms: C_10  and  C_14
REMARK    5  A    between atoms: C_11  and  N_13
REMARK                            x       y       z     vdW  Elec       q    Type
REMARK                         _______ _______ _______ _____ _____    ______ ____
ROOT
ATOM      1  C   UNL     1       1.711  -2.981   3.632  0.00  0.00    -0.006 C 
ATOM      2  C   UNL     1       0.900  -4.281   3.603  0.00  0.00    +0.010 C 
ATOM      3  C   UNL     1       1.343  -5.099   2.392  0.00  0.00    +0.056 C 
ATOM      4  C   UNL     1       1.302  -4.259   1.140  0.00  0.00    +0.047 A 
ATOM      5  C   UNL     1       1.278  -2.885   1.179  0.00  0.00    -0.017 A 
ATOM      6  C   UNL     1       1.248  -2.163  -0.022  0.00  0.00    +0.009 A 
ATOM      7  C   UNL     1       1.249  -2.875  -1.237  0.00  0.00    +0.099 A 
ATOM      8  C   UNL     1       1.274  -4.279  -1.186  0.00  0.00    +0.135 A 
ATOM      9  N   UNL     1       1.300  -4.902  -0.023  0.00  0.00    -0.236 NA
ATOM     10  C   UNL     1       1.255  -2.105   2.466  0.00  0.00    +0.041 C 
ENDROOT
BRANCH   6  11
ATOM     11  C   UNL     1       1.221  -0.682  -0.013  0.00  0.00    +0.002 A 
ATOM     12  C   UNL     1       0.002  -0.004   0.002  0.00  0.00    +0.010 A 
ATOM     13  C   UNL     1      -0.017   1.375   0.010  0.00  0.00    +0.001 A 
ATOM     14  C   UNL     1       1.170   2.087   0.002  0.00  0.00    +0.001 A 
ATOM     15  C   UNL     1       2.382   1.421  -0.013  0.00  0.00    +0.020 A 
ATOM     16  C   UNL     1       2.415   0.040  -0.021  0.00  0.00    +0.049 A 
ATOM     17 CL   UNL     1       3.937  -0.794  -0.039  0.00  0.00    -0.083 Cl
ENDBRANCH   6  11
BRANCH   8  18
ATOM     18  N   UNL     1       1.270  -5.011  -2.361  0.00  0.00    -0.342 N 
ATOM     19  H   UNL     1       1.289  -6.110  -2.323  0.00  0.00    +0.144 HD
ATOM     20  H   UNL     1       1.248  -4.494  -3.331  0.00  0.00    +0.144 HD
ENDBRANCH   8  18
BRANCH   1  22
ATOM     21  C   UNL     1       2.014  -3.090   6.109  0.00  0.00    +0.004 C 
ATOM     22  C   UNL     1       1.467  -2.249   4.954  0.00  0.00    +0.000 C 
ENDBRANCH   1  22
BRANCH   7  23
ATOM     23  C   UNL     1       1.227  -2.186  -2.492  0.00  0.00    +0.103 C 
ATOM     24  N   UNL     1       1.209  -1.639  -3.488  0.00  0.00    -0.191 NA
ENDBRANCH   7  23
TORSDOF 4
