REMARK  Name = ZINC21508060
REMARK  7 active torsions:
REMARK  status: ('A' for Active; 'I' for Inactive)
REMARK    1  A    between atoms: C_1  and  C_2
REMARK    2  A    between atoms: C_5  and  N_9
REMARK    3  A    between atoms: N_9  and  S_10
REMARK    4  A    between atoms: S_10  and  C_13
REMARK    5  A    between atoms: C_16  and  O_20
REMARK    6  A    between atoms: C_18  and  N_19
REMARK    7  A    between atoms: O_20  and  C_21
REMARK                            x       y       z     vdW  Elec       q    Type
REMARK                         _______ _______ _______ _____ _____    ______ ____
ROOT
ATOM      1  S   UNL     1       2.208  -0.728  -1.092  0.00  0.00    +0.074 S 
ATOM      2  O   UNL     1       3.405  -1.490  -1.025  0.00  0.00    -0.150 OA
ATOM      3  O   UNL     1       0.925  -1.304  -0.887  0.00  0.00    -0.150 OA
ENDROOT
BRANCH   1   4
ATOM      4  C   UNL     1       2.175   0.020  -2.687  0.00  0.00    +0.129 A 
ATOM      5  C   UNL     1       3.178  -0.253  -3.598  0.00  0.00    +0.034 A 
ATOM      6  C   UNL     1       3.155   0.331  -4.850  0.00  0.00    +0.047 A 
ATOM      7  C   UNL     1       2.124   1.194  -5.197  0.00  0.00    +0.122 A 
ATOM      8  C   UNL     1       1.117   1.470  -4.286  0.00  0.00    +0.070 A 
ATOM      9  C   UNL     1       1.138   0.878  -3.031  0.00  0.00    +0.055 A 
BRANCH   9  10
ATOM     10  N   UNL     1       0.122   1.149  -2.112  0.00  0.00    -0.356 N 
ATOM     11  H   UNL     1      -0.699   1.829  -2.385  0.00  0.00    +0.142 HD
ATOM     12  H   UNL     1       0.141   0.682  -1.116  0.00  0.00    +0.142 HD
ENDBRANCH   9  10
BRANCH   7  13
ATOM     13  O   UNL     1       2.103   1.767  -6.429  0.00  0.00    -0.495 OA
ATOM     14  C   UNL     1       3.172   1.437  -7.317  0.00  0.00    +0.277 C 
ENDBRANCH   7  13
ENDBRANCH   1   4
BRANCH   1  15
ATOM     15  N   UNL     1       2.362   0.492   0.017  0.00  0.00    -0.215 N 
ATOM     16  H   UNL     1       1.532   0.721   0.702  0.00  0.00    +0.174 HD
BRANCH  15  21
ATOM     17  C   UNL     1       7.170   3.489   0.286  0.00  0.00    +0.044 C 
ATOM     18  C   UNL     1       5.892   2.693   0.215  0.00  0.00    -0.049 A 
ATOM     19  C   UNL     1       5.426   2.244  -1.007  0.00  0.00    +0.005 A 
ATOM     20  C   UNL     1       4.253   1.518  -1.077  0.00  0.00    +0.026 A 
ATOM     21  C   UNL     1       3.546   1.231   0.084  0.00  0.00    +0.062 A 
ATOM     22  C   UNL     1       4.019   1.680   1.311  0.00  0.00    +0.040 A 
ATOM     23  C   UNL     1       5.191   2.410   1.372  0.00  0.00    +0.020 A 
ATOM     24 BR   UNL     1       3.061   1.293   2.894  0.00  0.00    -0.048 Br
ENDBRANCH  15  21
ENDBRANCH   1  15
TORSDOF 5
