REMARK  Name = ZINC20610662
REMARK  8 active torsions:
REMARK  status: ('A' for Active; 'I' for Inactive)
REMARK    1  A    between atoms: C_1  and  C_2
REMARK    2  A    between atoms: C_2  and  O_3
REMARK    3  A    between atoms: O_3  and  C_4
REMARK    4  A    between atoms: C_4  and  C_6
REMARK    5  A    between atoms: C_9  and  N_12
REMARK    6  A    between atoms: C_17  and  C_36
REMARK    7  A    between atoms: C_27  and  C_35
REMARK    8  A    between atoms: C_36  and  C_37
REMARK                            x       y       z     vdW  Elec       q    Type
REMARK                         _______ _______ _______ _____ _____    ______ ____
ROOT
ATOM      1  N   UNL     1       3.481  -3.958   5.784  0.00  0.00    -0.210 N 
ATOM      2  C   UNL     1       4.104  -3.194   6.689  0.00  0.00    +0.232 C 
ATOM      3  O   UNL     1       4.169  -1.984   6.658  0.00  0.00    -0.274 OA
ATOM      4  C   UNL     1       4.713  -4.075   7.756  0.00  0.00    +0.108 C 
ATOM      5  C   UNL     1       6.252  -4.004   7.660  0.00  0.00    +0.076 C 
ATOM      6  N   UNL     1       6.621  -5.044   6.663  0.00  0.00    -0.295 NA
ATOM      7  C   UNL     1       5.698  -6.159   6.948  0.00  0.00    +0.136 C 
ATOM      8  C   UNL     1       4.335  -5.511   7.296  0.00  0.00    +0.123 C 
ATOM      9  C   UNL     1       3.541  -5.272   6.030  0.00  0.00    +0.233 C 
ATOM     10  O   UNL     1       3.040  -6.137   5.345  0.00  0.00    -0.274 OA
ATOM     11  C   UNL     1       5.584  -7.095   5.779  0.00  0.00    +0.005 A 
ATOM     12  C   UNL     1       5.186  -6.935   4.471  0.00  0.00    +0.011 A 
ATOM     13  C   UNL     1       5.190  -8.017   3.608  0.00  0.00    -0.049 A 
ATOM     14  C   UNL     1       5.595  -9.259   4.062  0.00  0.00    +0.025 A 
ATOM     15  C   UNL     1       5.994  -9.425   5.373  0.00  0.00    +0.063 A 
ATOM     16  C   UNL     1       5.993  -8.340   6.248  0.00  0.00    +0.057 A 
ATOM     17  N   UNL     1       6.347  -8.256   7.597  0.00  0.00    -0.282 N 
ATOM     18  C   UNL     1       6.200  -7.008   8.084  0.00  0.00    +0.243 C 
ATOM     19  O   UNL     1       6.428  -6.641   9.217  0.00  0.00    -0.273 OA
ATOM     20 CL   UNL     1       6.499 -10.988   5.933  0.00  0.00    -0.082 Cl
ATOM     21  C   UNL     1       4.755  -7.842   2.175  0.00  0.00    +0.044 C 
ATOM     22  H   UNL     1       6.496  -4.703   5.721  0.00  0.00    +0.124 HD
ATOM     23  H   UNL     1       6.660  -9.008   8.123  0.00  0.00    +0.155 HD
ENDROOT
BRANCH   1  27
ATOM     24  C   UNL     1       1.501  -2.373   2.476  0.00  0.00    +0.059 A 
ATOM     25  C   UNL     1       0.775  -3.001   3.492  0.00  0.00    +0.017 A 
ATOM     26  C   UNL     1       1.433  -3.524   4.583  0.00  0.00    +0.025 A 
ATOM     27  C   UNL     1       2.817  -3.427   4.675  0.00  0.00    +0.044 A 
ATOM     28  C   UNL     1       3.542  -2.803   3.666  0.00  0.00    +0.025 A 
ATOM     29  C   UNL     1       2.892  -2.283   2.569  0.00  0.00    +0.017 A 
BRANCH  24  30
ATOM     30  C   UNL     1       0.800  -1.812   1.306  0.00  0.00    +0.339 C 
ATOM     31  O   UNL     1       1.432  -1.270   0.421  0.00  0.00    -0.245 OA
BRANCH  30  32
ATOM     32  O   UNL     1      -0.542  -1.899   1.218  0.00  0.00    -0.461 OA
BRANCH  32  34
ATOM     33  C   UNL     1      -2.670  -1.529   0.135  0.00  0.00    +0.048 C 
ATOM     34  C   UNL     1      -1.155  -1.334   0.057  0.00  0.00    +0.229 C 
ENDBRANCH  32  34
ENDBRANCH  30  32
ENDBRANCH  24  30
ENDBRANCH   1  27
BRANCH   5  35
ATOM     35  C   UNL     1       6.691  -2.620   7.177  0.00  0.00    +0.115 C 
BRANCH  35  36
ATOM     36  C   UNL     1       8.195  -2.532   7.207  0.00  0.00    +0.212 C 
ATOM     37  O   UNL     1       8.851  -3.482   7.579  0.00  0.00    -0.276 OA
ATOM     38  N   UNL     1       8.812  -1.397   6.822  0.00  0.00    -0.329 N 
ATOM     39  H   UNL     1       8.287  -0.637   6.524  0.00  0.00    +0.145 HD
ATOM     40  H   UNL     1       9.780  -1.341   6.841  0.00  0.00    +0.145 HD
ENDBRANCH  35  36
ENDBRANCH   5  35
TORSDOF 6
