REMARK  Name = ZINC65564926
REMARK  5 active torsions:
REMARK  status: ('A' for Active; 'I' for Inactive)
REMARK    1  A    between atoms: C_1  and  C_2
REMARK    2  A    between atoms: C_5  and  O_24
REMARK    3  A    between atoms: C_6  and  S_8
REMARK    4  A    between atoms: S_8  and  N_11
REMARK    5  A    between atoms: N_11  and  C_12
REMARK                            x       y       z     vdW  Elec       q    Type
REMARK                         _______ _______ _______ _____ _____    ______ ____
ROOT
ATOM      1  N   UNL     1      -1.299  -3.904   2.729  0.00  0.00    -0.216 N 
ATOM      2  H   UNL     1      -1.723  -3.051   2.544  0.00  0.00    +0.174 HD
ENDROOT
BRANCH   1   3
ATOM      3  C   UNL     1      -1.530  -4.994   1.893  0.00  0.00    +0.056 A 
ATOM      4  C   UNL     1      -0.526  -5.907   1.629  0.00  0.00    +0.025 A 
ATOM      5  C   UNL     1      -0.726  -7.007   0.796  0.00  0.00    +0.006 A 
ATOM      6  C   UNL     1      -1.937  -7.218   0.209  0.00  0.00    -0.039 A 
ATOM      7  C   UNL     1      -2.959  -6.310   0.464  0.00  0.00    -0.010 A 
ATOM      8  C   UNL     1      -2.795  -5.193   1.301  0.00  0.00    +0.005 A 
ATOM      9  C   UNL     1      -3.898  -4.346   1.492  0.00  0.00    +0.010 A 
ATOM     10  C   UNL     1      -5.073  -4.645   0.864  0.00  0.00    +0.001 A 
ATOM     11  C   UNL     1      -5.216  -5.763   0.040  0.00  0.00    +0.004 A 
ATOM     12  C   UNL     1      -4.162  -6.599  -0.174  0.00  0.00    -0.039 A 
ATOM     13  C   UNL     1      -3.958  -7.863  -0.972  0.00  0.00    +0.040 C 
ATOM     14  C   UNL     1      -2.491  -8.272  -0.720  0.00  0.00    +0.040 C 
ENDBRANCH   1   3
BRANCH   1  15
ATOM     15  S   UNL     1      -0.301  -4.064   4.041  0.00  0.00    +0.076 S 
ATOM     16  O   UNL     1      -0.375  -2.840   4.759  0.00  0.00    -0.150 OA
ATOM     17  O   UNL     1       0.927  -4.589   3.555  0.00  0.00    -0.150 OA
BRANCH  15  23
ATOM     18  C   UNL     1      -0.133  -8.748   6.351  0.00  0.00    +0.044 C 
ATOM     19  C   UNL     1      -0.873  -7.457   6.115  0.00  0.00    -0.048 A 
ATOM     20  C   UNL     1      -2.101  -7.247   6.715  0.00  0.00    +0.007 A 
ATOM     21  C   UNL     1      -2.782  -6.064   6.500  0.00  0.00    +0.047 A 
ATOM     22  C   UNL     1      -2.233  -5.088   5.682  0.00  0.00    +0.143 A 
ATOM     23  C   UNL     1      -1.001  -5.301   5.081  0.00  0.00    +0.150 A 
ATOM     24  C   UNL     1      -0.322  -6.484   5.303  0.00  0.00    +0.036 A 
BRANCH  22  25
ATOM     25  O   UNL     1      -2.902  -3.924   5.468  0.00  0.00    -0.505 OA
ATOM     26  H   UNL     1      -2.692  -3.227   6.106  0.00  0.00    +0.292 HD
ENDBRANCH  22  25
ENDBRANCH  15  23
ENDBRANCH   1  15
TORSDOF 4
