REMARK  Name = ZINC64163822
REMARK  8 active torsions:
REMARK  status: ('A' for Active; 'I' for Inactive)
REMARK    1  A    between atoms: C_1  and  C_2
REMARK    2  A    between atoms: C_2  and  C_3
REMARK    3  A    between atoms: C_3  and  C_5
REMARK    4  A    between atoms: C_3  and  N_6
REMARK    5  A    between atoms: C_7  and  O_32
REMARK    6  A    between atoms: C_9  and  C_15
REMARK    7  A    between atoms: N_29  and  C_30
REMARK    8  A    between atoms: C_30  and  C_31
REMARK                            x       y       z     vdW  Elec       q    Type
REMARK                         _______ _______ _______ _____ _____    ______ ____
ROOT
ATOM      1  C   UNL     1       0.179   1.968  -5.781  0.00  0.00    +0.118 C 
ATOM      2  C   UNL     1       1.337   1.267  -6.494  0.00  0.00    +0.128 C 
ATOM      3  C   UNL     1       1.907   2.280  -7.480  0.00  0.00    -0.035 C 
ATOM      4  C   UNL     1       1.905   1.690  -8.667  0.00  0.00    -0.001 A 
ATOM      5  C   UNL     1       2.407   2.125  -9.981  0.00  0.00    +0.010 A 
ATOM      6  C   UNL     1       2.224   1.257 -11.010  0.00  0.00    +0.001 A 
ATOM      7  C   UNL     1       1.598   0.014 -10.867  0.00  0.00    +0.002 A 
ATOM      8  C   UNL     1       1.112  -0.469  -9.696  0.00  0.00    +0.026 A 
ATOM      9  C   UNL     1       1.251   0.352  -8.539  0.00  0.00    +0.043 A 
ATOM     10  N   UNL     1       0.898   0.122  -7.289  0.00  0.00    -0.376 N 
ATOM     11  C   UNL     1       2.263   3.684  -7.056  0.00  0.00    +0.049 C 
ATOM     12  C   UNL     1       1.060   4.209  -6.251  0.00  0.00    +0.089 C 
ATOM     13  N   UNL     1       0.677   3.236  -5.224  0.00  0.00    -0.293 NA
ATOM     14  H   UNL     1       0.429  -0.658  -6.951  0.00  0.00    +0.160 HD
ENDROOT
BRANCH   1  17
ATOM     15  N   UNL     1      -0.055  -0.114  -2.441  0.00  0.00    -0.253 N 
ATOM     16  C   UNL     1       0.534   0.747  -3.479  0.00  0.00    +0.240 C 
ATOM     17  C   UNL     1      -0.337   1.093  -4.668  0.00  0.00    +0.058 C 
ATOM     18  C   UNL     1      -1.571   0.601  -4.701  0.00  0.00    +0.249 C 
ATOM     19  N   UNL     1      -2.050  -0.205  -3.679  0.00  0.00    -0.236 N 
ATOM     20  C   UNL     1      -1.321  -0.546  -2.607  0.00  0.00    +0.311 C 
ATOM     21  O   UNL     1      -1.817  -1.261  -1.759  0.00  0.00    -0.252 OA
ATOM     22  O   UNL     1      -2.378   0.892  -5.752  0.00  0.00    -0.270 OA
ATOM     23  H   UNL     1      -2.957  -0.542  -3.744  0.00  0.00    +0.159 HD
BRANCH  15  24
ATOM     24  C   UNL     1       0.718  -0.497  -1.257  0.00  0.00    +0.077 C 
ATOM     25  C   UNL     1       0.849  -2.021  -1.205  0.00  0.00    +0.028 C 
BRANCH  24  27
ATOM     26  C   UNL     1      -0.019   1.526   0.010  0.00  0.00    +0.006 C 
ATOM     27  C   UNL     1       0.002  -0.004   0.002  0.00  0.00    +0.019 C 
ENDBRANCH  24  27
ENDBRANCH  15  24
BRANCH  16  28
ATOM     28  O   UNL     1       1.711   0.101  -3.970  0.00  0.00    -0.370 OA
ATOM     29  H   UNL     1       2.384  -0.057  -3.294  0.00  0.00    +0.212 HD
ENDBRANCH  16  28
ENDBRANCH   1  17
BRANCH  13  30
ATOM     30  C   UNL     1      -0.293   3.816  -4.285  0.00  0.00    +0.082 C 
ATOM     31  C   UNL     1       0.353   4.987  -3.543  0.00  0.00    +0.020 C 
ENDBRANCH  13  30
TORSDOF 5
