REMARK  Name = ZINC19572476
REMARK  7 active torsions:
REMARK  status: ('A' for Active; 'I' for Inactive)
REMARK    1  A    between atoms: C_1  and  S_2
REMARK    2  A    between atoms: S_2  and  N_5
REMARK    3  A    between atoms: C_13  and  C_15
REMARK    4  A    between atoms: C_15  and  C_17
REMARK    5  A    between atoms: C_15  and  O_31
REMARK    6  A    between atoms: C_17  and  N_18
REMARK    7  A    between atoms: N_21  and  C_25
REMARK                            x       y       z     vdW  Elec       q    Type
REMARK                         _______ _______ _______ _____ _____    ______ ____
ROOT
ATOM      1  C   UNL     1      -6.354   1.034   1.545  0.00  0.00    +0.128 C 
ENDROOT
BRANCH   1  10
ATOM      2  N   UNL     1      -0.716   1.567   1.205  0.00  0.00    -0.207 N 
ATOM      3  C   UNL     1      -0.018   1.139  -0.015  0.00  0.00    +0.131 C 
ATOM      4  C   UNL     1      -0.816   1.657  -1.219  0.00  0.00    +0.025 C 
ATOM      5  C   UNL     1      -2.197   1.001  -1.215  0.00  0.00    +0.038 C 
ATOM      6  C   UNL     1      -2.851   1.159   0.133  0.00  0.00    -0.024 A 
ATOM      7  C   UNL     1      -2.107   1.426   1.272  0.00  0.00    +0.054 A 
ATOM      8  C   UNL     1      -2.743   1.562   2.501  0.00  0.00    +0.025 A 
ATOM      9  C   UNL     1      -4.115   1.435   2.588  0.00  0.00    +0.008 A 
ATOM     10  C   UNL     1      -4.856   1.171   1.451  0.00  0.00    -0.021 A 
ATOM     11  C   UNL     1      -4.227   1.034   0.229  0.00  0.00    +0.011 A 
BRANCH   2  13
ATOM     12  C   UNL     1       0.363   0.821   3.624  0.00  0.00    +0.218 C 
ATOM     13  S   UNL     1       0.130   2.206   2.478  0.00  0.00    +0.043 S 
ATOM     14  O   UNL     1       1.378   2.599   1.923  0.00  0.00    -0.155 OA
ATOM     15  O   UNL     1      -0.746   3.170   3.046  0.00  0.00    -0.155 OA
ENDBRANCH   2  13
ENDBRANCH   1  10
BRANCH   1  16
ATOM     16  O   UNL     1      -6.866   2.014   2.451  0.00  0.00    -0.389 OA
ATOM     17  H   UNL     1      -7.946   2.068   2.650  0.00  0.00    +0.210 HD
ENDBRANCH   1  16
BRANCH   1  18
ATOM     18  C   UNL     1      -6.707  -0.365   2.053  0.00  0.00    -0.042 C 
BRANCH  18  19
ATOM     19  N   UNL     1      -8.165  -0.540   2.032  0.00  0.00    +0.388 N 
ATOM     20  C   UNL     1      -8.556  -1.787   2.709  0.00  0.00    -0.059 C 
ATOM     21  C   UNL     1     -10.070  -1.771   2.932  0.00  0.00    +0.089 C 
ATOM     22  N   UNL     1     -10.756  -1.442   1.685  0.00  0.00    -0.302 N 
ATOM     23  C   UNL     1     -10.141  -0.864   0.648  0.00  0.00    +0.199 C 
ATOM     24  O   UNL     1     -10.793  -0.597  -0.339  0.00  0.00    -0.278 OA
ATOM     25  C   UNL     1      -8.676  -0.529   0.655  0.00  0.00    +0.019 C 
ATOM     26  H   UNL     1      -8.609   0.307   2.574  0.00  0.00    -0.081 HD
BRANCH  22  27
ATOM     27  C   UNL     1     -12.181  -1.760   1.565  0.00  0.00    +0.076 C 
ATOM     28  C   UNL     1     -12.391  -2.727   0.399  0.00  0.00    +0.022 C 
ATOM     29  C   UNL     1     -13.880  -3.059   0.274  0.00  0.00    +0.002 C 
ATOM     30  C   UNL     1     -14.669  -1.774   0.020  0.00  0.00    +0.000 C 
ATOM     31  C   UNL     1     -14.459  -0.807   1.187  0.00  0.00    +0.002 C 
ATOM     32  C   UNL     1     -12.971  -0.475   1.312  0.00  0.00    +0.022 C 
ENDBRANCH  22  27
ENDBRANCH  18  19
ENDBRANCH   1  18
TORSDOF 6
