REMARK  Name = ZINC16952196
REMARK  2 active torsions:
REMARK  status: ('A' for Active; 'I' for Inactive)
REMARK    1  A    between atoms: C_3  and  C_10
REMARK    2  A    between atoms: C_5  and  N_7
REMARK                            x       y       z     vdW  Elec       q    Type
REMARK                         _______ _______ _______ _____ _____    ______ ____
ROOT
ATOM      1  C   UNL     1       3.659   2.163  -0.022  0.00  0.00    +0.094 A 
ATOM      2  C   UNL     1       4.699   1.784   0.815  0.00  0.00    +0.108 A 
ATOM      3  C   UNL     1       5.893   2.521   0.781  0.00  0.00    +0.267 A 
ATOM      4  N   UNL     1       5.986   3.571  -0.062  0.00  0.00    -0.294 N 
ATOM      5  C   UNL     1       4.935   3.901  -0.862  0.00  0.00    +0.194 A 
ATOM      6  N   UNL     1       3.814   3.212  -0.842  0.00  0.00    -0.215 NA
ATOM      7  N   UNL     1       5.048   4.970  -1.711  0.00  0.00    -0.329 N 
ATOM      8  O   UNL     1       6.830   2.219   1.502  0.00  0.00    -0.267 OA
ATOM      9 BR   UNL     1       4.512   0.304   1.977  0.00  0.00    -0.042 Br
ATOM     10  H   UNL     1       5.871   5.483  -1.737  0.00  0.00    +0.145 HD
ATOM     11  H   UNL     1       4.306   5.215  -2.285  0.00  0.00    +0.145 HD
ATOM     12  H   UNL     1       6.803   4.091  -0.099  0.00  0.00    +0.172 HD
ENDROOT
BRANCH   1  15
ATOM     13  C   UNL     1      -0.014   1.376   0.096  0.00  0.00    +0.003 A 
ATOM     14  C   UNL     1       1.170   2.085   0.089  0.00  0.00    +0.010 A 
ATOM     15  C   UNL     1       2.384   1.407  -0.013  0.00  0.00    +0.004 A 
ATOM     16  C   UNL     1       2.394   0.016  -0.107  0.00  0.00    +0.042 A 
ATOM     17  C   UNL     1       1.204  -0.682  -0.100  0.00  0.00    +0.127 A 
ATOM     18  C   UNL     1       0.002  -0.004   0.002  0.00  0.00    +0.033 A 
BRANCH  17  19
ATOM     19  N   UNL     1       1.213  -2.159  -0.200  0.00  0.00    +0.056 N 
ATOM     20  O   UNL     1       2.262  -2.752  -0.289  0.00  0.00    -0.126 OA
ATOM     21  O   UNL     1       0.171  -2.771  -0.193  0.00  0.00    -0.126 OA
ENDBRANCH  17  19
ENDBRANCH   1  15
TORSDOF 2
