REMARK  Name = ZINC45537339
REMARK  14 active torsions:
REMARK  status: ('A' for Active; 'I' for Inactive)
REMARK    1  A    between atoms: C_1  and  C_2
REMARK    2  A    between atoms: C_3  and  C_30
REMARK    3  A    between atoms: C_4  and  C_29
REMARK    4  A    between atoms: C_7  and  C_8
REMARK    5  A    between atoms: N_10  and  C_11
REMARK    6  A    between atoms: C_11  and  C_13
REMARK    7  A    between atoms: C_11  and  C_20
REMARK    8  A    between atoms: C_13  and  C_14
REMARK    9  A    between atoms: C_14  and  O_16
REMARK   10  A    between atoms: O_16  and  C_17
REMARK   11  A    between atoms: C_17  and  C_18
REMARK   12  A    between atoms: C_17  and  C_19
REMARK   13  A    between atoms: C_25  and  N_26
REMARK   14  A    between atoms: C_30  and  C_32
REMARK                            x       y       z     vdW  Elec       q    Type
REMARK                         _______ _______ _______ _____ _____    ______ ____
ROOT
ATOM      1  C   UNL     1       0.050  -0.827   4.855  0.00  0.00    +0.116 C 
ENDROOT
BRANCH   1   2
ATOM      2  C   UNL     1      -1.363  -0.588   5.323  0.00  0.00    +0.003 A 
ATOM      3  C   UNL     1      -2.406  -1.306   4.767  0.00  0.00    +0.008 A 
ATOM      4  C   UNL     1      -3.701  -1.087   5.196  0.00  0.00    +0.000 A 
ATOM      5  C   UNL     1      -3.954  -0.151   6.182  0.00  0.00    +0.002 A 
ATOM      6  C   UNL     1      -2.912   0.566   6.738  0.00  0.00    +0.033 A 
ATOM      7  C   UNL     1      -1.615   0.344   6.312  0.00  0.00    +0.131 A 
BRANCH   7   8
ATOM      8  N   UNL     1      -0.498   1.108   6.911  0.00  0.00    +0.057 N 
ATOM      9  O   UNL     1      -0.727   1.999   7.695  0.00  0.00    -0.126 OA
ATOM     10  O   UNL     1       0.644   0.841   6.617  0.00  0.00    -0.126 OA
ENDBRANCH   7   8
ENDBRANCH   1   2
BRANCH   1  13
ATOM     11  C   UNL     1      -0.053  -0.583   2.433  0.00  0.00    +0.261 C 
ATOM     12  O   UNL     1      -0.107   0.623   2.586  0.00  0.00    -0.269 OA
ATOM     13  N   UNL     1       0.027  -1.395   3.505  0.00  0.00    -0.303 N 
ATOM     14  H   UNL     1       0.071  -2.357   3.383  0.00  0.00    +0.150 HD
BRANCH  11  21
ATOM     15  C   UNL     1      -0.234   1.054  -0.215  0.00  0.00    +0.047 C 
ATOM     16  C   UNL     1      -0.154  -0.445  -0.082  0.00  0.00    -0.010 A 
ATOM     17  C   UNL     1      -0.141  -1.384  -1.141  0.00  0.00    +0.041 A 
ATOM     18  C   UNL     1      -0.059  -2.642  -0.564  0.00  0.00    +0.024 A 
ATOM     19  N   UNL     1      -0.024  -2.494   0.769  0.00  0.00    -0.354 N 
ATOM     20  H   UNL     1       0.033  -3.217   1.412  0.00  0.00    +0.166 HD
ATOM     21  C   UNL     1      -0.075  -1.152   1.080  0.00  0.00    +0.106 A 
ATOM     22  C   UNL     1      -0.017  -3.952  -1.307  0.00  0.00    +0.064 C 
BRANCH  17  23
ATOM     23  C   UNL     1      -0.202  -1.084  -2.574  0.00  0.00    +0.162 C 
ATOM     24  O   UNL     1      -1.268  -1.102  -3.153  0.00  0.00    -0.292 OA
ATOM     25  C   UNL     1       1.060  -0.755  -3.330  0.00  0.00    +0.091 C 
ENDBRANCH  17  23
ENDBRANCH  11  21
ENDBRANCH   1  13
BRANCH   1  26
ATOM     26  C   UNL     1       0.745  -1.802   5.808  0.00  0.00    +0.147 C 
BRANCH  26  27
ATOM     27  C   UNL     1       2.192  -1.946   5.412  0.00  0.00    +0.309 C 
ATOM     28  O   UNL     1       2.623  -1.331   4.465  0.00  0.00    -0.251 OA
BRANCH  27  29
ATOM     29  O   UNL     1       3.001  -2.756   6.111  0.00  0.00    -0.462 OA
BRANCH  29  30
ATOM     30  C   UNL     1       4.361  -2.844   5.679  0.00  0.00    +0.170 C 
ATOM     31  C   UNL     1       5.193  -1.778   6.396  0.00  0.00    +0.052 C 
ATOM     32  C   UNL     1       4.913  -4.231   6.013  0.00  0.00    +0.052 C 
ENDBRANCH  29  30
ENDBRANCH  27  29
ENDBRANCH  26  27
ENDBRANCH   1  26
TORSDOF 9
