REMARK  Name = ZINC67359618
REMARK  6 active torsions:
REMARK  status: ('A' for Active; 'I' for Inactive)
REMARK    1  A    between atoms: C_4  and  N_20
REMARK    2  A    between atoms: C_5  and  C_7
REMARK    3  A    between atoms: C_7  and  N_8
REMARK    4  A    between atoms: C_9  and  C_11
REMARK    5  A    between atoms: C_11  and  C_18
REMARK    6  A    between atoms: C_12  and  C_13
REMARK                            x       y       z     vdW  Elec       q    Type
REMARK                         _______ _______ _______ _____ _____    ______ ____
ROOT
ATOM      1  N   UNL     1       1.520  -2.640   1.365  0.00  0.00    -0.307 N 
ATOM      2  C   UNL     1       1.559  -3.970   1.578  0.00  0.00    +0.255 C 
ATOM      3  O   UNL     1       1.385  -4.740   0.651  0.00  0.00    -0.269 OA
ATOM      4  H   UNL     1       1.658  -2.027   2.104  0.00  0.00    +0.149 HD
ENDROOT
BRANCH   2   5
ATOM      5  C   UNL     1       1.811  -4.491   2.927  0.00  0.00    +0.117 C 
ATOM      6  C   UNL     1       0.808  -4.456   3.882  0.00  0.00    +0.070 C 
BRANCH   6   7
ATOM      7  C   UNL     1      -0.488  -4.038   3.527  0.00  0.00    +0.129 A 
ATOM      8  C   UNL     1      -1.551  -3.848   4.393  0.00  0.00    +0.049 A 
ATOM      9  C   UNL     1      -2.634  -3.433   3.608  0.00  0.00    +0.042 A 
ATOM     10  C   UNL     1      -2.205  -3.385   2.325  0.00  0.00    +0.195 A 
ATOM     11  O   UNL     1      -0.915  -3.743   2.280  0.00  0.00    -0.463 OA
ENDBRANCH   6   7
BRANCH   5  12
ATOM     12  C   UNL     1       3.094  -5.036   3.256  0.00  0.00    +0.104 C 
ATOM     13  N   UNL     1       4.112  -5.468   3.517  0.00  0.00    -0.191 NA
ENDBRANCH   5  12
ENDBRANCH   2   5
BRANCH   1  14
ATOM     14  C   UNL     1       1.268  -2.120   0.019  0.00  0.00    +0.142 C 
BRANCH  14  19
ATOM     15  C   UNL     1       0.088   1.465   0.110  0.00  0.00    +0.000 A 
ATOM     16  C   UNL     1       1.287   2.155   0.114  0.00  0.00    +0.002 A 
ATOM     17  C   UNL     1       2.482   1.464   0.086  0.00  0.00    +0.028 A 
ATOM     18  C   UNL     1       2.480   0.076   0.055  0.00  0.00    +0.070 A 
ATOM     19  C   UNL     1       1.275  -0.614   0.053  0.00  0.00    -0.005 A 
ATOM     20  C   UNL     1       0.082   0.083   0.080  0.00  0.00    +0.007 A 
BRANCH  18  21
ATOM     21  N   UNL     1       3.692  -0.628   0.027  0.00  0.00    -0.240 N 
ATOM     22  C   UNL     1       4.929  -0.083   0.031  0.00  0.00    +0.114 A 
ATOM     23  C   UNL     1       5.826  -1.096  -0.002  0.00  0.00    +0.041 A 
ATOM     24  C   UNL     1       5.114  -2.300  -0.028  0.00  0.00    +0.135 A 
ATOM     25  N   UNL     1       3.836  -2.021  -0.005  0.00  0.00    -0.175 NA
ENDBRANCH  18  21
ENDBRANCH  14  19
ENDBRANCH   1  14
TORSDOF 6
