REMARK  Name = ZINC60243428
REMARK  8 active torsions:
REMARK  status: ('A' for Active; 'I' for Inactive)
REMARK    1  A    between atoms: C_1  and  C_2
REMARK    2  A    between atoms: C_5  and  O_29
REMARK    3  A    between atoms: C_10  and  C_11
REMARK    4  A    between atoms: N_13  and  C_14
REMARK    5  A    between atoms: C_14  and  C_16
REMARK    6  A    between atoms: C_14  and  C_17
REMARK    7  A    between atoms: C_19  and  C_22
REMARK    8  A    between atoms: O_29  and  C_30
REMARK                            x       y       z     vdW  Elec       q    Type
REMARK                         _______ _______ _______ _____ _____    ______ ____
ROOT
ATOM      1  C   UNL     1       0.032  -0.382   2.484  0.00  0.00    +0.280 C 
ATOM      2  O   UNL     1       0.018   0.806   2.745  0.00  0.00    -0.267 OA
ATOM      3  N   UNL     1       0.054  -1.291   3.479  0.00  0.00    -0.298 N 
ATOM      4  H   UNL     1       0.065  -2.238   3.270  0.00  0.00    +0.150 HD
ENDROOT
BRANCH   1  14
ATOM      5  C   UNL     1      -0.018   1.503   0.010  0.00  0.00    +0.048 C 
ATOM      6  C   UNL     1       0.002  -0.004   0.002  0.00  0.00    +0.008 A 
ATOM      7  C   UNL     1       0.009  -0.877  -1.171  0.00  0.00    +0.027 A 
ATOM      8  C   UNL     1      -0.000  -0.652  -2.551  0.00  0.00    +0.057 A 
ATOM      9  C   UNL     1       0.010  -1.728  -3.416  0.00  0.00    +0.121 A 
ATOM     10  C   UNL     1       0.030  -3.028  -2.916  0.00  0.00    +0.049 A 
ATOM     11  C   UNL     1       0.039  -3.260  -1.559  0.00  0.00    +0.050 A 
ATOM     12  C   UNL     1       0.029  -2.191  -0.670  0.00  0.00    +0.136 A 
ATOM     13  O   UNL     1       0.034  -2.113   0.676  0.00  0.00    -0.450 OA
ATOM     14  C   UNL     1       0.024  -0.826   1.083  0.00  0.00    +0.193 A 
BRANCH   9  15
ATOM     15  O   UNL     1       0.002  -1.518  -4.759  0.00  0.00    -0.495 OA
ATOM     16  C   UNL     1       0.013  -2.675  -5.597  0.00  0.00    +0.277 C 
ENDBRANCH   9  15
ENDBRANCH   1  14
BRANCH   3  17
ATOM     17  C   UNL     1       0.062  -0.848   4.875  0.00  0.00    +0.159 C 
ATOM     18  C   UNL     1       1.499  -0.554   5.309  0.00  0.00    +0.038 C 
BRANCH  17  19
ATOM     19  C   UNL     1      -0.515  -1.931   5.749  0.00  0.00    +0.248 A 
ATOM     20  N   UNL     1      -1.387  -1.757   6.701  0.00  0.00    -0.190 NA
ATOM     21  C   UNL     1      -1.683  -2.937   7.276  0.00  0.00    +0.202 A 
ATOM     22  N   UNL     1      -0.989  -3.877   6.682  0.00  0.00    -0.056 NA
ATOM     23  O   UNL     1      -0.222  -3.236   5.675  0.00  0.00    -0.336 OA
BRANCH  21  24
ATOM     24  C   UNL     1      -2.636  -3.140   8.395  0.00  0.00    +0.023 A 
ATOM     25  C   UNL     1      -3.318  -2.053   8.937  0.00  0.00    +0.014 A 
ATOM     26  C   UNL     1      -4.204  -2.246   9.977  0.00  0.00    +0.039 A 
ATOM     27  C   UNL     1      -4.414  -3.519  10.483  0.00  0.00    +0.123 A 
ATOM     28  C   UNL     1      -3.737  -4.602   9.948  0.00  0.00    +0.039 A 
ATOM     29  C   UNL     1      -2.854  -4.419   8.903  0.00  0.00    +0.014 A 
ATOM     30  F   UNL     1      -5.282  -3.703  11.502  0.00  0.00    -0.205 F 
ENDBRANCH  21  24
ENDBRANCH  17  19
ENDBRANCH   3  17
TORSDOF 5
