REMARK  Name = ZINC01244014
REMARK  4 active torsions:
REMARK  status: ('A' for Active; 'I' for Inactive)
REMARK    1  A    between atoms: C_3  and  C_8
REMARK    2  A    between atoms: C_5  and  O_7
REMARK    3  A    between atoms: N_9  and  N_10
REMARK    4  A    between atoms: C_11  and  C_17
REMARK                            x       y       z     vdW  Elec       q    Type
REMARK                         _______ _______ _______ _____ _____    ______ ____
ROOT
ATOM      1  N   UNL     1      -1.234   7.354   0.049  0.00  0.00    -0.185 N 
ATOM      2  C   UNL     1      -1.258   8.170  -1.069  0.00  0.00    +0.218 A 
ATOM      3  N   UNL     1      -1.275   9.415  -0.671  0.00  0.00    -0.148 NA
ATOM      4  N   UNL     1      -1.261   9.422   0.730  0.00  0.00    -0.252 N 
ATOM      5  H   UNL     1      -1.269  10.208   1.299  0.00  0.00    +0.191 HD
ATOM      6  C   UNL     1      -1.242   8.139   1.144  0.00  0.00    +0.197 A 
ATOM      7  S   UNL     1      -1.227   7.603   2.770  0.00  0.00    -0.010 S 
ENDROOT
BRANCH   2   8
ATOM      8  C   UNL     1      -1.263   7.713  -2.468  0.00  0.00    +0.173 A 
ATOM      9  C   UNL     1      -1.577   8.470  -3.556  0.00  0.00    +0.053 A 
ATOM     10  C   UNL     1      -1.448   7.636  -4.682  0.00  0.00    +0.042 A 
ATOM     11  C   UNL     1      -1.075   6.420  -4.234  0.00  0.00    +0.196 A 
ATOM     12  O   UNL     1      -0.965   6.470  -2.896  0.00  0.00    -0.460 OA
ENDBRANCH   2   8
BRANCH   1  14
ATOM     13  C   UNL     1      -0.076   5.323   0.029  0.00  0.00    +0.141 C 
ATOM     14  N   UNL     1      -1.210   5.953   0.042  0.00  0.00    -0.170 NA
BRANCH  13  17
ATOM     15  C   UNL     1      -1.221   1.748   0.017  0.00  0.00    +0.004 A 
ATOM     16  C   UNL     1      -1.248   3.127   0.030  0.00  0.00    +0.010 A 
ATOM     17  C   UNL     1      -0.051   3.849   0.022  0.00  0.00    -0.002 A 
ATOM     18  C   UNL     1       1.168   3.168   0.007  0.00  0.00    +0.055 A 
ATOM     19  C   UNL     1       1.182   1.784   0.000  0.00  0.00    +0.117 A 
ATOM     20  C   UNL     1      -0.013   1.076   0.008  0.00  0.00    +0.045 A 
BRANCH  19  21
ATOM     21  O   UNL     1       2.366   1.117  -0.014  0.00  0.00    -0.507 OA
ATOM     22  H   UNL     1       2.701   0.929  -0.902  0.00  0.00    +0.292 HD
ENDBRANCH  19  21
ENDBRANCH  13  17
ENDBRANCH   1  14
TORSDOF 4
