REMARK  Name = ZINC50369193
REMARK  5 active torsions:
REMARK  status: ('A' for Active; 'I' for Inactive)
REMARK    1  A    between atoms: C_1  and  O_2
REMARK    2  A    between atoms: O_2  and  C_3
REMARK    3  A    between atoms: C_8  and  N_10
REMARK    4  A    between atoms: N_10  and  C_11
REMARK    5  A    between atoms: C_20  and  N_21
REMARK                            x       y       z     vdW  Elec       q    Type
REMARK                         _______ _______ _______ _____ _____    ______ ____
ROOT
ATOM      1  C   UNL     1      -1.949  -2.769  -2.944  0.00  0.00    +0.059 A 
ATOM      2  C   UNL     1      -2.566  -2.493  -4.185  0.00  0.00    +0.022 A 
ATOM      3  C   UNL     1      -3.489  -1.446  -4.323  0.00  0.00    +0.027 A 
ATOM      4  C   UNL     1      -4.064  -1.209  -5.536  0.00  0.00    +0.019 A 
ATOM      5  C   UNL     1      -3.745  -1.996  -6.642  0.00  0.00    +0.017 A 
ATOM      6  C   UNL     1      -2.854  -3.020  -6.542  0.00  0.00    +0.027 A 
ATOM      7  C   UNL     1      -2.241  -3.294  -5.307  0.00  0.00    +0.048 A 
ATOM      8  N   UNL     1      -1.361  -4.294  -5.184  0.00  0.00    -0.359 N 
ATOM      9  C   UNL     1      -0.779  -4.564  -4.038  0.00  0.00    +0.107 A 
ATOM     10  C   UNL     1      -1.041  -3.820  -2.889  0.00  0.00    +0.062 A 
ATOM     11 BR   UNL     1      -5.308   0.202  -5.721  0.00  0.00    -0.050 Br
ATOM     12  H   UNL     1      -1.148  -4.834  -5.961  0.00  0.00    +0.165 HD
ENDROOT
BRANCH  10  13
ATOM     13  N   UNL     1      -0.395  -4.133  -1.684  0.00  0.00    -0.355 N 
ATOM     14  H   UNL     1      -0.619  -3.648  -0.874  0.00  0.00    +0.142 HD
ATOM     15  H   UNL     1       0.275  -4.833  -1.660  0.00  0.00    +0.142 HD
ENDBRANCH  10  13
BRANCH   1  16
ATOM     16  N   UNL     1      -2.238  -2.010  -1.815  0.00  0.00    -0.337 N 
ATOM     17  H   UNL     1      -3.074  -2.142  -1.342  0.00  0.00    +0.147 HD
BRANCH  16  22
ATOM     18  C   UNL     1      -1.526   0.335  -2.045  0.00  0.00    +0.138 C 
ATOM     19  C   UNL     1      -1.869   1.357  -0.941  0.00  0.00    +0.033 C 
ATOM     20  C   UNL     1      -2.396   0.488   0.229  0.00  0.00    +0.004 C 
ATOM     21  C   UNL     1      -1.479  -0.758   0.170  0.00  0.00    +0.025 C 
ATOM     22  C   UNL     1      -1.278  -1.010  -1.339  0.00  0.00    +0.099 C 
BRANCH  18  24
ATOM     23  C   UNL     1      -0.607   1.543  -3.900  0.00  0.00    +0.194 C 
ATOM     24  O   UNL     1      -0.348   0.746  -2.742  0.00  0.00    -0.378 OA
ENDBRANCH  18  24
ENDBRANCH  16  22
ENDBRANCH   1  16
TORSDOF 4
