REMARK  Name = ZINC39361899
REMARK  9 active torsions:
REMARK  status: ('A' for Active; 'I' for Inactive)
REMARK    1  A    between atoms: C_1  and  C_2
REMARK    2  A    between atoms: C_5  and  C_35
REMARK    3  A    between atoms: C_6  and  N_8
REMARK    4  A    between atoms: C_9  and  C_26
REMARK    5  A    between atoms: C_13  and  S_15
REMARK    6  A    between atoms: S_15  and  C_16
REMARK    7  A    between atoms: C_16  and  C_17
REMARK    8  A    between atoms: C_22  and  C_25
REMARK    9  A    between atoms: C_26  and  C_27
REMARK                            x       y       z     vdW  Elec       q    Type
REMARK                         _______ _______ _______ _____ _____    ______ ____
ROOT
ATOM      1  N   UNL     1       0.011  -2.677   2.449  0.00  0.00    -0.274 N 
ATOM      2  C   UNL     1       1.154  -2.985   3.327  0.00  0.00    +0.222 C 
ATOM      3  N   UNL     1       0.606  -3.704   4.479  0.00  0.00    -0.166 NA
ATOM      4  N   UNL     1      -0.613  -3.844   4.392  0.00  0.00    -0.156 NA
ATOM      5  C   UNL     1      -1.144  -3.244   3.167  0.00  0.00    +0.276 C 
ENDROOT
BRANCH   1  11
ATOM      6  C   UNL     1       0.183  -2.821  -2.461  0.00  0.00    +0.044 C 
ATOM      7  C   UNL     1       0.103  -2.046  -1.170  0.00  0.00    -0.049 A 
ATOM      8  C   UNL     1       0.039  -0.665  -1.196  0.00  0.00    +0.004 A 
ATOM      9  C   UNL     1      -0.034   0.049  -0.015  0.00  0.00    +0.005 A 
ATOM     10  C   UNL     1      -0.043  -0.615   1.196  0.00  0.00    -0.029 A 
ATOM     11  C   UNL     1       0.021  -2.002   1.226  0.00  0.00    +0.037 A 
ATOM     12  C   UNL     1       0.088  -2.717   0.036  0.00  0.00    +0.027 A 
ATOM     13  C   UNL     1      -0.122   0.164   2.484  0.00  0.00    +0.045 C 
ENDBRANCH   1  11
BRANCH   5  14
ATOM     14  S   UNL     1      -1.947  -4.515   2.152  0.00  0.00    -0.104 S 
BRANCH  14  15
ATOM     15  C   UNL     1      -0.700  -5.827   2.025  0.00  0.00    +0.168 C 
BRANCH  15  16
ATOM     16  C   UNL     1      -1.294  -7.016   1.314  0.00  0.00    +0.229 C 
ATOM     17  O   UNL     1      -2.444  -6.981   0.930  0.00  0.00    -0.275 OA
ATOM     18  N   UNL     1      -0.546  -8.117   1.104  0.00  0.00    -0.264 N 
ATOM     19  C   UNL     1      -1.093  -9.214   0.448  0.00  0.00    +0.165 A 
ATOM     20  N   UNL     1      -0.522 -10.364   0.162  0.00  0.00    -0.230 NA
ATOM     21  C   UNL     1      -1.182 -11.315  -0.472  0.00  0.00    +0.047 A 
ATOM     22  C   UNL     1      -2.468 -11.051  -0.812  0.00  0.00    +0.071 A 
ATOM     23  S   UNL     1      -2.649  -9.396  -0.167  0.00  0.00    -0.060 S 
ATOM     24  C   UNL     1      -0.536 -12.635  -0.804  0.00  0.00    +0.066 C 
ATOM     25  H   UNL     1       0.374  -8.145   1.410  0.00  0.00    +0.157 HD
ENDBRANCH  15  16
ENDBRANCH  14  15
ENDBRANCH   5  14
BRANCH   2  26
ATOM     26  C   UNL     1       2.163  -3.866   2.588  0.00  0.00    +0.102 C 
BRANCH  26  27
ATOM     27  C   UNL     1       3.324  -4.173   3.498  0.00  0.00    +0.029 A 
ATOM     28  N   UNL     1       4.365  -3.291   3.605  0.00  0.00    -0.311 N 
ATOM     29  C   UNL     1       5.406  -3.555   4.415  0.00  0.00    +0.327 A 
ATOM     30  O   UNL     1       6.320  -2.757   4.495  0.00  0.00    -0.247 OA
ATOM     31  N   UNL     1       5.450  -4.689   5.138  0.00  0.00    -0.275 N 
ATOM     32  C   UNL     1       4.444  -5.583   5.061  0.00  0.00    +0.254 A 
ATOM     33  O   UNL     1       4.483  -6.610   5.715  0.00  0.00    -0.268 OA
ATOM     34  C   UNL     1       3.340  -5.316   4.216  0.00  0.00    +0.091 A 
ATOM     35  H   UNL     1       6.208  -4.863   5.717  0.00  0.00    +0.173 HD
ATOM     36  H   UNL     1       4.352  -2.468   3.091  0.00  0.00    +0.170 HD
ENDBRANCH  26  27
ENDBRANCH   2  26
TORSDOF 6
