REMARK  Name = ZINC41067764
REMARK  4 active torsions:
REMARK  status: ('A' for Active; 'I' for Inactive)
REMARK    1  A    between atoms: C_9  and  N_11
REMARK    2  A    between atoms: N_11  and  S_12
REMARK    3  A    between atoms: S_12  and  C_15
REMARK    4  A    between atoms: C_17  and  N_20
REMARK                            x       y       z     vdW  Elec       q    Type
REMARK                         _______ _______ _______ _____ _____    ______ ____
ROOT
ATOM      1  N   UNL     1       6.043   1.773  -0.045  0.00  0.00    -0.070 NA
ENDROOT
BRANCH   1  10
ATOM      2  C   UNL     1      -0.017   1.384   0.010  0.00  0.00    +0.022 A 
ATOM      3  C   UNL     1       1.143   2.115   0.003  0.00  0.00    +0.030 A 
ATOM      4  C   UNL     1       2.402   1.474  -0.013  0.00  0.00    +0.080 A 
ATOM      5  C   UNL     1       2.383   0.061  -0.020  0.00  0.00    +0.042 A 
ATOM      6  C   UNL     1       1.218  -0.665  -0.013  0.00  0.00    +0.037 A 
ATOM      7  C   UNL     1       0.002  -0.004   0.002  0.00  0.00    +0.042 A 
ATOM      8 CL   UNL     1      -1.484  -0.902   0.012  0.00  0.00    -0.084 Cl
ATOM      9  S   UNL     1       4.114  -0.341  -0.038  0.00  0.00    -0.049 S 
ATOM     10  C   UNL     1       4.734   1.335  -0.035  0.00  0.00    +0.202 A 
ATOM     11  N   UNL     1       3.628   2.043  -0.021  0.00  0.00    -0.222 NA
ENDBRANCH   1  10
BRANCH   1  12
ATOM     12  S   UNL     1       6.372   3.396  -0.039  0.00  0.00    +0.100 S 
ATOM     13  O   UNL     1       5.902   3.910  -1.277  0.00  0.00    -0.148 OA
ATOM     14  O   UNL     1       5.924   3.897   1.213  0.00  0.00    -0.148 OA
BRANCH  12  15
ATOM     15  C   UNL     1       8.125   3.572  -0.054  0.00  0.00    +0.149 A 
ATOM     16  C   UNL     1       8.963   3.668  -1.115  0.00  0.00    +0.059 A 
ATOM     17  C   UNL     1      10.323   3.802  -0.886  0.00  0.00    +0.034 A 
ATOM     18  C   UNL     1      10.773   3.832   0.396  0.00  0.00    +0.069 A 
ATOM     19  S   UNL     1       9.255   3.677   1.324  0.00  0.00    -0.075 S 
BRANCH  17  20
ATOM     20  N   UNL     1      11.225   3.904  -1.963  0.00  0.00    -0.358 N 
ATOM     21  H   UNL     1      10.895   3.881  -2.875  0.00  0.00    +0.142 HD
ATOM     22  H   UNL     1      12.175   3.997  -1.793  0.00  0.00    +0.142 HD
ENDBRANCH  17  20
ENDBRANCH  12  15
ENDBRANCH   1  12
TORSDOF 4
