REMARK  Name = ZINC42582971
REMARK  5 active torsions:
REMARK  status: ('A' for Active; 'I' for Inactive)
REMARK    1  A    between atoms: C_1  and  C_2
REMARK    2  A    between atoms: C_2  and  C_3
REMARK    3  A    between atoms: C_9  and  N_11
REMARK    4  A    between atoms: C_15  and  C_17
REMARK    5  A    between atoms: C_17  and  C_19
REMARK                            x       y       z     vdW  Elec       q    Type
REMARK                         _______ _______ _______ _____ _____    ______ ____
ROOT
ATOM      1  N   UNL     1       1.270  -2.607   0.097  0.00  0.00    -0.296 N 
ATOM      2  C   UNL     1       0.896  -3.826  -0.338  0.00  0.00    +0.306 C 
ATOM      3  O   UNL     1       0.049  -4.454   0.267  0.00  0.00    -0.252 OA
ATOM      4  N   UNL     1       1.461  -4.350  -1.444  0.00  0.00    -0.239 N 
ATOM      5  C   UNL     1       1.087  -5.570  -1.879  0.00  0.00    +0.238 C 
ATOM      6  O   UNL     1       0.242  -6.196  -1.274  0.00  0.00    -0.274 OA
ATOM      7  H   UNL     1       1.945  -2.106  -0.387  0.00  0.00    +0.151 HD
ATOM      8  H   UNL     1       2.136  -3.849  -1.927  0.00  0.00    +0.159 HD
ENDROOT
BRANCH   1  14
ATOM      9  C   UNL     1       0.742  -0.511   1.242  0.00  0.00    +0.009 C 
ATOM     10  C   UNL     1       2.210  -0.086   1.169  0.00  0.00    +0.005 C 
ATOM     11  C   UNL     1       2.950  -0.593   2.408  0.00  0.00    +0.000 C 
ATOM     12  C   UNL     1       2.863  -2.119   2.465  0.00  0.00    +0.002 C 
ATOM     13  C   UNL     1       1.395  -2.544   2.538  0.00  0.00    +0.022 C 
ATOM     14  C   UNL     1       0.655  -2.037   1.299  0.00  0.00    +0.078 C 
BRANCH   9  16
ATOM     15  C   UNL     1      -0.019   1.526   0.010  0.00  0.00    +0.004 C 
ATOM     16  C   UNL     1       0.002  -0.004   0.002  0.00  0.00    +0.002 C 
ENDBRANCH   9  16
ENDBRANCH   1  14
BRANCH   5  17
ATOM     17  C   UNL     1       1.718  -6.156  -3.115  0.00  0.00    +0.163 C 
ATOM     18  C   UNL     1       2.086  -7.618  -2.856  0.00  0.00    +0.034 C 
ATOM     19 CL   UNL     1       0.552  -6.063  -4.487  0.00  0.00    -0.112 Cl
ENDBRANCH   5  17
TORSDOF 3
