REMARK  Name = ZINC39915983
REMARK  13 active torsions:
REMARK  status: ('A' for Active; 'I' for Inactive)
REMARK    1  A    between atoms: C_1  and  O_2
REMARK    2  A    between atoms: O_2  and  C_3
REMARK    3  A    between atoms: C_8  and  O_9
REMARK    4  A    between atoms: O_9  and  C_10
REMARK    5  A    between atoms: C_10  and  C_11
REMARK    6  A    between atoms: C_11  and  N_12
REMARK    7  A    between atoms: C_20  and  S_21
REMARK    8  A    between atoms: S_21  and  C_22
REMARK    9  A    between atoms: C_24  and  O_37
REMARK   10  A    between atoms: C_26  and  O_36
REMARK   11  A    between atoms: C_28  and  O_35
REMARK   12  A    between atoms: C_30  and  C_33
REMARK   13  A    between atoms: C_33  and  O_34
REMARK                            x       y       z     vdW  Elec       q    Type
REMARK                         _______ _______ _______ _____ _____    ______ ____
ROOT
ATOM      1  N   UNL     1      -0.639  -6.506   0.835  0.00  0.00    -0.315 N 
ATOM      2  C   UNL     1      -1.529  -7.383   0.237  0.00  0.00    +0.070 A 
ATOM      3  C   UNL     1      -2.759  -7.230  -0.383  0.00  0.00    +0.028 A 
ATOM      4  C   UNL     1      -3.413  -8.333  -0.893  0.00  0.00    +0.002 A 
ATOM      5  C   UNL     1      -2.848  -9.595  -0.789  0.00  0.00    +0.002 A 
ATOM      6  C   UNL     1      -1.627  -9.766  -0.176  0.00  0.00    +0.030 A 
ATOM      7  C   UNL     1      -0.951  -8.659   0.345  0.00  0.00    +0.090 A 
ATOM      8  N   UNL     1       0.236  -8.508   0.988  0.00  0.00    -0.222 NA
ATOM      9  C   UNL     1       0.425  -7.243   1.272  0.00  0.00    +0.172 A 
ENDROOT
BRANCH   1  10
ATOM     10  C   UNL     1      -0.805  -5.056   0.969  0.00  0.00    +0.165 C 
BRANCH  10  11
ATOM     11  C   UNL     1      -0.207  -4.359  -0.255  0.00  0.00    +0.251 C 
BRANCH  11  12
ATOM     12  O   UNL     1      -0.369  -2.946  -0.124  0.00  0.00    -0.487 OA
BRANCH  12  18
ATOM     13  C   UNL     1      -0.012  -0.789  -1.074  0.00  0.00    +0.161 A 
ATOM     14  C   UNL     1       0.485  -0.006  -2.104  0.00  0.00    +0.049 A 
ATOM     15  C   UNL     1       1.097  -0.601  -3.191  0.00  0.00    +0.004 A 
ATOM     16  C   UNL     1       1.215  -1.977  -3.255  0.00  0.00    +0.004 A 
ATOM     17  C   UNL     1       0.721  -2.764  -2.231  0.00  0.00    +0.049 A 
ATOM     18  C   UNL     1       0.112  -2.173  -1.135  0.00  0.00    +0.162 A 
BRANCH  13  20
ATOM     19  C   UNL     1      -0.706   1.221  -0.009  0.00  0.00    +0.277 C 
ATOM     20  O   UNL     1      -0.614  -0.205  -0.004  0.00  0.00    -0.491 OA
ENDBRANCH  13  20
ENDBRANCH  12  18
ENDBRANCH  11  12
ENDBRANCH  10  11
ENDBRANCH   1  10
BRANCH   9  21
ATOM     21  S   UNL     1       1.837  -6.591   2.100  0.00  0.00    -0.054 S 
BRANCH  21  22
ATOM     22  C   UNL     1       2.873  -8.047   2.414  0.00  0.00    +0.214 C 
ATOM     23  C   UNL     1       4.204  -7.604   3.026  0.00  0.00    +0.185 C 
ATOM     24  C   UNL     1       5.048  -8.842   3.343  0.00  0.00    +0.177 C 
ATOM     25  C   UNL     1       4.256  -9.761   4.278  0.00  0.00    +0.176 C 
ATOM     26  C   UNL     1       2.922 -10.120   3.618  0.00  0.00    +0.176 C 
ATOM     27  O   UNL     1       2.201  -8.923   3.321  0.00  0.00    -0.355 OA
BRANCH  25  28
ATOM     28  O   UNL     1       5.005 -10.953   4.525  0.00  0.00    -0.386 OA
ATOM     29  H   UNL     1       5.865 -10.798   4.939  0.00  0.00    +0.210 HD
ENDBRANCH  25  28
BRANCH  24  30
ATOM     30  O   UNL     1       5.352  -9.538   2.132  0.00  0.00    -0.386 OA
ATOM     31  H   UNL     1       5.848  -9.011   1.490  0.00  0.00    +0.210 HD
ENDBRANCH  24  30
BRANCH  23  32
ATOM     32  O   UNL     1       3.958  -6.872   4.228  0.00  0.00    -0.386 OA
ATOM     33  H   UNL     1       3.424  -6.076   4.100  0.00  0.00    +0.210 HD
ENDBRANCH  23  32
BRANCH  26  34
ATOM     34  C   UNL     1       3.186 -10.892   2.324  0.00  0.00    +0.190 C 
BRANCH  34  35
ATOM     35  O   UNL     1       1.946 -11.360   1.787  0.00  0.00    -0.392 OA
ATOM     36  H   UNL     1       2.037 -11.859   0.964  0.00  0.00    +0.210 HD
ENDBRANCH  34  35
ENDBRANCH  26  34
ENDBRANCH  21  22
ENDBRANCH   9  21
TORSDOF 12
