REMARK  Name = ZINC21044232
REMARK  6 active torsions:
REMARK  status: ('A' for Active; 'I' for Inactive)
REMARK    1  A    between atoms: C_1  and  C_2
REMARK    2  A    between atoms: C_2  and  N_3
REMARK    3  A    between atoms: N_3  and  C_4
REMARK    4  A    between atoms: C_6  and  O_11
REMARK    5  A    between atoms: C_9  and  C_10
REMARK    6  A    between atoms: C_12  and  C_14
REMARK                            x       y       z     vdW  Elec       q    Type
REMARK                         _______ _______ _______ _____ _____    ______ ____
ROOT
ATOM      1  N   UNL     1       3.943   2.901  -2.376  0.00  0.00    -0.267 N 
ATOM      2  C   UNL     1       3.900   4.021  -3.124  0.00  0.00    +0.251 C 
ATOM      3  O   UNL     1       2.977   4.803  -2.996  0.00  0.00    -0.270 OA
ENDROOT
BRANCH   2   4
ATOM      4  C   UNL     1       4.973   4.300  -4.101  0.00  0.00    +0.040 A 
ATOM      5  C   UNL     1       5.381   3.309  -4.995  0.00  0.00    +0.033 A 
ATOM      6  C   UNL     1       6.382   3.577  -5.909  0.00  0.00    +0.043 A 
ATOM      7  C   UNL     1       6.987   4.822  -5.932  0.00  0.00    +0.040 A 
ATOM      8  C   UNL     1       6.590   5.808  -5.044  0.00  0.00    +0.043 A 
ATOM      9  C   UNL     1       5.587   5.553  -4.130  0.00  0.00    +0.033 A 
ATOM     10 CL   UNL     1       7.354   7.366  -5.081  0.00  0.00    -0.083 Cl
ATOM     11 CL   UNL     1       6.887   2.347  -7.026  0.00  0.00    -0.083 Cl
ENDBRANCH   2   4
BRANCH   1  12
ATOM     12  C   UNL     1       2.995   2.696  -1.369  0.00  0.00    +0.043 A 
ATOM     13  C   UNL     1       1.807   2.040  -1.656  0.00  0.00    +0.069 A 
ATOM     14  C   UNL     1       0.870   1.838  -0.654  0.00  0.00    +0.119 A 
ATOM     15  C   UNL     1       1.120   2.297   0.631  0.00  0.00    +0.046 A 
ATOM     16  C   UNL     1       2.307   2.946   0.917  0.00  0.00    +0.009 A 
ATOM     17  C   UNL     1       3.243   3.148  -0.079  0.00  0.00    -0.029 A 
ATOM     18  C   UNL     1       4.533   3.861   0.235  0.00  0.00    +0.045 C 
BRANCH  14  19
ATOM     19  O   UNL     1      -0.295   1.196  -0.932  0.00  0.00    -0.507 OA
ATOM     20  H   UNL     1      -1.038   1.036  -0.137  0.00  0.00    +0.292 HD
ENDBRANCH  14  19
ENDBRANCH   1  12
BRANCH   1  22
ATOM     21  C   UNL     1       4.421   0.784  -3.504  0.00  0.00    +0.025 C 
ATOM     22  C   UNL     1       4.983   1.899  -2.619  0.00  0.00    +0.110 C 
ENDBRANCH   1  22
TORSDOF 4
