REMARK  Name = ZINC16189508
REMARK  5 active torsions:
REMARK  status: ('A' for Active; 'I' for Inactive)
REMARK    1  A    between atoms: C_1  and  N_2
REMARK    2  A    between atoms: C_6  and  C_8
REMARK    3  A    between atoms: C_12  and  N_27
REMARK    4  A    between atoms: N_16  and  C_18
REMARK    5  A    between atoms: C_21  and  N_24
REMARK                            x       y       z     vdW  Elec       q    Type
REMARK                         _______ _______ _______ _____ _____    ______ ____
ROOT
ATOM      1  C   UNL     1      -1.156  -0.966  -0.330  0.00  0.00    +0.127 A 
ATOM      2  C   UNL     1      -2.461  -0.481   0.011  0.00  0.00    +0.026 A 
ATOM      3  C   UNL     1      -2.891   0.864   0.031  0.00  0.00    +0.058 A 
ATOM      4  S   UNL     1      -4.549   0.788   0.508  0.00  0.00    -0.081 S 
ATOM      5  C   UNL     1      -4.740  -0.969   0.688  0.00  0.00    +0.076 A 
ATOM      6  C   UNL     1      -3.459  -1.480   0.360  0.00  0.00    +0.078 A 
ATOM      7  C   UNL     1      -3.045  -2.846   0.340  0.00  0.00    +0.282 A 
ATOM      8  O   UNL     1      -3.834  -3.728   0.627  0.00  0.00    -0.265 OA
ATOM      9  N   UNL     1      -1.784  -3.154   0.004  0.00  0.00    -0.196 N 
ATOM     10  N   UNL     1      -0.907  -2.276  -0.308  0.00  0.00    -0.160 NA
ENDROOT
BRANCH   1  16
ATOM     11  C   UNL     1       3.415   3.300  -1.928  0.00  0.00    +0.127 C 
ATOM     12  N   UNL     1       3.262   1.850  -1.782  0.00  0.00    -0.325 N 
ATOM     13  C   UNL     1       2.054   1.323  -1.403  0.00  0.00    +0.182 A 
ATOM     14  N   UNL     1       0.905   1.947  -1.121  0.00  0.00    -0.126 NA
ATOM     15  N   UNL     1      -0.130   1.309  -0.783  0.00  0.00    -0.138 NA
ATOM     16  C   UNL     1      -0.099  -0.027  -0.697  0.00  0.00    +0.154 A 
ATOM     17  S   UNL     1       1.602  -0.338  -1.157  0.00  0.00    -0.029 S 
ATOM     18  H   UNL     1       4.015   1.263  -1.953  0.00  0.00    +0.148 HD
ENDBRANCH   1  16
BRANCH   9  19
ATOM     19  C   UNL     1      -1.411  -4.493  -0.007  0.00  0.00    +0.069 A 
ATOM     20  C   UNL     1      -1.698  -5.307   1.087  0.00  0.00    +0.030 A 
ATOM     21  C   UNL     1      -1.329  -6.636   1.070  0.00  0.00    +0.035 A 
ATOM     22  C   UNL     1      -0.667  -7.159  -0.027  0.00  0.00    +0.126 A 
ATOM     23  C   UNL     1      -0.375  -6.353  -1.114  0.00  0.00    +0.035 A 
ATOM     24  C   UNL     1      -0.743  -5.024  -1.108  0.00  0.00    +0.030 A 
BRANCH  22  25
ATOM     25  N   UNL     1      -0.269  -8.585  -0.038  0.00  0.00    +0.056 N 
ATOM     26  O   UNL     1       0.362  -9.085  -1.081  0.00  0.00    -0.126 OA
ATOM     27  O   UNL     1      -0.546  -9.354   0.995  0.00  0.00    -0.126 OA
ENDBRANCH  22  25
ENDBRANCH   9  19
BRANCH   5  28
ATOM     28  N   UNL     1      -5.852  -1.661   1.053  0.00  0.00    -0.352 N 
ATOM     29  H   UNL     1      -5.823  -2.628   1.113  0.00  0.00    +0.143 HD
ATOM     30  H   UNL     1      -6.674  -1.186   1.253  0.00  0.00    +0.143 HD
ENDBRANCH   5  28
TORSDOF 4
