REMARK  Name = ZINC66079624
REMARK  7 active torsions:
REMARK  status: ('A' for Active; 'I' for Inactive)
REMARK    1  A    between atoms: C_1  and  C_2
REMARK    2  A    between atoms: C_3  and  C_27
REMARK    3  A    between atoms: N_9  and  C_13
REMARK    4  A    between atoms: C_11  and  C_12
REMARK    5  A    between atoms: C_13  and  N_14
REMARK    6  A    between atoms: C_17  and  N_20
REMARK    7  A    between atoms: C_21  and  C_23
REMARK                            x       y       z     vdW  Elec       q    Type
REMARK                         _______ _______ _______ _____ _____    ______ ____
ROOT
ATOM      1  N   UNL     1       0.853  -2.477   4.092  0.00  0.00    +0.393 N 
ATOM      2  C   UNL     1       0.978  -1.093   3.620  0.00  0.00    -0.074 C 
ATOM      3  C   UNL     1       2.334  -0.526   4.046  0.00  0.00    +0.004 C 
ATOM      4  C   UNL     1       2.437  -0.557   5.574  0.00  0.00    +0.069 C 
ATOM      5  C   UNL     1       2.231  -1.995   6.060  0.00  0.00    +0.004 C 
ATOM      6  C   UNL     1       0.879  -2.508   5.559  0.00  0.00    -0.074 C 
ATOM      7  H   UNL     1       1.620  -3.024   3.731  0.00  0.00    -0.079 HD
ENDROOT
BRANCH   4   8
ATOM      8  N   UNL     1       3.762  -0.087   5.986  0.00  0.00    -0.312 N 
ATOM      9  C   UNL     1       3.937   0.448   7.210  0.00  0.00    +0.216 C 
ATOM     10  O   UNL     1       2.997   0.540   7.972  0.00  0.00    -0.276 OA
ATOM     11  H   UNL     1       4.513  -0.160   5.377  0.00  0.00    +0.149 HD
BRANCH   9  12
ATOM     12  C   UNL     1       5.300   0.932   7.633  0.00  0.00    +0.075 C 
ATOM     13  C   UNL     1       5.634   2.347   7.132  0.00  0.00    +0.013 C 
ATOM     14  C   UNL     1       4.987   2.873   8.424  0.00  0.00    +0.001 C 
ATOM     15  C   UNL     1       5.332   1.514   9.056  0.00  0.00    +0.013 C 
ENDBRANCH   9  12
ENDBRANCH   4   8
BRANCH   1  16
ATOM     16  C   UNL     1      -0.416  -3.042   3.614  0.00  0.00    +0.070 C 
BRANCH  16  25
ATOM     17  C   UNL     1       2.489  -7.099   1.080  0.00  0.00    +0.047 C 
ATOM     18  C   UNL     1       1.612  -5.922   0.740  0.00  0.00    -0.008 A 
ATOM     19  C   UNL     1       1.338  -5.606  -0.594  0.00  0.00    +0.047 A 
ATOM     20  N   UNL     1       0.572  -4.575  -0.886  0.00  0.00    -0.216 NA
ATOM     21  C   UNL     1       0.045  -3.817   0.080  0.00  0.00    +0.253 A 
ATOM     22  N   UNL     1      -0.745  -2.744   0.039  0.00  0.00    -0.185 NA
ATOM     23  C   UNL     1      -1.011  -2.330   1.276  0.00  0.00    +0.197 A 
ATOM     24  S   UNL     1      -1.988  -0.985   1.688  0.00  0.00    -0.010 S 
ATOM     25  N   UNL     1      -0.387  -3.143   2.153  0.00  0.00    -0.271 N 
ATOM     26  N   UNL     1       0.296  -4.104   1.393  0.00  0.00    -0.222 N 
ATOM     27  C   UNL     1       1.073  -5.156   1.727  0.00  0.00    +0.046 A 
ATOM     28  C   UNL     1       1.345  -5.475   3.175  0.00  0.00    +0.066 C 
ATOM     29  C   UNL     1       1.922  -6.446  -1.700  0.00  0.00    +0.066 C 
ENDBRANCH  16  25
ENDBRANCH   1  16
TORSDOF 4
