REMARK  Name = ZINC05687574
REMARK  5 active torsions:
REMARK  status: ('A' for Active; 'I' for Inactive)
REMARK    1  A    between atoms: C_3  and  C_8
REMARK    2  A    between atoms: C_8  and  N_9
REMARK    3  A    between atoms: N_9  and  C_10
REMARK    4  A    between atoms: C_13  and  C_19
REMARK    5  A    between atoms: C_15  and  N_16
REMARK                            x       y       z     vdW  Elec       q    Type
REMARK                         _______ _______ _______ _____ _____    ______ ____
ROOT
ATOM      1  C   UNL     1      -1.313   1.922   0.047  0.00  0.00    +0.058 A 
ATOM      2  C   UNL     1      -0.201   1.086   0.004  0.00  0.00    +0.026 A 
ATOM      3  C   UNL     1       1.065   1.624  -0.032  0.00  0.00    +0.015 A 
ATOM      4  C   UNL     1       1.234   3.012  -0.021  0.00  0.00    +0.039 A 
ATOM      5  C   UNL     1       0.115   3.849   0.027  0.00  0.00    +0.047 A 
ATOM      6  C   UNL     1      -1.148   3.304   0.063  0.00  0.00    +0.148 A 
ENDROOT
BRANCH   4   7
ATOM      7  C   UNL     1       2.590   3.592  -0.060  0.00  0.00    +0.242 C 
ATOM      8  O   UNL     1       2.735   4.799  -0.050  0.00  0.00    -0.270 OA
ATOM      9  N   UNL     1       3.667   2.784  -0.106  0.00  0.00    -0.325 N 
ATOM     10  H   UNL     1       3.551   1.821  -0.114  0.00  0.00    +0.145 HD
ATOM     11  H   UNL     1       4.559   3.165  -0.131  0.00  0.00    +0.145 HD
ENDBRANCH   4   7
BRANCH   6  12
ATOM     12  N   UNL     1      -2.333   4.190   0.114  0.00  0.00    +0.058 N 
ATOM     13  O   UNL     1      -2.190   5.393   0.236  0.00  0.00    -0.126 OA
ATOM     14  O   UNL     1      -3.452   3.715   0.035  0.00  0.00    -0.126 OA
ENDBRANCH   6  12
BRANCH   1  15
ATOM     15  N   UNL     1      -2.591   1.376   0.078  0.00  0.00    -0.338 N 
ATOM     16  H   UNL     1      -3.368   1.954   0.021  0.00  0.00    +0.146 HD
BRANCH  15  17
ATOM     17  C   UNL     1      -2.765  -0.074   0.197  0.00  0.00    +0.137 C 
BRANCH  17  20
ATOM     18  C   UNL     1      -6.245  -0.959  -0.970  0.00  0.00    +0.002 A 
ATOM     19  C   UNL     1      -4.896  -0.655  -0.979  0.00  0.00    +0.005 A 
ATOM     20  C   UNL     1      -4.236  -0.404   0.208  0.00  0.00    -0.029 A 
ATOM     21  C   UNL     1      -4.922  -0.462   1.407  0.00  0.00    +0.025 A 
ATOM     22  C   UNL     1      -6.272  -0.761   1.417  0.00  0.00    +0.041 A 
ATOM     23  C   UNL     1      -6.933  -1.012   0.228  0.00  0.00    +0.020 A 
ATOM     24 CL   UNL     1      -7.136  -0.827   2.921  0.00  0.00    -0.084 Cl
ENDBRANCH  17  20
ENDBRANCH  15  17
ENDBRANCH   1  15
TORSDOF 5
