REMARK  Name = ZINC35646643
REMARK  14 active torsions:
REMARK  status: ('A' for Active; 'I' for Inactive)
REMARK    1  A    between atoms: C_1  and  C_2
REMARK    2  A    between atoms: C_2  and  N_3
REMARK    3  A    between atoms: C_4  and  C_24
REMARK    4  A    between atoms: C_5  and  C_19
REMARK    5  A    between atoms: C_6  and  C_11
REMARK    6  A    between atoms: C_14  and  C_18
REMARK    7  A    between atoms: C_16  and  C_17
REMARK    8  A    between atoms: C_19  and  O_21
REMARK    9  A    between atoms: O_21  and  C_22
REMARK   10  A    between atoms: C_22  and  C_23
REMARK   11  A    between atoms: C_24  and  N_25
REMARK   12  A    between atoms: C_32  and  C_34
REMARK   13  A    between atoms: C_34  and  O_35
REMARK   14  A    between atoms: O_35  and  C_36
REMARK                            x       y       z     vdW  Elec       q    Type
REMARK                         _______ _______ _______ _____ _____    ______ ____
ROOT
ATOM      1  N   UNL     1       0.529  -0.208  -0.969  0.00  0.00    -0.261 N 
ATOM      2  C   UNL     1      -0.250  -0.580  -2.028  0.00  0.00    +0.010 C 
ATOM      3  C   UNL     1       0.265  -1.288  -3.056  0.00  0.00    +0.076 C 
ATOM      4  C   UNL     1       1.734  -1.654  -2.996  0.00  0.00    +0.144 C 
ATOM      5  N   UNL     1       2.485  -1.204  -1.812  0.00  0.00    -0.288 N 
ATOM      6  C   UNL     1       1.831  -0.499  -0.867  0.00  0.00    +0.307 C 
ATOM      7  O   UNL     1       2.444  -0.120   0.112  0.00  0.00    -0.252 OA
ATOM      8  H   UNL     1       3.429  -1.407  -1.716  0.00  0.00    +0.151 HD
ENDROOT
BRANCH   4   9
ATOM      9  C   UNL     1       1.842  -3.155  -3.071  0.00  0.00    -0.020 A 
ATOM     10  C   UNL     1       0.734  -3.942  -2.817  0.00  0.00    +0.006 A 
ATOM     11  C   UNL     1       0.834  -5.319  -2.886  0.00  0.00    +0.004 A 
ATOM     12  C   UNL     1       2.041  -5.909  -3.209  0.00  0.00    -0.050 A 
ATOM     13  C   UNL     1       3.149  -5.123  -3.464  0.00  0.00    +0.007 A 
ATOM     14  C   UNL     1       3.048  -3.745  -3.399  0.00  0.00    -0.045 A 
ATOM     15  C   UNL     1       4.255  -2.888  -3.682  0.00  0.00    +0.044 C 
ATOM     16  C   UNL     1       2.150  -7.411  -3.284  0.00  0.00    +0.044 C 
ENDBRANCH   4   9
BRANCH   1  18
ATOM     17  C   UNL     1       0.072   2.055  -0.162  0.00  0.00    +0.025 C 
ATOM     18  C   UNL     1      -0.095   0.559   0.112  0.00  0.00    +0.111 C 
ENDBRANCH   1  18
BRANCH   3  19
ATOM     19  C   UNL     1      -0.541  -1.676  -4.153  0.00  0.00    +0.339 C 
ATOM     20  O   UNL     1      -1.714  -1.353  -4.190  0.00  0.00    -0.245 OA
BRANCH  19  21
ATOM     21  O   UNL     1      -0.009  -2.403  -5.157  0.00  0.00    -0.462 OA
BRANCH  21  22
ATOM     22  C   UNL     1      -0.847  -2.663  -6.285  0.00  0.00    +0.229 C 
ATOM     23  C   UNL     1      -0.120  -3.594  -7.257  0.00  0.00    +0.048 C 
ENDBRANCH  21  22
ENDBRANCH  19  21
ENDBRANCH   3  19
BRANCH   2  24
ATOM     24  C   UNL     1      -1.707  -0.196  -2.048  0.00  0.00    -0.026 C 
BRANCH  24  25
ATOM     25  N   UNL     1      -2.522  -1.343  -1.627  0.00  0.00    +0.384 N 
ATOM     26  C   UNL     1      -3.922  -1.048  -1.925  0.00  0.00    -0.077 C 
ATOM     27  C   UNL     1      -4.657  -2.341  -2.200  0.00  0.00    +0.000 C 
ATOM     28  C   UNL     1      -5.304  -2.849  -0.899  0.00  0.00    +0.106 C 
ATOM     29  N   UNL     1      -4.407  -2.644   0.256  0.00  0.00    -0.301 N 
ATOM     30  C   UNL     1      -2.982  -2.894   0.183  0.00  0.00    +0.089 C 
ATOM     31  C   UNL     1      -2.246  -1.611  -0.268  0.00  0.00    -0.059 C 
ATOM     32  C   UNL     1      -4.932  -2.209   1.418  0.00  0.00    +0.241 C 
ATOM     33  O   UNL     1      -4.214  -2.034   2.380  0.00  0.00    -0.273 OA
ATOM     34  H   UNL     1      -2.245  -2.145  -2.173  0.00  0.00    -0.081 HD
BRANCH  32  35
ATOM     35  C   UNL     1      -6.411  -1.941   1.522  0.00  0.00    +0.255 C 
BRANCH  35  36
ATOM     36  O   UNL     1      -6.722  -1.492   2.843  0.00  0.00    -0.374 OA
ATOM     37  C   UNL     1      -8.107  -1.208   3.050  0.00  0.00    +0.194 C 
ENDBRANCH  35  36
ENDBRANCH  32  35
ENDBRANCH  24  25
ENDBRANCH   2  24
TORSDOF 9
