REMARK  Name = ZINC19794712
REMARK  4 active torsions:
REMARK  status: ('A' for Active; 'I' for Inactive)
REMARK    1  A    between atoms: C_2  and  C_11
REMARK    2  A    between atoms: C_11  and  N_12
REMARK    3  A    between atoms: C_15  and  N_21
REMARK    4  A    between atoms: C_17  and  O_20
REMARK                            x       y       z     vdW  Elec       q    Type
REMARK                         _______ _______ _______ _____ _____    ______ ____
ROOT
ATOM      1  N   UNL     1       1.511   4.084   1.347  0.00  0.00    -0.296 NA
ATOM      2  C   UNL     1       0.495   3.708   2.339  0.00  0.00    +0.086 C 
ATOM      3  C   UNL     1       0.975   4.104   3.737  0.00  0.00    +0.037 C 
ATOM      4  C   UNL     1       1.221   5.614   3.779  0.00  0.00    +0.088 C 
ATOM      5  C   UNL     1       2.247   5.986   2.704  0.00  0.00    +0.146 C 
ATOM      6  C   UNL     1       1.730   5.536   1.336  0.00  0.00    +0.117 C 
ENDROOT
BRANCH   4   7
ATOM      7  N   UNL     1       1.736   5.992   5.102  0.00  0.00    -0.293 NA
ATOM      8  C   UNL     1       2.983   5.276   5.406  0.00  0.00    +0.113 C 
ATOM      9  C   UNL     1       3.515   5.742   6.764  0.00  0.00    +0.175 C 
ATOM     10  O   UNL     1       2.513   5.529   7.761  0.00  0.00    -0.377 OA
ATOM     11  C   UNL     1       1.284   6.213   7.497  0.00  0.00    +0.175 C 
ATOM     12  C   UNL     1       0.730   5.751   6.147  0.00  0.00    +0.113 C 
ENDBRANCH   4   7
BRANCH   5  13
ATOM     13  O   UNL     1       2.441   7.402   2.700  0.00  0.00    -0.389 OA
ATOM     14  H   UNL     1       3.080   7.709   2.042  0.00  0.00    +0.210 HD
ENDBRANCH   5  13
BRANCH   1  15
ATOM     15  C   UNL     1       1.147   3.596   0.010  0.00  0.00    +0.121 C 
BRANCH  15  17
ATOM     16  C   UNL     1      -0.017   1.381   0.010  0.00  0.00    +0.056 A 
ATOM     17  C   UNL     1       1.171   2.089   0.002  0.00  0.00    -0.011 A 
ATOM     18  C   UNL     1       2.380   1.418  -0.013  0.00  0.00    +0.049 A 
ATOM     19  C   UNL     1       2.406   0.034  -0.021  0.00  0.00    +0.069 A 
ATOM     20  C   UNL     1       1.220  -0.681  -0.013  0.00  0.00    +0.168 A 
ATOM     21  C   UNL     1       0.002  -0.004   0.002  0.00  0.00    +0.167 A 
ATOM     22  O   UNL     1      -1.008  -0.923   0.007  0.00  0.00    -0.453 OA
ATOM     23  C   UNL     1      -0.404  -2.159  -0.418  0.00  0.00    +0.466 C 
ATOM     24  O   UNL     1       0.972  -2.023  -0.018  0.00  0.00    -0.453 OA
ATOM     25 CL   UNL     1       3.868   2.312  -0.024  0.00  0.00    -0.083 Cl
ENDBRANCH  15  17
ENDBRANCH   1  15
TORSDOF 4
