REMARK  Name = ZINC37065630
REMARK  6 active torsions:
REMARK  status: ('A' for Active; 'I' for Inactive)
REMARK    1  A    between atoms: N_5  and  C_9
REMARK    2  A    between atoms: C_7  and  N_8
REMARK    3  A    between atoms: C_9  and  C_10
REMARK    4  A    between atoms: C_10  and  C_11
REMARK    5  A    between atoms: C_11  and  O_12
REMARK    6  A    between atoms: O_12  and  C_13
REMARK                            x       y       z     vdW  Elec       q    Type
REMARK                         _______ _______ _______ _____ _____    ______ ____
ROOT
ATOM      1  C   UNL     1       4.087  -0.972   1.400  0.00  0.00    +0.063 C 
ENDROOT
BRANCH   1   2
ATOM      2  C   UNL     1       3.632  -0.709  -0.036  0.00  0.00    +0.128 C 
BRANCH   2   7
ATOM      3  C   UNL     1      -0.017   1.402   0.010  0.00  0.00    +0.029 A 
ATOM      4  C   UNL     1       1.164   2.084   0.002  0.00  0.00    +0.072 A 
ATOM      5  C   UNL     1       2.373   1.370  -0.013  0.00  0.00    +0.251 A 
ATOM      6  O   UNL     1       3.436   1.972  -0.020  0.00  0.00    -0.268 OA
ATOM      7  N   UNL     1       2.364   0.024  -0.020  0.00  0.00    -0.313 N 
ATOM      8  C   UNL     1       1.190  -0.664  -0.013  0.00  0.00    +0.111 A 
ATOM      9  C   UNL     1       0.002  -0.004   0.002  0.00  0.00    +0.041 A 
BRANCH   9  10
ATOM     10  N   UNL     1      -1.202  -0.724   0.010  0.00  0.00    -0.357 N 
ATOM     11  H   UNL     1      -2.050  -0.252   0.021  0.00  0.00    +0.142 HD
ATOM     12  H   UNL     1      -1.188  -1.694   0.005  0.00  0.00    +0.142 HD
ENDBRANCH   9  10
ENDBRANCH   2   7
ENDBRANCH   1   2
BRANCH   1  13
ATOM     13  C   UNL     1       5.412  -1.737   1.384  0.00  0.00    +0.231 C 
BRANCH  13  14
ATOM     14  O   UNL     1       5.837  -1.983   2.726  0.00  0.00    -0.490 OA
BRANCH  14  15
ATOM     15  C   UNL     1       7.006  -2.658   2.889  0.00  0.00    +0.140 A 
ATOM     16  C   UNL     1       7.730  -3.070   1.780  0.00  0.00    +0.068 A 
ATOM     17  C   UNL     1       8.919  -3.756   1.949  0.00  0.00    +0.063 A 
ATOM     18  C   UNL     1       9.386  -4.032   3.223  0.00  0.00    +0.061 A 
ATOM     19  C   UNL     1       8.664  -3.622   4.330  0.00  0.00    +0.045 A 
ATOM     20  C   UNL     1       7.478  -2.931   4.165  0.00  0.00    +0.084 A 
ATOM     21 CL   UNL     1       6.577  -2.410   5.555  0.00  0.00    -0.080 Cl
ATOM     22 CL   UNL     1      10.878  -4.895   3.432  0.00  0.00    -0.082 Cl
ATOM     23 CL   UNL     1       9.826  -4.272   0.562  0.00  0.00    -0.082 Cl
ENDBRANCH  14  15
ENDBRANCH  13  14
ENDBRANCH   1  13
TORSDOF 6
