REMARK  Name = ZINC35449642
REMARK  10 active torsions:
REMARK  status: ('A' for Active; 'I' for Inactive)
REMARK    1  A    between atoms: C_1  and  C_2
REMARK    2  A    between atoms: C_2  and  O_3
REMARK    3  A    between atoms: O_3  and  C_4
REMARK    4  A    between atoms: C_7  and  C_10
REMARK    5  A    between atoms: C_15  and  S_19
REMARK    6  A    between atoms: S_19  and  C_20
REMARK    7  A    between atoms: C_20  and  C_21
REMARK    8  A    between atoms: C_21  and  C_22
REMARK    9  A    between atoms: C_22  and  C_23
REMARK   10  A    between atoms: C_22  and  C_24
REMARK                            x       y       z     vdW  Elec       q    Type
REMARK                         _______ _______ _______ _____ _____    ______ ____
ROOT
ATOM      1  C   UNL     1      -2.001  -6.092  -0.011  0.00  0.00    +0.092 C 
ATOM      2  C   UNL     1      -2.737  -6.504   1.229  0.00  0.00    +0.069 A 
ATOM      3  C   UNL     1      -4.081  -6.831   1.179  0.00  0.00    +0.135 A 
ATOM      4  N   UNL     1      -4.720  -7.190   2.297  0.00  0.00    -0.208 NA
ATOM      5  C   UNL     1      -4.091  -7.243   3.454  0.00  0.00    +0.171 A 
ATOM      6  N   UNL     1      -2.767  -6.936   3.555  0.00  0.00    -0.302 N 
ATOM      7  C   UNL     1      -2.073  -6.564   2.459  0.00  0.00    +0.258 A 
ATOM      8  O   UNL     1      -0.887  -6.285   2.540  0.00  0.00    -0.267 OA
ATOM      9  N   UNL     1      -4.752  -6.787  -0.027  0.00  0.00    -0.302 N 
ATOM     10  C   UNL     1      -4.063  -6.809  -1.210  0.00  0.00    +0.017 C 
ATOM     11  C   UNL     1      -2.753  -6.495  -1.254  0.00  0.00    +0.024 C 
ATOM     12  C   UNL     1      -2.043  -6.532  -2.467  0.00  0.00    +0.162 C 
ATOM     13  O   UNL     1      -0.864  -6.236  -2.477  0.00  0.00    -0.292 OA
ATOM     14  C   UNL     1      -2.712  -6.933  -3.753  0.00  0.00    +0.080 C 
ATOM     15  C   UNL     1      -3.868  -7.887  -3.438  0.00  0.00    +0.014 C 
ATOM     16  C   UNL     1      -4.814  -7.191  -2.462  0.00  0.00    +0.051 C 
ATOM     17  H   UNL     1      -5.721  -6.739  -0.037  0.00  0.00    +0.153 HD
ATOM     18  H   UNL     1      -2.324  -6.984   4.416  0.00  0.00    +0.171 HD
ENDROOT
BRANCH   1  22
ATOM     19  C   UNL     1      -1.498  -1.848   0.006  0.00  0.00    +0.121 A 
ATOM     20  C   UNL     1      -0.388  -2.679  -0.003  0.00  0.00    +0.046 A 
ATOM     21  C   UNL     1      -0.553  -4.051  -0.008  0.00  0.00    +0.008 A 
ATOM     22  C   UNL     1      -1.823  -4.596  -0.005  0.00  0.00    -0.035 A 
ATOM     23  C   UNL     1      -2.932  -3.769   0.004  0.00  0.00    +0.008 A 
ATOM     24  C   UNL     1      -2.772  -2.397   0.016  0.00  0.00    +0.046 A 
BRANCH  19  25
ATOM     25  O   UNL     1      -1.339  -0.499   0.012  0.00  0.00    -0.492 OA
BRANCH  25  27
ATOM     26  C   UNL     1      -0.019   1.526   0.010  0.00  0.00    +0.048 C 
ATOM     27  C   UNL     1       0.002  -0.004   0.002  0.00  0.00    +0.225 C 
ENDBRANCH  25  27
ENDBRANCH  19  25
ENDBRANCH   1  22
BRANCH   5  28
ATOM     28  S   UNL     1      -4.978  -7.721   4.898  0.00  0.00    -0.088 S 
BRANCH  28  29
ATOM     29  C   UNL     1      -6.662  -8.027   4.298  0.00  0.00    +0.077 C 
BRANCH  29  30
ATOM     30  C   UNL     1      -7.551  -8.456   5.467  0.00  0.00    +0.014 C 
BRANCH  30  31
ATOM     31  C   UNL     1      -8.972  -8.714   4.960  0.00  0.00    -0.016 C 
ATOM     32  C   UNL     1      -8.962  -9.906   4.001  0.00  0.00    +0.007 C 
ATOM     33  C   UNL     1      -9.888  -9.021   6.146  0.00  0.00    +0.007 C 
ENDBRANCH  30  31
ENDBRANCH  29  30
ENDBRANCH  28  29
ENDBRANCH   5  28
TORSDOF 7
