REMARK  Name = ZINC36203393
REMARK  4 active torsions:
REMARK  status: ('A' for Active; 'I' for Inactive)
REMARK    1  A    between atoms: C_2  and  S_9
REMARK    2  A    between atoms: S_9  and  N_12
REMARK    3  A    between atoms: C_16  and  C_19
REMARK    4  A    between atoms: C_19  and  O_20
REMARK                            x       y       z     vdW  Elec       q    Type
REMARK                         _______ _______ _______ _____ _____    ______ ____
ROOT
ATOM      1  S   UNL     1       1.146   3.849   0.011  0.00  0.00    +0.061 S 
ATOM      2  O   UNL     1       2.380   4.275  -0.549  0.00  0.00    -0.153 OA
ATOM      3  O   UNL     1      -0.110   4.240  -0.526  0.00  0.00    -0.153 OA
ENDROOT
BRANCH   1   5
ATOM      4  C   UNL     1      -0.017   1.379   0.010  0.00  0.00    +0.048 A 
ATOM      5  C   UNL     1       1.171   2.087   0.002  0.00  0.00    +0.108 A 
ATOM      6  C   UNL     1       2.377   1.413  -0.013  0.00  0.00    +0.048 A 
ATOM      7  C   UNL     1       2.397   0.030  -0.021  0.00  0.00    +0.044 A 
ATOM      8  C   UNL     1       1.209  -0.679  -0.013  0.00  0.00    +0.040 A 
ATOM      9  C   UNL     1       0.002  -0.004   0.002  0.00  0.00    +0.044 A 
ATOM     10 CL   UNL     1      -1.489  -0.893   0.012  0.00  0.00    -0.083 Cl
ATOM     11 CL   UNL     1       3.913  -0.817  -0.040  0.00  0.00    -0.083 Cl
ENDBRANCH   1   5
BRANCH   1  12
ATOM     12  N   UNL     1       1.154   4.330   1.596  0.00  0.00    -0.176 NA
ATOM     13  C   UNL     1      -0.106   4.524   2.325  0.00  0.00    +0.109 C 
ATOM     14  C   UNL     1      -0.112   5.930   2.935  0.00  0.00    +0.017 C 
ATOM     15  C   UNL     1       1.144   6.115   3.790  0.00  0.00    +0.008 C 
ATOM     16  C   UNL     1       2.388   5.976   2.909  0.00  0.00    +0.030 C 
ATOM     17  C   UNL     1       2.421   4.566   2.300  0.00  0.00    +0.115 C 
BRANCH  16  18
ATOM     18  C   UNL     1       3.642   6.195   3.757  0.00  0.00    +0.160 C 
BRANCH  18  19
ATOM     19  O   UNL     1       3.665   7.542   4.233  0.00  0.00    -0.395 OA
ATOM     20  H   UNL     1       4.435   7.753   4.780  0.00  0.00    +0.209 HD
ENDBRANCH  18  19
ENDBRANCH  16  18
ENDBRANCH   1  12
TORSDOF 4
