REMARK  Name = ZINC51096655
REMARK  2 active torsions:
REMARK  status: ('A' for Active; 'I' for Inactive)
REMARK    1  A    between atoms: C_10  and  C_12
REMARK    2  A    between atoms: N_18  and  N_19
REMARK                            x       y       z     vdW  Elec       q    Type
REMARK                         _______ _______ _______ _____ _____    ______ ____
ROOT
ATOM      1  C   UNL     1      -0.017   1.378   0.014  0.00  0.00    +0.000 A 
ATOM      2  C   UNL     1       1.174   2.082   0.007  0.00  0.00    +0.002 A 
ATOM      3  C   UNL     1       2.377   1.411  -0.010  0.00  0.00    +0.024 A 
ATOM      4  C   UNL     1       2.404   0.015  -0.019  0.00  0.00    +0.040 A 
ATOM      5  C   UNL     1       1.206  -0.682  -0.011  0.00  0.00    -0.024 A 
ATOM      6  C   UNL     1       0.002  -0.004   0.005  0.00  0.00    +0.005 A 
ATOM      7  C   UNL     1       1.510  -2.163  -0.023  0.00  0.00    +0.056 C 
ATOM      8  C   UNL     1       3.046  -2.242  -0.039  0.00  0.00    +0.119 C 
ATOM      9  N   UNL     1       3.502  -0.850  -0.035  0.00  0.00    -0.266 N 
ATOM     10  C   UNL     1       4.792  -0.460  -0.046  0.00  0.00    +0.271 C 
ATOM     11  O   UNL     1       5.070   0.720  -0.136  0.00  0.00    -0.268 OA
ENDROOT
BRANCH  10  12
ATOM     12  C   UNL     1       5.870  -1.468   0.050  0.00  0.00    +0.148 A 
ATOM     13  C   UNL     1       7.206  -1.060   0.150  0.00  0.00    +0.038 A 
ATOM     14  C   UNL     1       8.179  -2.038   0.238  0.00  0.00    +0.049 A 
ATOM     15  C   UNL     1       7.770  -3.373   0.222  0.00  0.00    +0.155 A 
ATOM     16  N   UNL     1       6.478  -3.669   0.124  0.00  0.00    -0.132 NA
ATOM     17  N   UNL     1       5.573  -2.762   0.048  0.00  0.00    -0.143 NA
ATOM     18  N   UNL     1       8.709  -4.387   0.307  0.00  0.00    -0.266 N 
ATOM     19  H   UNL     1       9.652  -4.171   0.378  0.00  0.00    +0.167 HD
BRANCH  18  20
ATOM     20  N   UNL     1       8.308  -5.693   0.290  0.00  0.00    -0.255 NA
ATOM     21  H   UNL     1       7.761  -5.893  -0.534  0.00  0.00    +0.140 HD
ATOM     22  H   UNL     1       9.099  -6.315   0.360  0.00  0.00    +0.140 HD
ENDBRANCH  18  20
ENDBRANCH  10  12
TORSDOF 2
