REMARK  Name = ZINC67145084
REMARK  10 active torsions:
REMARK  status: ('A' for Active; 'I' for Inactive)
REMARK    1  A    between atoms: C_1  and  C_2
REMARK    2  A    between atoms: C_5  and  C_8
REMARK    3  A    between atoms: C_14  and  C_16
REMARK    4  A    between atoms: C_16  and  C_18
REMARK    5  A    between atoms: C_16  and  N_19
REMARK    6  A    between atoms: C_20  and  O_22
REMARK    7  A    between atoms: O_22  and  C_23
REMARK    8  A    between atoms: C_23  and  C_24
REMARK    9  A    between atoms: C_23  and  C_25
REMARK   10  A    between atoms: C_23  and  C_26
REMARK                            x       y       z     vdW  Elec       q    Type
REMARK                         _______ _______ _______ _____ _____    ______ ____
ROOT
ATOM      1  C   UNL     1       0.059  -4.275  -0.021  0.00  0.00    +0.106 C 
ATOM      2  C   UNL     1       1.489  -4.783   0.263  0.00  0.00    +0.029 C 
ATOM      3  C   UNL     1       1.244  -6.024   1.161  0.00  0.00    +0.021 C 
ATOM      4  C   UNL     1       0.016  -5.572   1.989  0.00  0.00    +0.108 C 
ATOM      5  N   UNL     1      -0.811  -4.793   1.045  0.00  0.00    -0.293 N 
ATOM      6  C   UNL     1      -2.139  -4.588   1.143  0.00  0.00    +0.236 C 
ATOM      7  O   UNL     1      -2.715  -3.926   0.304  0.00  0.00    -0.274 OA
ENDROOT
BRANCH   1  12
ATOM      8  C   UNL     1      -0.018   1.503   0.010  0.00  0.00    +0.044 C 
ATOM      9  C   UNL     1       0.002  -0.004   0.002  0.00  0.00    -0.050 A 
ATOM     10  C   UNL     1       0.006  -0.689  -1.199  0.00  0.00    +0.004 A 
ATOM     11  C   UNL     1       0.025  -2.071  -1.206  0.00  0.00    +0.006 A 
ATOM     12  C   UNL     1       0.040  -2.768  -0.013  0.00  0.00    -0.027 A 
ATOM     13  C   UNL     1       0.037  -2.084   1.188  0.00  0.00    +0.006 A 
ATOM     14  C   UNL     1       0.023  -0.702   1.195  0.00  0.00    +0.004 A 
ENDBRANCH   1  12
BRANCH   6  15
ATOM     15  C   UNL     1      -2.910  -5.180   2.294  0.00  0.00    +0.159 C 
ATOM     16  C   UNL     1      -2.355  -4.639   3.612  0.00  0.00    +0.038 C 
BRANCH  15  17
ATOM     17  N   UNL     1      -4.324  -4.816   2.174  0.00  0.00    -0.270 N 
ATOM     18  C   UNL     1      -5.270  -5.591   2.741  0.00  0.00    +0.401 C 
ATOM     19  O   UNL     1      -4.950  -6.591   3.352  0.00  0.00    -0.226 OA
ATOM     20  H   UNL     1      -4.580  -4.018   1.686  0.00  0.00    +0.153 HD
BRANCH  18  21
ATOM     21  O   UNL     1      -6.570  -5.256   2.631  0.00  0.00    -0.445 OA
BRANCH  21  22
ATOM     22  C   UNL     1      -7.518  -6.122   3.257  0.00  0.00    +0.107 C 
ATOM     23  C   UNL     1      -7.236  -6.186   4.759  0.00  0.00    +0.055 C 
ATOM     24  C   UNL     1      -8.931  -5.583   3.025  0.00  0.00    +0.055 C 
ATOM     25  C   UNL     1      -7.402  -7.525   2.656  0.00  0.00    +0.055 C 
ENDBRANCH  21  22
ENDBRANCH  18  21
ENDBRANCH  15  17
ENDBRANCH   6  15
TORSDOF 5
