REMARK  Name = ZINC18080526
REMARK  12 active torsions:
REMARK  status: ('A' for Active; 'I' for Inactive)
REMARK    1  A    between atoms: C_1  and  C_2
REMARK    2  A    between atoms: C_2  and  C_3
REMARK    3  A    between atoms: C_3  and  C_4
REMARK    4  A    between atoms: C_4  and  N_5
REMARK    5  A    between atoms: C_6  and  N_32
REMARK    6  A    between atoms: C_7  and  N_14
REMARK    7  A    between atoms: N_14  and  C_15
REMARK    8  A    between atoms: C_15  and  C_16
REMARK    9  A    between atoms: C_16  and  C_17
REMARK   10  A    between atoms: C_17  and  C_18
REMARK   11  A    between atoms: C_17  and  C_19
REMARK   12  A    between atoms: C_20  and  C_22
REMARK                            x       y       z     vdW  Elec       q    Type
REMARK                         _______ _______ _______ _____ _____    ______ ____
ROOT
ATOM      1  N   UNL     1      -0.318  -2.571   1.288  0.00  0.00    -0.260 N 
ATOM      2  C   UNL     1       0.890  -1.974   1.308  0.00  0.00    +0.250 C 
ATOM      3  O   UNL     1       1.070  -0.943   0.686  0.00  0.00    -0.270 OA
ENDROOT
BRANCH   2   4
ATOM      4  C   UNL     1       1.984  -2.564   2.079  0.00  0.00    +0.052 C 
ATOM      5  C   UNL     1       3.130  -1.868   2.276  0.00  0.00    +0.023 C 
ATOM      6  C   UNL     1       4.207  -2.517   3.041  0.00  0.00    +0.017 A 
ATOM      7  C   UNL     1       5.266  -1.784   3.574  0.00  0.00    +0.011 A 
ATOM      8  C   UNL     1       6.254  -2.435   4.284  0.00  0.00    +0.001 A 
ATOM      9  C   UNL     1       6.195  -3.807   4.469  0.00  0.00    +0.004 A 
ATOM     10  C   UNL     1       5.149  -4.544   3.945  0.00  0.00    +0.046 A 
ATOM     11  C   UNL     1       4.149  -3.909   3.229  0.00  0.00    +0.128 A 
ATOM     12  O   UNL     1       3.111  -4.603   2.702  0.00  0.00    -0.487 OA
ATOM     13  C   UNL     1       1.842  -3.948   2.656  0.00  0.00    +0.269 C 
ENDBRANCH   2   4
BRANCH   1  16
ATOM     14  N   UNL     1      -0.846  -4.655   4.267  0.00  0.00    -0.280 N 
ATOM     15  C   UNL     1      -0.600  -3.549   3.487  0.00  0.00    +0.127 A 
ATOM     16  C   UNL     1      -0.568  -3.686   2.114  0.00  0.00    +0.140 A 
ATOM     17  C   UNL     1      -0.794  -4.957   1.553  0.00  0.00    +0.277 A 
ATOM     18  O   UNL     1      -0.777  -5.106   0.343  0.00  0.00    -0.266 OA
ATOM     19  N   UNL     1      -1.025  -6.010   2.362  0.00  0.00    -0.273 N 
ATOM     20  H   UNL     1      -1.178  -6.915   1.965  0.00  0.00    +0.173 HD
ATOM     21  C   UNL     1      -1.053  -5.857   3.698  0.00  0.00    +0.331 A 
ATOM     22  O   UNL     1      -1.268  -6.823   4.405  0.00  0.00    -0.246 OA
BRANCH  15  23
ATOM     23  N   UNL     1      -0.388  -2.322   4.069  0.00  0.00    -0.343 N 
ATOM     24  H   UNL     1      -0.291  -1.532   3.513  0.00  0.00    +0.144 HD
ATOM     25  H   UNL     1      -0.336  -2.245   5.034  0.00  0.00    +0.144 HD
ENDBRANCH  15  23
BRANCH  14  26
ATOM     26  C   UNL     1      -0.883  -4.524   5.726  0.00  0.00    +0.128 C 
BRANCH  26  27
ATOM     27  C   UNL     1      -2.312  -4.207   6.173  0.00  0.00    +0.021 C 
BRANCH  27  29
ATOM     28  C   UNL     1      -3.779  -3.752   8.143  0.00  0.00    +0.004 C 
ATOM     29  C   UNL     1      -2.351  -4.070   7.696  0.00  0.00    -0.002 C 
ENDBRANCH  27  29
ENDBRANCH  26  27
ENDBRANCH  14  26
ENDBRANCH   1  16
BRANCH   1  30
ATOM     30  C   UNL     1      -1.372  -2.062   0.406  0.00  0.00    +0.114 C 
BRANCH  30  31
ATOM     31  C   UNL     1      -1.191  -2.647  -0.996  0.00  0.00    +0.022 C 
BRANCH  31  32
ATOM     32  C   UNL     1      -2.196  -2.001  -1.952  0.00  0.00    -0.016 C 
ATOM     33  C   UNL     1      -1.933  -2.493  -3.376  0.00  0.00    +0.007 C 
ATOM     34  C   UNL     1      -3.617  -2.386  -1.533  0.00  0.00    +0.007 C 
ENDBRANCH  31  32
ENDBRANCH  30  31
ENDBRANCH   1  30
TORSDOF 9
