REMARK  Name = ZINC06028110
REMARK  11 active torsions:
REMARK  status: ('A' for Active; 'I' for Inactive)
REMARK    1  A    between atoms: C_1  and  C_2
REMARK    2  A    between atoms: C_2  and  C_3
REMARK    3  A    between atoms: C_2  and  C_4
REMARK    4  A    between atoms: C_2  and  C_5
REMARK    5  A    between atoms: C_8  and  C_11
REMARK    6  A    between atoms: N_13  and  C_14
REMARK    7  A    between atoms: C_14  and  C_15
REMARK    8  A    between atoms: C_15  and  O_17
REMARK    9  A    between atoms: O_17  and  C_18
REMARK   10  A    between atoms: C_18  and  C_19
REMARK   11  A    between atoms: N_24  and  C_25
REMARK                            x       y       z     vdW  Elec       q    Type
REMARK                         _______ _______ _______ _____ _____    ______ ____
ROOT
ATOM      1  C   UNL     1       2.406   0.752  -0.017  0.00  0.00    +0.325 C 
ATOM      2  O   UNL     1       2.201  -0.439  -0.021  0.00  0.00    -0.249 OA
ENDROOT
BRANCH   1   3
ATOM      3  C   UNL     1       1.248   1.716  -0.001  0.00  0.00    +0.225 C 
BRANCH   3   6
ATOM      4  C   UNL     1      -1.187   1.624   0.017  0.00  0.00    +0.245 C 
ATOM      5  O   UNL     1      -1.204   2.839   0.023  0.00  0.00    -0.270 OA
ATOM      6  N   UNL     1      -0.011   0.966   0.007  0.00  0.00    -0.301 N 
ATOM      7  H   UNL     1       0.002  -0.004   0.002  0.00  0.00    +0.150 HD
BRANCH   4  11
ATOM      8  C   UNL     1      -4.837  -0.550   0.021  0.00  0.00    -0.042 A 
ATOM      9  C   UNL     1      -4.859   0.834   0.029  0.00  0.00    +0.005 A 
ATOM     10  C   UNL     1      -3.677   1.546   0.028  0.00  0.00    +0.013 A 
ATOM     11  C   UNL     1      -2.458   0.867   0.018  0.00  0.00    +0.037 A 
ATOM     12  C   UNL     1      -2.442  -0.528   0.005  0.00  0.00    +0.013 A 
ATOM     13  C   UNL     1      -3.631  -1.228   0.011  0.00  0.00    +0.005 A 
BRANCH   8  15
ATOM     14  C   UNL     1      -6.945  -0.955  -1.221  0.00  0.00    +0.015 C 
ATOM     15  C   UNL     1      -6.131  -1.321   0.022  0.00  0.00    -0.013 C 
ATOM     16  C   UNL     1      -5.832  -2.821   0.011  0.00  0.00    +0.015 C 
ATOM     17  C   UNL     1      -6.933  -0.970   1.277  0.00  0.00    +0.015 C 
ENDBRANCH   8  15
ENDBRANCH   4  11
ENDBRANCH   3   6
ENDBRANCH   1   3
BRANCH   1  18
ATOM     18  O   UNL     1       3.665   1.216  -0.026  0.00  0.00    -0.454 OA
BRANCH  18  19
ATOM     19  C   UNL     1       4.731   0.231  -0.042  0.00  0.00    +0.328 C 
BRANCH  19  20
ATOM     20  C   UNL     1       6.065   0.933  -0.051  0.00  0.00    +0.258 C 
ATOM     21  O   UNL     1       6.112   2.145  -0.045  0.00  0.00    -0.272 OA
ATOM     22  N   UNL     1       7.205   0.215  -0.066  0.00  0.00    -0.237 N 
ATOM     23  C   UNL     1       8.397   0.843  -0.074  0.00  0.00    +0.306 C 
ATOM     24  O   UNL     1       8.444   2.057  -0.068  0.00  0.00    -0.252 OA
ATOM     25  N   UNL     1       9.537   0.124  -0.088  0.00  0.00    -0.296 N 
ATOM     26  H   UNL     1       7.167  -0.754  -0.070  0.00  0.00    +0.159 HD
ATOM     27  H   UNL     1       9.500  -0.845  -0.093  0.00  0.00    +0.151 HD
BRANCH  25  28
ATOM     28  C   UNL     1      10.834   0.807  -0.097  0.00  0.00    +0.074 C 
ATOM     29  C   UNL     1      11.213   1.164  -1.536  0.00  0.00    +0.022 C 
ATOM     30  C   UNL     1      12.566   1.877  -1.545  0.00  0.00    +0.002 C 
ATOM     31  C   UNL     1      13.632   0.955  -0.950  0.00  0.00    +0.000 C 
ATOM     32  C   UNL     1      13.254   0.598   0.488  0.00  0.00    +0.002 C 
ATOM     33  C   UNL     1      11.900  -0.115   0.497  0.00  0.00    +0.022 C 
ENDBRANCH  25  28
ENDBRANCH  19  20
ENDBRANCH  18  19
ENDBRANCH   1  18
TORSDOF 8
