REMARK  Name = ZINC27308261
REMARK  10 active torsions:
REMARK  status: ('A' for Active; 'I' for Inactive)
REMARK    1  A    between atoms: C_4  and  C_7
REMARK    2  A    between atoms: C_7  and  N_8
REMARK    3  A    between atoms: C_9  and  N_34
REMARK    4  A    between atoms: C_10  and  N_17
REMARK    5  A    between atoms: N_17  and  C_18
REMARK    6  A    between atoms: N_17  and  C_27
REMARK    7  A    between atoms: C_18  and  C_19
REMARK    8  A    between atoms: C_19  and  O_20
REMARK    9  A    between atoms: O_20  and  C_21
REMARK   10  A    between atoms: C_27  and  C_28
REMARK                            x       y       z     vdW  Elec       q    Type
REMARK                         _______ _______ _______ _____ _____    ______ ____
ROOT
ATOM      1  N   UNL     1       2.609   0.030  -0.699  0.00  0.00    -0.276 N 
ATOM      2  C   UNL     1       2.450   1.395  -0.633  0.00  0.00    +0.127 A 
ATOM      3  C   UNL     1       1.256   1.912  -0.207  0.00  0.00    +0.134 A 
ATOM      4  C   UNL     1       0.221   1.030   0.152  0.00  0.00    +0.277 A 
ATOM      5  O   UNL     1      -0.854   1.467   0.530  0.00  0.00    -0.266 OA
ATOM      6  N   UNL     1       0.421  -0.300   0.072  0.00  0.00    -0.273 N 
ATOM      7  H   UNL     1      -0.383  -0.996   0.351  0.00  0.00    +0.173 HD
ATOM      8  C   UNL     1       1.601  -0.791  -0.349  0.00  0.00    +0.331 A 
ATOM      9  O   UNL     1       1.760  -1.995  -0.415  0.00  0.00    -0.246 OA
ENDROOT
BRANCH   2  10
ATOM     10  N   UNL     1       3.480   2.233  -0.993  0.00  0.00    -0.343 N 
ATOM     11  H   UNL     1       3.347   3.324  -0.938  0.00  0.00    +0.144 HD
ATOM     12  H   UNL     1       4.437   1.812  -1.335  0.00  0.00    +0.144 HD
ENDBRANCH   2  10
BRANCH   1  13
ATOM     13  C   UNL     1       3.882  -0.534  -1.154  0.00  0.00    +0.163 C 
BRANCH  13  17
ATOM     14  C   UNL     1       3.778  -1.053  -5.393  0.00  0.00    +0.000 A 
ATOM     15  C   UNL     1       4.231   0.136  -4.853  0.00  0.00    +0.000 A 
ATOM     16  C   UNL     1       4.265   0.304  -3.482  0.00  0.00    +0.005 A 
ATOM     17  C   UNL     1       3.845  -0.717  -2.649  0.00  0.00    -0.028 A 
ATOM     18  C   UNL     1       3.397  -1.908  -3.189  0.00  0.00    +0.005 A 
ATOM     19  C   UNL     1       3.358  -2.074  -4.561  0.00  0.00    +0.000 A 
ENDBRANCH  13  17
ENDBRANCH   1  13
BRANCH   3  20
ATOM     20  N   UNL     1       1.066   3.311  -0.131  0.00  0.00    -0.316 N 
BRANCH  20  21
ATOM     21  C   UNL     1       0.843   3.737   1.258  0.00  0.00    +0.146 C 
BRANCH  21  22
ATOM     22  C   UNL     1       2.165   3.680   2.026  0.00  0.00    +0.248 C 
BRANCH  22  23
ATOM     23  O   UNL     1       3.080   4.627   1.471  0.00  0.00    -0.490 OA
BRANCH  23  24
ATOM     24  C   UNL     1       4.331   4.659   2.000  0.00  0.00    +0.121 A 
ATOM     25  C   UNL     1       4.703   3.732   2.963  0.00  0.00    +0.045 A 
ATOM     26  C   UNL     1       5.977   3.763   3.495  0.00  0.00    +0.004 A 
ATOM     27  C   UNL     1       6.879   4.725   3.077  0.00  0.00    +0.000 A 
ATOM     28  C   UNL     1       6.509   5.654   2.122  0.00  0.00    +0.004 A 
ATOM     29  C   UNL     1       5.238   5.623   1.583  0.00  0.00    +0.045 A 
ENDBRANCH  23  24
ENDBRANCH  22  23
ENDBRANCH  21  22
ENDBRANCH  20  21
BRANCH  20  30
ATOM     30  C   UNL     1      -0.040   3.740  -0.997  0.00  0.00    +0.140 C 
BRANCH  30  31
ATOM     31  C   UNL     1       0.037   5.230  -1.209  0.00  0.00    -0.030 A 
ATOM     32  C   UNL     1      -0.710   6.082  -0.417  0.00  0.00    +0.005 A 
ATOM     33  C   UNL     1      -0.635   7.448  -0.609  0.00  0.00    +0.000 A 
ATOM     34  C   UNL     1       0.180   7.963  -1.600  0.00  0.00    +0.000 A 
ATOM     35  C   UNL     1       0.923   7.112  -2.396  0.00  0.00    +0.000 A 
ATOM     36  C   UNL     1       0.852   5.745  -2.200  0.00  0.00    +0.005 A 
ENDBRANCH  30  31
ENDBRANCH  20  30
ENDBRANCH   3  20
TORSDOF 10
