REMARK  Name = ZINC39579406
REMARK  7 active torsions:
REMARK  status: ('A' for Active; 'I' for Inactive)
REMARK    1  A    between atoms: C_1  and  C_2
REMARK    2  A    between atoms: C_17  and  C_29
REMARK    3  A    between atoms: C_22  and  C_23
REMARK    4  A    between atoms: C_22  and  O_28
REMARK    5  A    between atoms: C_23  and  C_25
REMARK    6  A    between atoms: C_23  and  O_27
REMARK    7  A    between atoms: C_25  and  O_26
REMARK                            x       y       z     vdW  Elec       q    Type
REMARK                         _______ _______ _______ _____ _____    ______ ____
ROOT
ATOM      1  C   UNL     1       0.146   1.419   0.169  0.00  0.00    +0.016 C 
ATOM      2  C   UNL     1       0.115  -0.113   0.084  0.00  0.00    -0.007 C 
ATOM      3  C   UNL     1       0.802  -0.493  -1.221  0.00  0.00    +0.019 C 
ATOM      4  C   UNL     1       2.317  -0.312  -1.141  0.00  0.00    +0.080 C 
ATOM      5  C   UNL     1       2.826  -1.175  -0.003  0.00  0.00    +0.156 C 
ATOM      6  O   UNL     1       3.827  -1.853  -0.126  0.00  0.00    -0.293 OA
ATOM      7  C   UNL     1       2.060  -1.156   1.245  0.00  0.00    +0.046 C 
ATOM      8  C   UNL     1       0.833  -0.634   1.287  0.00  0.00    -0.060 C 
ATOM      9  C   UNL     1       0.159  -0.531   2.635  0.00  0.00    +0.032 C 
ATOM     10  C   UNL     1      -1.274  -0.995   2.570  0.00  0.00    +0.008 C 
ATOM     11  C   UNL     1      -2.075  -0.486   1.384  0.00  0.00    -0.003 C 
ATOM     12  C   UNL     1      -1.340  -0.518   0.062  0.00  0.00    +0.002 C 
ATOM     13  C   UNL     1      -1.640  -1.787  -0.719  0.00  0.00    +0.005 C 
ATOM     14  C   UNL     1      -3.102  -1.753  -1.208  0.00  0.00    +0.010 C 
ATOM     15  C   UNL     1      -3.984  -1.204  -0.113  0.00  0.00    +0.002 C 
ATOM     16  C   UNL     1      -3.307  -1.381   1.261  0.00  0.00    +0.001 C 
ATOM     17  C   UNL     1      -4.445  -1.015   2.228  0.00  0.00    +0.007 C 
ATOM     18  C   UNL     1      -5.705  -1.617   1.554  0.00  0.00    +0.038 C 
ATOM     19  C   UNL     1      -5.303  -1.968   0.101  0.00  0.00    +0.100 C 
ATOM     20  C   UNL     1      -4.337   0.260  -0.382  0.00  0.00    +0.014 C 
ENDROOT
BRANCH  19  21
ATOM     21  O   UNL     1      -5.101  -3.372  -0.037  0.00  0.00    -0.385 OA
ATOM     22  H   UNL     1      -5.902  -3.899   0.088  0.00  0.00    +0.210 HD
ENDBRANCH  19  21
BRANCH  19  23
ATOM     23  C   UNL     1      -6.363  -1.471  -0.880  0.00  0.00    +0.172 C 
BRANCH  23  24
ATOM     24  O   UNL     1      -7.616  -2.090  -0.582  0.00  0.00    -0.387 OA
ATOM     25  H   UNL     1      -7.603  -3.055  -0.642  0.00  0.00    +0.210 HD
ENDBRANCH  23  24
BRANCH  23  26
ATOM     26  C   UNL     1      -5.945  -1.829  -2.308  0.00  0.00    +0.190 C 
BRANCH  26  27
ATOM     27  O   UNL     1      -6.876  -1.263  -3.233  0.00  0.00    -0.392 OA
ATOM     28  H   UNL     1      -6.672  -1.451  -4.160  0.00  0.00    +0.210 HD
ENDBRANCH  26  27
ENDBRANCH  23  26
ENDBRANCH  19  23
TORSDOF 5
