REMARK  Name = ZINC23255799
REMARK  11 active torsions:
REMARK  status: ('A' for Active; 'I' for Inactive)
REMARK    1  A    between atoms: C_3  and  C_9
REMARK    2  A    between atoms: C_9  and  O_10
REMARK    3  A    between atoms: O_10  and  C_11
REMARK    4  A    between atoms: C_16  and  C_17
REMARK    5  A    between atoms: C_17  and  N_18
REMARK    6  A    between atoms: N_18  and  C_19
REMARK    7  A    between atoms: C_19  and  C_20
REMARK    8  A    between atoms: C_20  and  N_21
REMARK    9  A    between atoms: N_21  and  C_22
REMARK   10  A    between atoms: C_22  and  C_23
REMARK   11  A    between atoms: C_23  and  O_24
REMARK                            x       y       z     vdW  Elec       q    Type
REMARK                         _______ _______ _______ _____ _____    ______ ____
ROOT
ATOM      1  C   UNL     1       4.456   4.430  -0.019  0.00  0.00    +0.122 A 
ATOM      2  C   UNL     1       5.746   3.919  -0.041  0.00  0.00    +0.047 A 
ATOM      3  C   UNL     1       6.828   4.778  -0.047  0.00  0.00    +0.019 A 
ATOM      4  C   UNL     1       6.626   6.146  -0.033  0.00  0.00    +0.018 A 
ATOM      5  C   UNL     1       5.340   6.658  -0.011  0.00  0.00    +0.020 A 
ATOM      6  C   UNL     1       4.256   5.802  -0.010  0.00  0.00    -0.022 A 
ATOM      7 BR   UNL     1       8.108   7.320  -0.042  0.00  0.00    -0.050 Br
ENDROOT
BRANCH   1   8
ATOM      8  O   UNL     1       3.390   3.586  -0.013  0.00  0.00    -0.487 OA
BRANCH   8   9
ATOM      9  C   UNL     1       3.671   2.185  -0.023  0.00  0.00    +0.266 C 
BRANCH   9  12
ATOM     10  C   UNL     1      -0.017   1.379   0.010  0.00  0.00    +0.020 A 
ATOM     11  C   UNL     1       1.171   2.087   0.002  0.00  0.00    +0.010 A 
ATOM     12  C   UNL     1       2.377   1.413  -0.013  0.00  0.00    +0.008 A 
ATOM     13  C   UNL     1       2.397   0.029  -0.021  0.00  0.00    +0.049 A 
ATOM     14  C   UNL     1       1.210  -0.679  -0.013  0.00  0.00    +0.040 A 
ATOM     15  C   UNL     1       0.002  -0.004   0.002  0.00  0.00    +0.042 A 
ATOM     16 CL   UNL     1      -1.489  -0.893   0.012  0.00  0.00    -0.083 Cl
ATOM     17 CL   UNL     1       3.913  -0.817  -0.041  0.00  0.00    -0.083 Cl
ENDBRANCH   9  12
ENDBRANCH   8   9
ENDBRANCH   1   8
BRANCH   6  18
ATOM     18  C   UNL     1       2.856   6.360   0.006  0.00  0.00    -0.043 C 
BRANCH  18  19
ATOM     19  N   UNL     1       2.325   6.311   1.375  0.00  0.00    +0.381 N 
ATOM     20  H   UNL     1       2.310   5.354   1.696  0.00  0.00    -0.086 HD
ATOM     21  H   UNL     1       2.913   6.860   1.984  0.00  0.00    -0.086 HD
BRANCH  19  22
ATOM     22  C   UNL     1       0.960   6.854   1.391  0.00  0.00    -0.102 C 
BRANCH  22  23
ATOM     23  C   UNL     1       0.407   6.803   2.817  0.00  0.00    -0.102 C 
BRANCH  23  24
ATOM     24  N   UNL     1      -0.957   7.346   2.833  0.00  0.00    +0.379 N 
ATOM     25  H   UNL     1      -0.942   8.303   2.512  0.00  0.00    -0.086 HD
ATOM     26  H   UNL     1      -1.545   6.797   2.224  0.00  0.00    -0.086 HD
BRANCH  24  27
ATOM     27  C   UNL     1      -1.488   7.297   4.202  0.00  0.00    -0.055 C 
BRANCH  27  28
ATOM     28  C   UNL     1      -2.909   7.863   4.218  0.00  0.00    +0.137 C 
BRANCH  28  29
ATOM     29  O   UNL     1      -3.768   7.018   3.449  0.00  0.00    -0.397 OA
ATOM     30  H   UNL     1      -4.687   7.317   3.416  0.00  0.00    +0.209 HD
ENDBRANCH  28  29
ENDBRANCH  27  28
ENDBRANCH  24  27
ENDBRANCH  23  24
ENDBRANCH  22  23
ENDBRANCH  19  22
ENDBRANCH  18  19
ENDBRANCH   6  18
TORSDOF 11
