REMARK  Name = ZINC39156810
REMARK  7 active torsions:
REMARK  status: ('A' for Active; 'I' for Inactive)
REMARK    1  A    between atoms: C_1  and  C_2
REMARK    2  A    between atoms: C_2  and  C_3
REMARK    3  A    between atoms: C_3  and  N_4
REMARK    4  A    between atoms: N_4  and  C_5
REMARK    5  A    between atoms: C_16  and  N_18
REMARK    6  A    between atoms: N_18  and  S_19
REMARK    7  A    between atoms: S_19  and  C_22
REMARK                            x       y       z     vdW  Elec       q    Type
REMARK                         _______ _______ _______ _____ _____    ______ ____
ROOT
ATOM      1  C   UNL     1      -2.814  -2.442   0.059  0.00  0.00    +0.117 C 
ATOM      2  C   UNL     1      -3.301  -2.389   1.484  0.00  0.00    +0.014 A 
ATOM      3  C   UNL     1      -2.909  -1.322   2.277  0.00  0.00    +0.009 A 
ATOM      4  C   UNL     1      -3.337  -1.230   3.587  0.00  0.00    +0.001 A 
ATOM      5  C   UNL     1      -4.164  -2.205   4.114  0.00  0.00    +0.004 A 
ATOM      6  C   UNL     1      -4.556  -3.271   3.331  0.00  0.00    +0.047 A 
ATOM      7  C   UNL     1      -4.123  -3.368   2.013  0.00  0.00    +0.136 A 
ATOM      8  O   UNL     1      -4.518  -4.446   1.281  0.00  0.00    -0.424 OA
ATOM      9  C   UNL     1      -4.263  -4.426  -0.043  0.00  0.00    +0.333 C 
ATOM     10  O   UNL     1      -5.069  -4.830  -0.848  0.00  0.00    -0.249 OA
ATOM     11  C   UNL     1      -2.918  -3.876  -0.471  0.00  0.00    +0.206 C 
ENDROOT
BRANCH   1  12
ATOM     12  N   UNL     1      -1.413  -2.002   0.005  0.00  0.00    -0.307 NA
ATOM     13  H   UNL     1      -0.786  -2.767   0.204  0.00  0.00    +0.123 HD
BRANCH  12  14
ATOM     14  C   UNL     1      -1.103  -1.392  -1.295  0.00  0.00    +0.081 C 
BRANCH  14  16
ATOM     15  C   UNL     1       0.644  -0.196  -2.622  0.00  0.00    +0.005 C 
ATOM     16  C   UNL     1       0.321  -0.832  -1.268  0.00  0.00    +0.012 C 
ENDBRANCH  14  16
ENDBRANCH  12  14
ENDBRANCH   1  12
BRANCH  11  17
ATOM     17  N   UNL     1      -1.842  -4.694   0.093  0.00  0.00    -0.174 NA
ATOM     18  H   UNL     1      -1.537  -4.536   1.000  0.00  0.00    +0.149 HD
BRANCH  17  19
ATOM     19  S   UNL     1      -1.146  -5.889  -0.817  0.00  0.00    +0.059 S 
ATOM     20  O   UNL     1      -0.132  -6.475  -0.012  0.00  0.00    -0.153 OA
ATOM     21  O   UNL     1      -2.210  -6.648  -1.374  0.00  0.00    -0.153 OA
BRANCH  19  22
ATOM     22  C   UNL     1      -0.326  -5.106  -2.166  0.00  0.00    +0.109 A 
ATOM     23  C   UNL     1      -1.009  -4.877  -3.348  0.00  0.00    +0.031 A 
ATOM     24  C   UNL     1      -0.374  -4.264  -4.410  0.00  0.00    +0.031 A 
ATOM     25  C   UNL     1       0.952  -3.876  -4.290  0.00  0.00    +0.087 A 
ATOM     26  C   UNL     1       1.640  -4.105  -3.099  0.00  0.00    +0.159 A 
ATOM     27  C   UNL     1       0.993  -4.717  -2.037  0.00  0.00    +0.077 A 
ATOM     28  O   UNL     1       2.899  -3.630  -3.264  0.00  0.00    -0.408 OA
ATOM     29  C   UNL     1       3.019  -3.119  -4.500  0.00  0.00    +0.419 A 
ATOM     30  O   UNL     1       4.027  -2.615  -4.957  0.00  0.00    -0.223 OA
ATOM     31  N   UNL     1       1.849  -3.251  -5.156  0.00  0.00    -0.288 N 
ATOM     32  H   UNL     1       1.665  -2.965  -6.064  0.00  0.00    +0.172 HD
ENDBRANCH  19  22
ENDBRANCH  17  19
ENDBRANCH  11  17
TORSDOF 6
