REMARK  Name = ZINC18100017
REMARK  4 active torsions:
REMARK  status: ('A' for Active; 'I' for Inactive)
REMARK    1  A    between atoms: C_4  and  C_7
REMARK    2  A    between atoms: C_7  and  S_8
REMARK    3  A    between atoms: S_8  and  C_11
REMARK    4  A    between atoms: N_20  and  O_21
REMARK                            x       y       z     vdW  Elec       q    Type
REMARK                         _______ _______ _______ _____ _____    ______ ____
ROOT
ATOM      1  C   UNL     1       5.827  -1.889   1.433  0.00  0.00    +0.178 C 
ATOM      2  C   UNL     1       6.455  -2.216   2.812  0.00  0.00    +0.036 C 
ATOM      3  C   UNL     1       7.834  -2.837   2.532  0.00  0.00    +0.029 C 
ATOM      4  C   UNL     1       7.627  -4.015   1.607  0.00  0.00    -0.031 C 
ATOM      5  C   UNL     1       8.002  -3.896   0.354  0.00  0.00    -0.031 C 
ATOM      6  C   UNL     1       8.625  -2.594  -0.075  0.00  0.00    +0.033 C 
ATOM      7  C   UNL     1       7.596  -1.562  -0.463  0.00  0.00    +0.060 C 
ATOM      8  C   UNL     1       6.800  -1.009   0.676  0.00  0.00    +0.082 C 
ATOM      9  N   UNL     1       6.942   0.217   1.014  0.00  0.00    -0.095 NA
ENDROOT
BRANCH   1  10
ATOM     10  S   UNL     1       4.257  -1.011   1.666  0.00  0.00    -0.019 S 
ATOM     11  O   UNL     1       4.529   0.241   2.280  0.00  0.00    -0.173 OA
ATOM     12  O   UNL     1       3.333  -1.897   2.282  0.00  0.00    -0.173 OA
BRANCH  10  13
ATOM     13  C   UNL     1       3.711  -0.707  -0.038  0.00  0.00    +0.201 C 
BRANCH  13  17
ATOM     14  C   UNL     1      -0.017   1.378   0.010  0.00  0.00    +0.000 A 
ATOM     15  C   UNL     1       1.171   2.086   0.002  0.00  0.00    +0.000 A 
ATOM     16  C   UNL     1       2.377   1.411  -0.013  0.00  0.00    +0.005 A 
ATOM     17  C   UNL     1       2.396   0.029  -0.020  0.00  0.00    -0.027 A 
ATOM     18  C   UNL     1       1.208  -0.679  -0.012  0.00  0.00    +0.005 A 
ATOM     19  C   UNL     1       0.002  -0.004   0.002  0.00  0.00    +0.000 A 
ENDBRANCH  13  17
ENDBRANCH  10  13
ENDBRANCH   1  10
BRANCH   9  20
ATOM     20  O   UNL     1       7.851   1.044   0.310  0.00  0.00    -0.409 OA
ATOM     21  H   UNL     1       7.889   1.953   0.637  0.00  0.00    +0.328 HD
ENDBRANCH   9  20
TORSDOF 4
