REMARK  Name = ZINC14246110
REMARK  3 active torsions:
REMARK  status: ('A' for Active; 'I' for Inactive)
REMARK    1  A    between atoms: C_12  and  C_17
REMARK    2  A    between atoms: C_17  and  C_18
REMARK    3  A    between atoms: N_20  and  C_21
REMARK                            x       y       z     vdW  Elec       q    Type
REMARK                         _______ _______ _______ _____ _____    ______ ____
ROOT
ATOM      1  C   UNL     1       7.934   4.440   5.440  0.00  0.00    +0.001 A 
ATOM      2  C   UNL     1       6.769   5.134   5.731  0.00  0.00    +0.002 A 
ATOM      3  C   UNL     1       5.697   5.108   4.865  0.00  0.00    +0.028 A 
ATOM      4  C   UNL     1       5.780   4.375   3.681  0.00  0.00    +0.076 A 
ATOM      5  C   UNL     1       6.967   3.671   3.390  0.00  0.00    +0.042 A 
ATOM      6  C   UNL     1       8.038   3.708   4.274  0.00  0.00    +0.013 A 
ATOM      7  C   UNL     1       7.022   2.905   2.129  0.00  0.00    +0.154 C 
ATOM      8  N   UNL     1       8.080   2.235   1.798  0.00  0.00    -0.164 NA
ATOM      9  N   UNL     1       8.193   1.493   0.623  0.00  0.00    -0.204 N 
ATOM     10  C   UNL     1       7.178   1.427  -0.265  0.00  0.00    +0.254 C 
ATOM     11  O   UNL     1       7.280   0.780  -1.287  0.00  0.00    -0.272 OA
ATOM     12  C   UNL     1       5.907   2.188   0.057  0.00  0.00    +0.177 C 
ATOM     13  N   UNL     1       5.889   2.939   1.320  0.00  0.00    -0.262 N 
ATOM     14  C   UNL     1       4.795   3.651   1.698  0.00  0.00    +0.191 C 
ATOM     15  N   UNL     1       4.740   4.327   2.804  0.00  0.00    -0.239 NA
ATOM     16  H   UNL     1       9.017   1.015   0.440  0.00  0.00    +0.177 HD
ENDROOT
BRANCH  12  17
ATOM     17  C   UNL     1       4.751   1.187   0.086  0.00  0.00    +0.128 C 
BRANCH  17  18
ATOM     18  C   UNL     1       4.989   0.175   1.177  0.00  0.00    +0.219 C 
ATOM     19  O   UNL     1       5.937   0.300   1.924  0.00  0.00    -0.275 OA
ATOM     20  N   UNL     1       4.150  -0.869   1.323  0.00  0.00    -0.285 N 
ATOM     21  H   UNL     1       3.431  -1.007   0.686  0.00  0.00    +0.155 HD
BRANCH  20  22
ATOM     22  C   UNL     1       4.315  -1.755   2.394  0.00  0.00    +0.033 A 
ATOM     23  C   UNL     1       3.204  -2.325   3.003  0.00  0.00    +0.025 A 
ATOM     24  C   UNL     1       3.369  -3.194   4.063  0.00  0.00    +0.022 A 
ATOM     25  C   UNL     1       4.640  -3.506   4.512  0.00  0.00    +0.041 A 
ATOM     26  C   UNL     1       5.749  -2.939   3.908  0.00  0.00    +0.022 A 
ATOM     27  C   UNL     1       5.589  -2.065   2.851  0.00  0.00    +0.025 A 
ATOM     28 CL   UNL     1       4.845  -4.605   5.840  0.00  0.00    -0.084 Cl
ENDBRANCH  20  22
ENDBRANCH  17  18
ENDBRANCH  12  17
TORSDOF 3
