REMARK  Name = ZINC07813293
REMARK  8 active torsions:
REMARK  status: ('A' for Active; 'I' for Inactive)
REMARK    1  A    between atoms: C_1  and  C_2
REMARK    2  A    between atoms: C_2  and  C_5
REMARK    3  A    between atoms: N_3  and  O_4
REMARK    4  A    between atoms: C_5  and  C_21
REMARK    5  A    between atoms: C_7  and  C_13
REMARK    6  A    between atoms: C_8  and  C_11
REMARK    7  A    between atoms: C_8  and  C_12
REMARK    8  A    between atoms: N_9  and  O_10
REMARK                            x       y       z     vdW  Elec       q    Type
REMARK                         _______ _______ _______ _____ _____    ______ ____
ROOT
ATOM      1  C   UNL     1       0.111  -0.843  -1.111  0.00  0.00    +0.195 C 
ATOM      2  N   UNL     1      -0.904  -0.518  -2.119  0.00  0.00    -0.138 N 
ATOM      3  C   UNL     1      -1.847  -1.401  -2.115  0.00  0.00    +0.089 C 
ATOM      4  C   UNL     1      -1.549  -2.449  -1.066  0.00  0.00    +0.088 C 
ATOM      5  N   UNL     1      -0.110  -2.265  -0.756  0.00  0.00    -0.145 NA
ATOM      6  C   UNL     1      -2.400  -2.211   0.183  0.00  0.00    +0.037 C 
ATOM      7  C   UNL     1      -1.800  -3.851  -1.626  0.00  0.00    +0.037 C 
ATOM      8  O   UNL     1      -0.857   0.607  -2.977  0.00  0.00    -0.167 OA
ATOM      9  C   UNL     1       1.514  -0.657  -1.693  0.00  0.00    +0.064 C 
ENDROOT
BRANCH   3  10
ATOM     10  C   UNL     1      -3.032  -1.388  -2.996  0.00  0.00    -0.001 A 
ATOM     11  C   UNL     1      -2.991  -0.708  -4.215  0.00  0.00    +0.011 A 
ATOM     12  C   UNL     1      -4.101  -0.700  -5.034  0.00  0.00    +0.020 A 
ATOM     13  C   UNL     1      -5.253  -1.365  -4.650  0.00  0.00    +0.041 A 
ATOM     14  C   UNL     1      -5.300  -2.041  -3.442  0.00  0.00    +0.020 A 
ATOM     15  C   UNL     1      -4.195  -2.061  -2.617  0.00  0.00    +0.011 A 
ATOM     16 CL   UNL     1      -6.646  -1.349  -5.686  0.00  0.00    -0.084 Cl
ENDBRANCH   3  10
BRANCH   1  18
ATOM     17  C   UNL     1      -0.002   1.530  -0.028  0.00  0.00    +0.068 C 
ATOM     18  C   UNL     1      -0.066   0.030   0.105  0.00  0.00    +0.099 C 
ATOM     19  N   UNL     1      -0.270  -0.502   1.250  0.00  0.00    -0.093 NA
BRANCH  19  20
ATOM     20  O   UNL     1      -0.437   0.318   2.393  0.00  0.00    -0.409 OA
ATOM     21  H   UNL     1      -0.586  -0.174   3.212  0.00  0.00    +0.328 HD
ENDBRANCH  19  20
ENDBRANCH   1  18
BRANCH   5  22
ATOM     22  O   UNL     1       0.720  -3.146  -1.577  0.00  0.00    -0.309 OA
ATOM     23  H   UNL     1       1.670  -2.987  -1.488  0.00  0.00    +0.237 HD
ENDBRANCH   5  22
TORSDOF 4
