REMARK  Name = ZINC63159528
REMARK  4 active torsions:
REMARK  status: ('A' for Active; 'I' for Inactive)
REMARK    1  A    between atoms: C_1  and  N_2
REMARK    2  A    between atoms: N_2  and  C_3
REMARK    3  A    between atoms: C_3  and  C_4
REMARK    4  A    between atoms: C_10  and  C_12
REMARK                            x       y       z     vdW  Elec       q    Type
REMARK                         _______ _______ _______ _____ _____    ______ ____
ROOT
ATOM      1  C   UNL     1       0.874  -2.178  -1.026  0.00  0.00    -0.025 C 
ATOM      2  C   UNL     1      -0.585  -2.609  -1.195  0.00  0.00    +0.021 C 
ATOM      3  C   UNL     1      -0.659  -4.138  -1.245  0.00  0.00    +0.108 C 
ATOM      4  N   UNL     1       0.239  -4.621  -2.303  0.00  0.00    -0.298 N 
ATOM      5  C   UNL     1       1.644  -4.192  -2.287  0.00  0.00    +0.108 C 
ATOM      6  C   UNL     1       1.693  -2.663  -2.225  0.00  0.00    +0.021 C 
ATOM      7  C   UNL     1      -0.218  -5.441  -3.270  0.00  0.00    +0.247 C 
ATOM      8  O   UNL     1      -1.356  -5.862  -3.222  0.00  0.00    -0.270 OA
ENDROOT
BRANCH   7   9
ATOM      9  C   UNL     1       0.672  -5.832  -4.394  0.00  0.00    +0.047 A 
ATOM     10  C   UNL     1       0.577  -5.188  -5.629  0.00  0.00    +0.083 A 
ATOM     11  C   UNL     1       1.419  -5.571  -6.665  0.00  0.00    +0.252 A 
ATOM     12  N   UNL     1       2.325  -6.558  -6.484  0.00  0.00    -0.290 N 
ATOM     13  C   UNL     1       2.434  -7.196  -5.297  0.00  0.00    +0.252 A 
ATOM     14  C   UNL     1       1.619  -6.844  -4.230  0.00  0.00    +0.083 A 
ATOM     15  O   UNL     1       3.340  -8.171  -5.147  0.00  0.00    -0.268 OA
ATOM     16  O   UNL     1       1.333  -4.957  -7.851  0.00  0.00    -0.268 OA
ATOM     17  H   UNL     1       2.905  -6.814  -7.218  0.00  0.00    +0.172 HD
ENDBRANCH   7   9
BRANCH   1  18
ATOM     18  C   UNL     1       0.949  -0.653  -0.941  0.00  0.00    -0.079 C 
BRANCH  18  20
ATOM     19  C   UNL     1       0.335   1.269   0.358  0.00  0.00    -0.100 C 
ATOM     20  N   UNL     1       0.264  -0.196   0.276  0.00  0.00    +0.377 N 
ATOM     21  H   UNL     1       0.711  -0.600   1.085  0.00  0.00    -0.086 HD
ATOM     22  H   UNL     1      -0.703  -0.485   0.246  0.00  0.00    -0.086 HD
ENDBRANCH  18  20
ENDBRANCH   1  18
TORSDOF 3
