REMARK  Name = ZINC28125189
REMARK  7 active torsions:
REMARK  status: ('A' for Active; 'I' for Inactive)
REMARK    1  A    between atoms: C_1  and  C_2
REMARK    2  A    between atoms: C_2  and  C_25
REMARK    3  A    between atoms: N_5  and  C_9
REMARK    4  A    between atoms: C_9  and  C_10
REMARK    5  A    between atoms: N_12  and  C_13
REMARK    6  A    between atoms: C_13  and  C_14
REMARK    7  A    between atoms: N_17  and  C_19
REMARK                            x       y       z     vdW  Elec       q    Type
REMARK                         _______ _______ _______ _____ _____    ______ ____
ROOT
ATOM      1  C   UNL     1       2.905   4.505   1.430  0.00  0.00    +0.047 C 
ATOM      2  C   UNL     1       2.448   4.209   0.001  0.00  0.00    +0.135 C 
ATOM      3  C   UNL     1       2.299   5.492  -0.792  0.00  0.00    +0.251 C 
ATOM      4  O   UNL     1       1.547   6.415  -0.558  0.00  0.00    -0.272 OA
ATOM      5  N   UNL     1       3.174   5.395  -1.812  0.00  0.00    -0.215 N 
ATOM      6  C   UNL     1       3.849   4.240  -1.774  0.00  0.00    +0.310 C 
ATOM      7  O   UNL     1       4.694   3.924  -2.588  0.00  0.00    -0.252 OA
ATOM      8  N   UNL     1       3.487   3.467  -0.733  0.00  0.00    -0.281 N 
ATOM      9  H   UNL     1       3.809   2.477  -0.380  0.00  0.00    +0.152 HD
ENDROOT
BRANCH   2  10
ATOM     10  C   UNL     1       1.153   3.438   0.010  0.00  0.00    -0.013 A 
ATOM     11  C   UNL     1      -0.053   4.113   0.025  0.00  0.00    +0.009 A 
ATOM     12  C   UNL     1      -1.242   3.408   0.032  0.00  0.00    +0.041 A 
ATOM     13  C   UNL     1      -1.226   2.024   0.019  0.00  0.00    +0.158 A 
ATOM     14  C   UNL     1      -0.016   1.347   0.009  0.00  0.00    +0.159 A 
ATOM     15  C   UNL     1       1.172   2.056   0.002  0.00  0.00    +0.047 A 
ATOM     16  F   UNL     1       0.002  -0.004   0.002  0.00  0.00    -0.202 F 
ATOM     17  F   UNL     1      -2.387   1.335   0.021  0.00  0.00    -0.202 F 
ENDBRANCH   2  10
BRANCH   5  18
ATOM     18  C   UNL     1       3.364   6.425  -2.836  0.00  0.00    +0.213 C 
BRANCH  18  19
ATOM     19  C   UNL     1       2.427   6.167  -3.988  0.00  0.00    +0.231 C 
ATOM     20  O   UNL     1       1.675   5.215  -3.956  0.00  0.00    -0.274 OA
ATOM     21  N   UNL     1       2.425   6.992  -5.053  0.00  0.00    -0.310 N 
ATOM     22  H   UNL     1       3.106   7.855  -5.081  0.00  0.00    +0.149 HD
BRANCH  21  23
ATOM     23  C   UNL     1       1.514   6.741  -6.173  0.00  0.00    +0.142 C 
BRANCH  23  24
ATOM     24  C   UNL     1       1.709   7.801  -7.226  0.00  0.00    +0.007 A 
ATOM     25  C   UNL     1       1.022   9.017  -7.306  0.00  0.00    +0.140 A 
ATOM     26  N   UNL     1       1.466   9.670  -8.350  0.00  0.00    -0.174 NA
ATOM     27  N   UNL     1       2.445   8.886  -8.974  0.00  0.00    -0.240 N 
ATOM     28  C   UNL     1       2.575   7.742  -8.264  0.00  0.00    +0.119 A 
BRANCH  27  29
ATOM     29  C   UNL     1       3.161   9.225 -10.130  0.00  0.00    +0.065 A 
ATOM     30  C   UNL     1       4.111   8.351 -10.641  0.00  0.00    +0.028 A 
ATOM     31  C   UNL     1       4.812   8.686 -11.784  0.00  0.00    +0.002 A 
ATOM     32  C   UNL     1       4.576   9.896 -12.411  0.00  0.00    +0.000 A 
ATOM     33  C   UNL     1       3.634  10.770 -11.902  0.00  0.00    +0.002 A 
ATOM     34  C   UNL     1       2.926  10.438 -10.763  0.00  0.00    +0.028 A 
ENDBRANCH  27  29
ENDBRANCH  23  24
ENDBRANCH  21  23
ENDBRANCH  18  19
ENDBRANCH   5  18
TORSDOF 6
