REMARK  Name = ZINC22178968
REMARK  12 active torsions:
REMARK  status: ('A' for Active; 'I' for Inactive)
REMARK    1  A    between atoms: C_1  and  C_2
REMARK    2  A    between atoms: C_6  and  C_9
REMARK    3  A    between atoms: C_7  and  N_8
REMARK    4  A    between atoms: C_9  and  O_11
REMARK    5  A    between atoms: O_11  and  C_12
REMARK    6  A    between atoms: C_12  and  C_13
REMARK    7  A    between atoms: N_15  and  C_16
REMARK    8  A    between atoms: C_17  and  C_23
REMARK    9  A    between atoms: C_18  and  C_22
REMARK   10  A    between atoms: C_19  and  C_21
REMARK   11  A    between atoms: C_23  and  O_25
REMARK   12  A    between atoms: O_25  and  C_26
REMARK                            x       y       z     vdW  Elec       q    Type
REMARK                         _______ _______ _______ _____ _____    ______ ____
ROOT
ATOM      1  C   UNL     1      -0.236  -6.739   2.865  0.00  0.00    +0.255 C 
ATOM      2  O   UNL     1      -0.314  -7.046   1.695  0.00  0.00    -0.272 OA
ATOM      3  N   UNL     1      -0.261  -7.694   3.816  0.00  0.00    -0.277 N 
ATOM      4  H   UNL     1      -0.199  -7.449   4.752  0.00  0.00    +0.155 HD
ENDROOT
BRANCH   3   5
ATOM      5  C   UNL     1      -0.376  -9.028   3.455  0.00  0.00    +0.086 A 
ATOM      6  C   UNL     1      -0.424 -10.137   4.289  0.00  0.00    +0.091 A 
ATOM      7  C   UNL     1      -0.548 -11.425   3.645  0.00  0.00    -0.025 A 
ATOM      8  C   UNL     1      -0.604 -11.405   2.301  0.00  0.00    -0.008 A 
ATOM      9  S   UNL     1      -0.497  -9.672   1.911  0.00  0.00    -0.078 S 
ATOM     10  C   UNL     1      -0.732 -12.570   1.353  0.00  0.00    +0.052 C 
ATOM     11  C   UNL     1      -0.611 -12.709   4.430  0.00  0.00    +0.045 C 
BRANCH   6  12
ATOM     12  C   UNL     1      -0.351 -10.008   5.746  0.00  0.00    +0.342 C 
ATOM     13  O   UNL     1      -1.371  -9.876   6.397  0.00  0.00    -0.245 OA
BRANCH  12  14
ATOM     14  O   UNL     1       0.846 -10.036   6.367  0.00  0.00    -0.464 OA
ATOM     15  C   UNL     1       0.842  -9.905   7.790  0.00  0.00    +0.280 C 
ENDBRANCH  12  14
ENDBRANCH   6  12
ENDBRANCH   3   5
BRANCH   1  16
ATOM     16  C   UNL     1      -0.111  -5.290   3.257  0.00  0.00    +0.328 C 
BRANCH  16  17
ATOM     17  O   UNL     1      -0.107  -4.477   2.082  0.00  0.00    -0.452 OA
BRANCH  17  18
ATOM     18  C   UNL     1      -0.000  -3.145   2.259  0.00  0.00    +0.341 C 
ATOM     19  O   UNL     1       0.086  -2.687   3.381  0.00  0.00    -0.245 OA
BRANCH  18  25
ATOM     20  C   UNL     1      -0.009   1.480   0.352  0.00  0.00    +0.045 C 
ATOM     21  C   UNL     1       0.006  -0.015   0.166  0.00  0.00    -0.029 A 
ATOM     22  C   UNL     1       0.031  -0.551  -1.105  0.00  0.00    +0.005 A 
ATOM     23  C   UNL     1       0.045  -1.925  -1.288  0.00  0.00    +0.001 A 
ATOM     24  C   UNL     1       0.035  -2.772  -0.202  0.00  0.00    +0.017 A 
ATOM     25  C   UNL     1       0.011  -2.245   1.093  0.00  0.00    +0.080 A 
ATOM     26  C   UNL     1       0.002  -0.853   1.274  0.00  0.00    +0.042 A 
BRANCH  26  27
ATOM     27  N   UNL     1      -0.016  -0.316   2.555  0.00  0.00    -0.357 N 
ATOM     28  H   UNL     1      -0.109   0.642   2.678  0.00  0.00    +0.142 HD
ATOM     29  H   UNL     1       0.063  -0.899   3.326  0.00  0.00    +0.142 HD
ENDBRANCH  26  27
ENDBRANCH  18  25
ENDBRANCH  17  18
ENDBRANCH  16  17
ENDBRANCH   1  16
TORSDOF 8
