REMARK  Name = ZINC39931073
REMARK  5 active torsions:
REMARK  status: ('A' for Active; 'I' for Inactive)
REMARK    1  A    between atoms: C_1  and  C_2
REMARK    2  A    between atoms: C_5  and  N_8
REMARK    3  A    between atoms: N_8  and  C_9
REMARK    4  A    between atoms: C_9  and  C_10
REMARK    5  A    between atoms: N_19  and  O_20
REMARK                            x       y       z     vdW  Elec       q    Type
REMARK                         _______ _______ _______ _____ _____    ______ ____
ROOT
ATOM      1  C   UNL     1       0.093  -6.409   0.956  0.00  0.00    +0.080 C 
ATOM      2  C   UNL     1       0.195  -7.204   2.266  0.00  0.00    +0.133 C 
ATOM      3  N   UNL     1      -1.016  -8.031   2.351  0.00  0.00    -0.345 N 
ATOM      4  C   UNL     1      -1.617  -8.949   3.166  0.00  0.00    +0.086 A 
ATOM      5  C   UNL     1      -2.786  -9.325   2.602  0.00  0.00    +0.020 A 
ATOM      6  C   UNL     1      -2.926  -8.624   1.399  0.00  0.00    +0.029 A 
ATOM      7  C   UNL     1      -1.817  -7.827   1.261  0.00  0.00    +0.067 A 
ATOM      8  C   UNL     1      -1.219  -6.844   0.342  0.00  0.00    +0.109 C 
ATOM      9  N   UNL     1      -1.720  -6.429  -0.780  0.00  0.00    -0.090 NA
ENDROOT
BRANCH   9  10
ATOM     10  O   UNL     1      -2.966  -6.931  -1.227  0.00  0.00    -0.409 OA
ATOM     11  H   UNL     1      -3.258  -6.563  -2.072  0.00  0.00    +0.328 HD
ENDBRANCH   9  10
BRANCH   1  12
ATOM     12  C   UNL     1       0.074  -4.907   1.244  0.00  0.00    +0.113 C 
BRANCH  12  13
ATOM     13  N   UNL     1       0.058  -4.167  -0.021  0.00  0.00    -0.343 N 
ATOM     14  H   UNL     1       0.060  -4.648  -0.864  0.00  0.00    +0.146 HD
BRANCH  13  19
ATOM     15  C   UNL     1      -0.018   1.503   0.010  0.00  0.00    +0.044 C 
ATOM     16  C   UNL     1       0.002  -0.004   0.002  0.00  0.00    -0.050 A 
ATOM     17  C   UNL     1       0.006  -0.687  -1.200  0.00  0.00    +0.005 A 
ATOM     18  C   UNL     1       0.024  -2.068  -1.212  0.00  0.00    +0.023 A 
ATOM     19  C   UNL     1       0.040  -2.771  -0.013  0.00  0.00    +0.027 A 
ATOM     20  C   UNL     1       0.036  -2.081   1.193  0.00  0.00    +0.023 A 
ATOM     21  C   UNL     1       0.023  -0.700   1.197  0.00  0.00    +0.005 A 
ENDBRANCH  13  19
ENDBRANCH  12  13
ENDBRANCH   1  12
TORSDOF 4
