REMARK  Name = ZINC14656546
REMARK  10 active torsions:
REMARK  status: ('A' for Active; 'I' for Inactive)
REMARK    1  A    between atoms: C_1  and  C_2
REMARK    2  A    between atoms: C_2  and  C_3
REMARK    3  A    between atoms: C_3  and  C_4
REMARK    4  A    between atoms: C_4  and  N_5
REMARK    5  A    between atoms: C_6  and  N_26
REMARK    6  A    between atoms: C_7  and  N_14
REMARK    7  A    between atoms: N_14  and  C_15
REMARK    8  A    between atoms: C_16  and  C_18
REMARK    9  A    between atoms: C_21  and  C_25
REMARK   10  A    between atoms: C_23  and  C_24
REMARK                            x       y       z     vdW  Elec       q    Type
REMARK                         _______ _______ _______ _____ _____    ______ ____
ROOT
ATOM      1  N   UNL     1      -2.554   4.231  -0.784  0.00  0.00    -0.280 N 
ATOM      2  C   UNL     1      -1.306   3.653  -0.743  0.00  0.00    +0.127 A 
ATOM      3  C   UNL     1      -1.175   2.368  -0.255  0.00  0.00    +0.140 A 
ATOM      4  C   UNL     1      -2.326   1.686   0.181  0.00  0.00    +0.277 A 
ATOM      5  O   UNL     1      -2.239   0.548   0.612  0.00  0.00    -0.266 OA
ATOM      6  N   UNL     1      -3.524   2.300   0.125  0.00  0.00    -0.273 N 
ATOM      7  H   UNL     1      -4.341   1.819   0.442  0.00  0.00    +0.173 HD
ATOM      8  C   UNL     1      -3.633   3.552  -0.354  0.00  0.00    +0.331 A 
ATOM      9  O   UNL     1      -4.727   4.080  -0.399  0.00  0.00    -0.246 OA
ENDROOT
BRANCH   3  10
ATOM     10  N   UNL     1       0.091   1.748  -0.201  0.00  0.00    -0.263 N 
ATOM     11  C   UNL     1       1.109   2.241   0.731  0.00  0.00    +0.139 C 
ATOM     12  C   UNL     1       0.366   0.706  -1.010  0.00  0.00    +0.251 C 
ATOM     13  O   UNL     1      -0.507   0.236  -1.714  0.00  0.00    -0.270 OA
BRANCH  12  14
ATOM     14  C   UNL     1       1.729   0.134  -1.042  0.00  0.00    +0.040 A 
ATOM     15  C   UNL     1       2.840   0.975  -1.125  0.00  0.00    +0.013 A 
ATOM     16  C   UNL     1       4.109   0.435  -1.155  0.00  0.00    +0.004 A 
ATOM     17  C   UNL     1       4.282  -0.937  -1.101  0.00  0.00    -0.050 A 
ATOM     18  C   UNL     1       3.185  -1.776  -1.017  0.00  0.00    +0.007 A 
ATOM     19  C   UNL     1       1.910  -1.248  -0.982  0.00  0.00    -0.038 A 
ATOM     20  C   UNL     1       0.717  -2.163  -0.885  0.00  0.00    +0.044 C 
ATOM     21  C   UNL     1       5.671  -1.520  -1.133  0.00  0.00    +0.044 C 
ENDBRANCH  12  14
ENDBRANCH   3  10
BRANCH   2  22
ATOM     22  N   UNL     1      -0.204   4.346  -1.182  0.00  0.00    -0.343 N 
ATOM     23  H   UNL     1       0.658   3.905  -1.232  0.00  0.00    +0.144 HD
ATOM     24  H   UNL     1      -0.288   5.277  -1.442  0.00  0.00    +0.144 HD
ENDBRANCH   2  22
BRANCH   1  25
ATOM     25  C   UNL     1      -2.709   5.593  -1.299  0.00  0.00    +0.128 C 
BRANCH  25  26
ATOM     26  C   UNL     1      -2.962   5.543  -2.807  0.00  0.00    +0.021 C 
BRANCH  26  28
ATOM     27  C   UNL     1      -3.377   6.916  -4.853  0.00  0.00    +0.004 C 
ATOM     28  C   UNL     1      -3.124   6.966  -3.345  0.00  0.00    -0.002 C 
ENDBRANCH  26  28
ENDBRANCH  25  26
ENDBRANCH   1  25
TORSDOF 6
