REMARK  Name = ZINC48703908
REMARK  6 active torsions:
REMARK  status: ('A' for Active; 'I' for Inactive)
REMARK    1  A    between atoms: C_1  and  C_2
REMARK    2  A    between atoms: C_3  and  N_11
REMARK    3  A    between atoms: C_7  and  N_8
REMARK    4  A    between atoms: C_12  and  C_14
REMARK    5  A    between atoms: N_16  and  C_17
REMARK    6  A    between atoms: C_17  and  C_18
REMARK                            x       y       z     vdW  Elec       q    Type
REMARK                         _______ _______ _______ _____ _____    ______ ____
ROOT
ATOM      1  C   UNL     1      -1.038   0.241  -4.858  0.00  0.00    +0.299 C 
ATOM      2  O   UNL     1      -1.069   1.454  -4.860  0.00  0.00    -0.265 OA
ATOM      3  N   UNL     1      -1.321  -0.442  -5.985  0.00  0.00    -0.304 N 
ATOM      4  H   UNL     1      -1.296  -1.412  -5.984  0.00  0.00    +0.149 HD
ENDROOT
BRANCH   1   6
ATOM      5  N   UNL     1      -0.405   0.187  -2.480  0.00  0.00    -0.277 N 
ATOM      6  C   UNL     1      -0.688  -0.495  -3.607  0.00  0.00    +0.303 C 
ATOM      7  O   UNL     1      -0.657  -1.709  -3.605  0.00  0.00    -0.265 OA
ATOM      8  H   UNL     1      -0.377   1.157  -2.494  0.00  0.00    +0.155 HD
BRANCH   5  11
ATOM      9  C   UNL     1      -1.254   1.372  -0.036  0.00  0.00    +0.048 C 
ATOM     10  C   UNL     1      -0.550   0.041  -0.074  0.00  0.00    +0.001 A 
ATOM     11  C   UNL     1      -0.152  -0.501  -1.290  0.00  0.00    +0.039 A 
ATOM     12  C   UNL     1       0.496  -1.729  -1.321  0.00  0.00    +0.024 A 
ATOM     13  C   UNL     1       0.744  -2.407  -0.144  0.00  0.00    +0.004 A 
ATOM     14  C   UNL     1       0.347  -1.865   1.065  0.00  0.00    +0.033 A 
ATOM     15  C   UNL     1      -0.294  -0.640   1.099  0.00  0.00    +0.131 A 
BRANCH  15  16
ATOM     16  N   UNL     1      -0.711  -0.061   2.396  0.00  0.00    +0.057 N 
ATOM     17  O   UNL     1      -0.807   1.138   2.520  0.00  0.00    -0.126 OA
ATOM     18  O   UNL     1      -0.957  -0.786   3.332  0.00  0.00    -0.126 OA
ENDBRANCH  15  16
ENDBRANCH   5  11
ENDBRANCH   1   6
BRANCH   3  19
ATOM     19  C   UNL     1      -1.664   0.280  -7.213  0.00  0.00    +0.152 C 
BRANCH  19  20
ATOM     20  C   UNL     1      -1.938  -0.723  -8.335  0.00  0.00    +0.228 C 
ATOM     21  C   UNL     1      -2.284   0.028  -9.627  0.00  0.00    +0.275 C 
ATOM     22  O   UNL     1      -2.520  -0.938 -10.658  0.00  0.00    -0.485 OA
ATOM     23  C   UNL     1      -1.614  -1.948 -10.767  0.00  0.00    +0.162 A 
ATOM     24  C   UNL     1      -1.566  -2.695 -11.935  0.00  0.00    +0.049 A 
ATOM     25  C   UNL     1      -0.654  -3.726 -12.060  0.00  0.00    +0.004 A 
ATOM     26  C   UNL     1       0.211  -4.016 -11.022  0.00  0.00    +0.004 A 
ATOM     27  C   UNL     1       0.170  -3.275  -9.856  0.00  0.00    +0.049 A 
ATOM     28  C   UNL     1      -0.742  -2.237  -9.725  0.00  0.00    +0.163 A 
ATOM     29  O   UNL     1      -0.766  -1.511  -8.574  0.00  0.00    -0.480 OA
ENDBRANCH  19  20
ENDBRANCH   3  19
TORSDOF 5
