REMARK  Name = ZINC42038823
REMARK  4 active torsions:
REMARK  status: ('A' for Active; 'I' for Inactive)
REMARK    1  A    between atoms: C_1  and  C_2
REMARK    2  A    between atoms: C_5  and  C_12
REMARK    3  A    between atoms: N_6  and  C_7
REMARK    4  A    between atoms: C_17  and  N_18
REMARK                            x       y       z     vdW  Elec       q    Type
REMARK                         _______ _______ _______ _____ _____    ______ ____
ROOT
ATOM      1  C   UNL     1       0.618   1.433  -0.066  0.00  0.00    +0.088 C 
ATOM      2  C   UNL     1       0.275  -0.034  -0.031  0.00  0.00    +0.131 A 
ATOM      3  N   UNL     1      -0.647  -0.629  -0.737  0.00  0.00    -0.134 NA
ATOM      4  N   UNL     1      -0.673  -1.884  -0.462  0.00  0.00    -0.129 NA
ATOM      5  C   UNL     1       0.240  -2.159   0.443  0.00  0.00    +0.166 A 
ATOM      6  N   UNL     1       0.876  -0.983   0.739  0.00  0.00    -0.308 N 
ENDROOT
BRANCH   5   7
ATOM      7  C   UNL     1       0.530  -3.486   1.026  0.00  0.00    +0.040 A 
ATOM      8  C   UNL     1       0.640  -3.636   2.408  0.00  0.00    +0.014 A 
ATOM      9  C   UNL     1       0.910  -4.877   2.947  0.00  0.00    +0.016 A 
ATOM     10  C   UNL     1       1.073  -5.977   2.120  0.00  0.00    +0.020 A 
ATOM     11  C   UNL     1       0.966  -5.842   0.749  0.00  0.00    +0.038 A 
ATOM     12  C   UNL     1       0.689  -4.602   0.192  0.00  0.00    +0.036 A 
ATOM     13 BR   UNL     1       1.443  -7.672   2.873  0.00  0.00    -0.050 Br
BRANCH  12  14
ATOM     14  N   UNL     1       0.576  -4.465  -1.190  0.00  0.00    -0.357 N 
ATOM     15  H   UNL     1       0.387  -3.596  -1.577  0.00  0.00    +0.142 HD
ATOM     16  H   UNL     1       0.687  -5.238  -1.765  0.00  0.00    +0.142 HD
ENDBRANCH  12  14
ENDBRANCH   5   7
BRANCH   6  17
ATOM     17  C   UNL     1       1.974  -0.787   1.689  0.00  0.00    +0.090 C 
ATOM     18  C   UNL     1       2.687   0.551   1.403  0.00  0.00    +0.025 C 
ATOM     19  C   UNL     1       4.182   0.249   1.674  0.00  0.00    +0.002 C 
ATOM     20  C   UNL     1       4.345  -1.190   1.126  0.00  0.00    +0.002 C 
ATOM     21  C   UNL     1       3.028  -1.894   1.513  0.00  0.00    +0.025 C 
ENDBRANCH   6  17
TORSDOF 3
