REMARK  Name = ZINC22064462
REMARK  8 active torsions:
REMARK  status: ('A' for Active; 'I' for Inactive)
REMARK    1  A    between atoms: C_2  and  C_4
REMARK    2  A    between atoms: C_2  and  N_19
REMARK    3  A    between atoms: C_4  and  C_6
REMARK    4  A    between atoms: C_4  and  O_18
REMARK    5  A    between atoms: N_19  and  C_20
REMARK    6  A    between atoms: C_20  and  C_23
REMARK    7  A    between atoms: C_23  and  C_25
REMARK    8  A    between atoms: C_23  and  O_37
REMARK                            x       y       z     vdW  Elec       q    Type
REMARK                         _______ _______ _______ _____ _____    ______ ____
ROOT
ATOM      1  N   UNL     1      -0.723   1.572  -1.182  0.00  0.00    +0.383 N 
ATOM      2  H   UNL     1      -1.755   1.192  -1.174  0.00  0.00    -0.086 HD
ATOM      3  H   UNL     1      -0.738   2.672  -1.176  0.00  0.00    -0.086 HD
ENDROOT
BRANCH   1   4
ATOM      4  C   UNL     1      -0.013   1.086   0.008  0.00  0.00    -0.047 C 
BRANCH   4   5
ATOM      5  C   UNL     1      -0.729   1.579   1.267  0.00  0.00    +0.138 C 
BRANCH   5   6
ATOM      6  C   UNL     1       0.079   1.179   2.503  0.00  0.00    +0.200 C 
ATOM      7  C   UNL     1      -0.621   1.694   3.767  0.00  0.00    +0.052 C 
ATOM      8  C   UNL     1       0.150   1.183   4.986  0.00  0.00    +0.042 C 
ATOM      9  C   UNL     1       1.623   1.442   4.800  0.00  0.00    -0.003 A 
ATOM     10  C   UNL     1       2.452   1.402   5.910  0.00  0.00    +0.045 A 
ATOM     11  C   UNL     1       3.810   1.626   5.775  0.00  0.00    +0.124 A 
ATOM     12  C   UNL     1       4.346   1.892   4.526  0.00  0.00    +0.042 A 
ATOM     13  C   UNL     1       3.523   1.934   3.419  0.00  0.00    +0.049 A 
ATOM     14  C   UNL     1       2.157   1.710   3.552  0.00  0.00    +0.124 A 
ATOM     15  O   UNL     1       1.380   1.764   2.438  0.00  0.00    -0.486 OA
ATOM     16  F   UNL     1       4.613   1.586   6.861  0.00  0.00    -0.205 F 
ENDBRANCH   5   6
BRANCH   5  17
ATOM     17  O   UNL     1      -2.030   0.991   1.336  0.00  0.00    -0.390 OA
ATOM     18  H   UNL     1      -2.696   1.230   2.178  0.00  0.00    +0.210 HD
ENDBRANCH   5  17
ENDBRANCH   4   5
ENDBRANCH   1   4
BRANCH   1  19
ATOM     19  C   UNL     1      -0.062   1.117  -2.413  0.00  0.00    -0.047 C 
BRANCH  19  20
ATOM     20  C   UNL     1      -0.829   1.643  -3.628  0.00  0.00    +0.138 C 
BRANCH  20  21
ATOM     21  C   UNL     1      -0.141   1.168  -4.909  0.00  0.00    +0.200 C 
ATOM     22  C   UNL     1      -0.899   1.703  -6.131  0.00  0.00    +0.052 C 
ATOM     23  C   UNL     1      -0.252   1.122  -7.390  0.00  0.00    +0.042 C 
ATOM     24  C   UNL     1       1.244   1.291  -7.317  0.00  0.00    -0.003 A 
ATOM     25  C   UNL     1       1.985   1.180  -8.483  0.00  0.00    +0.045 A 
ATOM     26  C   UNL     1       3.360   1.321  -8.452  0.00  0.00    +0.124 A 
ATOM     27  C   UNL     1       4.002   1.575  -7.251  0.00  0.00    +0.042 A 
ATOM     28  C   UNL     1       3.267   1.688  -6.088  0.00  0.00    +0.049 A 
ATOM     29  C   UNL     1       1.883   1.548  -6.117  0.00  0.00    +0.124 A 
ATOM     30  O   UNL     1       1.195   1.670  -4.952  0.00  0.00    -0.486 OA
ATOM     31  F   UNL     1       4.077   1.212  -9.591  0.00  0.00    -0.205 F 
ENDBRANCH  20  21
BRANCH  20  32
ATOM     32  O   UNL     1      -2.170   1.148  -3.596  0.00  0.00    -0.390 OA
ATOM     33  H   UNL     1      -2.876   1.421  -4.393  0.00  0.00    +0.210 HD
ENDBRANCH  20  32
ENDBRANCH  19  20
ENDBRANCH   1  19
TORSDOF 8
