REMARK  Name = ZINC20635585
REMARK  2 active torsions:
REMARK  status: ('A' for Active; 'I' for Inactive)
REMARK    1  A    between atoms: C_3  and  C_10
REMARK    2  A    between atoms: C_5  and  N_7
REMARK                            x       y       z     vdW  Elec       q    Type
REMARK                         _______ _______ _______ _____ _____    ______ ____
ROOT
ATOM      1  C   UNL     1       3.672   2.182  -0.022  0.00  0.00    +0.090 C 
ATOM      2  C   UNL     1       3.729   3.031  -1.256  0.00  0.00    +0.044 A 
ATOM      3  C   UNL     1       4.033   2.468  -2.493  0.00  0.00    +0.127 A 
ATOM      4  N   UNL     1       4.070   3.255  -3.566  0.00  0.00    -0.199 NA
ATOM      5  C   UNL     1       3.822   4.552  -3.466  0.00  0.00    +0.221 A 
ATOM      6  N   UNL     1       3.531   5.120  -2.305  0.00  0.00    -0.199 NA
ATOM      7  C   UNL     1       3.478   4.394  -1.192  0.00  0.00    +0.134 A 
ATOM      8  N   UNL     1       3.182   4.980   0.027  0.00  0.00    -0.302 N 
ATOM      9  C   UNL     1       3.504   4.349   1.197  0.00  0.00    +0.017 C 
ATOM     10  C   UNL     1       3.754   3.024   1.226  0.00  0.00    +0.024 C 
ATOM     11  C   UNL     1       4.101   2.381   2.427  0.00  0.00    +0.162 C 
ATOM     12  O   UNL     1       4.313   1.185   2.422  0.00  0.00    -0.292 OA
ATOM     13  C   UNL     1       4.217   3.144   3.718  0.00  0.00    +0.080 C 
ATOM     14  C   UNL     1       4.607   4.593   3.408  0.00  0.00    +0.014 C 
ATOM     15  C   UNL     1       3.567   5.179   2.457  0.00  0.00    +0.051 C 
ATOM     16  N   UNL     1       3.869   5.336  -4.606  0.00  0.00    -0.295 N 
ATOM     17  C   UNL     1       3.607   6.782  -4.541  0.00  0.00    +0.136 C 
ATOM     18  C   UNL     1       4.749   7.513  -5.256  0.00  0.00    +0.179 C 
ATOM     19  O   UNL     1       4.920   6.957  -6.562  0.00  0.00    -0.377 OA
ATOM     20  C   UNL     1       5.298   5.578  -6.565  0.00  0.00    +0.179 C 
ATOM     21  C   UNL     1       4.189   4.749  -5.917  0.00  0.00    +0.136 C 
ATOM     22  N   UNL     1       4.293   1.111  -2.604  0.00  0.00    -0.343 N 
ATOM     23  H   UNL     1       2.744   5.845   0.051  0.00  0.00    +0.153 HD
ATOM     24  H   UNL     1       4.265   0.545  -1.817  0.00  0.00    +0.144 HD
ATOM     25  H   UNL     1       4.505   0.727  -3.470  0.00  0.00    +0.144 HD
ENDROOT
BRANCH   1  28
ATOM     26  C   UNL     1      -0.017   1.378   0.010  0.00  0.00    +0.003 A 
ATOM     27  C   UNL     1       1.171   2.085   0.002  0.00  0.00    +0.005 A 
ATOM     28  C   UNL     1       2.377   1.411  -0.013  0.00  0.00    -0.033 A 
ATOM     29  C   UNL     1       2.396   0.028  -0.020  0.00  0.00    +0.037 A 
ATOM     30  C   UNL     1       1.209  -0.679  -0.012  0.00  0.00    +0.126 A 
ATOM     31  C   UNL     1       0.002  -0.004   0.002  0.00  0.00    +0.033 A 
BRANCH  30  32
ATOM     32  N   UNL     1       1.229  -2.159  -0.020  0.00  0.00    +0.056 N 
ATOM     33  O   UNL     1       2.284  -2.749  -0.035  0.00  0.00    -0.126 OA
ATOM     34  O   UNL     1       0.190  -2.778  -0.013  0.00  0.00    -0.126 OA
ENDBRANCH  30  32
ENDBRANCH   1  28
TORSDOF 2
