REMARK  Name = ZINC42192659
REMARK  3 active torsions:
REMARK  status: ('A' for Active; 'I' for Inactive)
REMARK    1  A    between atoms: C_6  and  N_7
REMARK    2  A    between atoms: C_9  and  S_11
REMARK    3  A    between atoms: S_11  and  C_14
REMARK                            x       y       z     vdW  Elec       q    Type
REMARK                         _______ _______ _______ _____ _____    ______ ____
ROOT
ATOM      1  C   UNL     1      -0.017   1.389   0.010  0.00  0.00    +0.025 A 
ATOM      2  C   UNL     1       1.151   2.098   0.002  0.00  0.00    +0.033 A 
ATOM      3  C   UNL     1       2.374   1.426  -0.013  0.00  0.00    +0.111 A 
ATOM      4  C   UNL     1       2.398   0.022  -0.021  0.00  0.00    +0.159 A 
ATOM      5  C   UNL     1       1.208  -0.687  -0.013  0.00  0.00    +0.071 A 
ATOM      6  C   UNL     1       0.002  -0.004   0.002  0.00  0.00    +0.028 A 
ATOM      7  O   UNL     1       3.702  -0.333  -0.035  0.00  0.00    -0.422 OA
ATOM      8  C   UNL     1       4.441   0.788  -0.037  0.00  0.00    +0.348 A 
ATOM      9  N   UNL     1       3.673   1.835  -0.024  0.00  0.00    -0.193 NA
ENDROOT
BRANCH   6  10
ATOM     10  N   UNL     1      -1.201  -0.716   0.010  0.00  0.00    -0.358 N 
ATOM     11  H   UNL     1      -2.046  -0.240   0.021  0.00  0.00    +0.142 HD
ATOM     12  H   UNL     1      -1.190  -1.686   0.005  0.00  0.00    +0.142 HD
ENDBRANCH   6  10
BRANCH   8  13
ATOM     13  S   UNL     1       6.203   0.833  -0.054  0.00  0.00    +0.109 S 
ATOM     14  O   UNL     1       6.590  -0.389  -0.667  0.00  0.00    -0.159 OA
ATOM     15  O   UNL     1       6.528   2.079  -0.653  0.00  0.00    -0.159 OA
BRANCH  13  16
ATOM     16  C   UNL     1       6.686   0.835   1.695  0.00  0.00    +0.490 C 
ATOM     17  F   UNL     1       6.146   1.960   2.326  0.00  0.00    -0.183 F 
ATOM     18  F   UNL     1       6.203  -0.323   2.313  0.00  0.00    -0.183 F 
ENDBRANCH  13  16
ENDBRANCH   8  13
TORSDOF 3
