REMARK  Name = ZINC04978750
REMARK  7 active torsions:
REMARK  status: ('A' for Active; 'I' for Inactive)
REMARK    1  A    between atoms: C_1  and  C_2
REMARK    2  A    between atoms: N_7  and  C_8
REMARK    3  A    between atoms: C_8  and  C_10
REMARK    4  A    between atoms: C_8  and  C_19
REMARK    5  A    between atoms: C_15  and  N_16
REMARK    6  A    between atoms: C_25  and  C_30
REMARK    7  A    between atoms: C_28  and  O_29
REMARK                            x       y       z     vdW  Elec       q    Type
REMARK                         _______ _______ _______ _____ _____    ______ ____
ROOT
ATOM      1  C   UNL     1      -1.351   1.967  -0.050  0.00  0.00    +0.138 C 
ENDROOT
BRANCH   1   2
ATOM      2  C   UNL     1      -1.901   2.297   1.314  0.00  0.00    +0.021 A 
ATOM      3  C   UNL     1      -1.384   1.655   2.436  0.00  0.00    +0.010 A 
ATOM      4  C   UNL     1      -1.856   1.934   3.682  0.00  0.00    +0.010 A 
ATOM      5  C   UNL     1      -2.886   2.876   3.842  0.00  0.00    +0.004 A 
ATOM      6  C   UNL     1      -3.404   3.187   5.114  0.00  0.00    +0.012 A 
ATOM      7  C   UNL     1      -4.405   4.112   5.193  0.00  0.00    +0.023 A 
ATOM      8  C   UNL     1      -4.886   4.718   4.033  0.00  0.00    +0.039 A 
ATOM      9  N   UNL     1      -4.401   4.424   2.851  0.00  0.00    -0.248 NA
ATOM     10  C   UNL     1      -3.421   3.529   2.704  0.00  0.00    +0.113 A 
ATOM     11  C   UNL     1      -2.903   3.218   1.429  0.00  0.00    +0.148 A 
ATOM     12  C   UNL     1      -5.991   5.736   4.141  0.00  0.00    +0.065 C 
BRANCH  11  13
ATOM     13  O   UNL     1      -3.399   3.831   0.323  0.00  0.00    -0.504 OA
ATOM     14  H   UNL     1      -4.189   3.408  -0.040  0.00  0.00    +0.292 HD
ENDBRANCH  11  13
ENDBRANCH   1   2
BRANCH   1  21
ATOM     15  C   UNL     1      -0.257   2.446  -5.033  0.00  0.00    +0.044 C 
ATOM     16  C   UNL     1      -1.269   1.667  -4.234  0.00  0.00    -0.046 A 
ATOM     17  C   UNL     1      -2.188   0.839  -4.866  0.00  0.00    +0.021 A 
ATOM     18  C   UNL     1      -3.102   0.139  -4.105  0.00  0.00    +0.084 A 
ATOM     19  C   UNL     1      -2.253   1.024  -2.151  0.00  0.00    +0.097 A 
ATOM     20  C   UNL     1      -1.304   1.759  -2.854  0.00  0.00    +0.045 A 
ATOM     21  N   UNL     1      -2.299   1.108  -0.764  0.00  0.00    -0.319 N 
ATOM     22  H   UNL     1      -2.959   0.597  -0.269  0.00  0.00    +0.148 HD
ATOM     23  N   UNL     1      -3.161   0.200  -2.748  0.00  0.00    -0.350 N 
ATOM     24  H   UNL     1      -3.847  -0.339  -2.207  0.00  0.00    +0.166 HD
ENDBRANCH   1  21
BRANCH   1  25
ATOM     25  C   UNL     1      -0.035   1.247   0.100  0.00  0.00    +0.007 A 
ATOM     26  C   UNL     1       0.013  -0.132   0.007  0.00  0.00    +0.008 A 
ATOM     27  C   UNL     1       1.220  -0.791   0.138  0.00  0.00    +0.000 A 
ATOM     28  C   UNL     1       2.380  -0.072   0.363  0.00  0.00    +0.002 A 
ATOM     29  C   UNL     1       2.331   1.306   0.457  0.00  0.00    +0.033 A 
ATOM     30  C   UNL     1       1.123   1.965   0.326  0.00  0.00    +0.131 A 
BRANCH  30  31
ATOM     31  N   UNL     1       1.072   3.441   0.426  0.00  0.00    +0.057 N 
ATOM     32  O   UNL     1       2.104   4.082   0.516  0.00  0.00    -0.126 OA
ATOM     33  O   UNL     1      -0.003   4.015   0.418  0.00  0.00    -0.126 OA
ENDBRANCH  30  31
ENDBRANCH   1  25
TORSDOF 5
