REMARK  Name = ZINC49094930
REMARK  8 active torsions:
REMARK  status: ('A' for Active; 'I' for Inactive)
REMARK    1  A    between atoms: C_1  and  C_2
REMARK    2  A    between atoms: C_2  and  C_3
REMARK    3  A    between atoms: C_3  and  C_5
REMARK    4  A    between atoms: C_3  and  C_6
REMARK    5  A    between atoms: C_6  and  C_8
REMARK    6  A    between atoms: C_6  and  N_9
REMARK    7  A    between atoms: C_10  and  C_14
REMARK    8  A    between atoms: C_16  and  N_21
REMARK                            x       y       z     vdW  Elec       q    Type
REMARK                         _______ _______ _______ _____ _____    ______ ____
ROOT
ATOM      1  N   UNL     1      -0.819  -2.324  -1.288  0.00  0.00    -0.222 N 
ATOM      2  C   UNL     1      -1.415  -3.288  -0.542  0.00  0.00    +0.185 A 
ATOM      3  N   UNL     1      -2.623  -3.465  -1.033  0.00  0.00    -0.108 NA
ATOM      4  N   UNL     1      -2.822  -2.682  -2.031  0.00  0.00    -0.023 NA
ATOM      5  N   UNL     1      -1.780  -1.954  -2.245  0.00  0.00    -0.043 NA
ENDROOT
BRANCH   2   6
ATOM      6  C   UNL     1      -0.818  -4.004   0.608  0.00  0.00    +0.058 A 
ATOM      7  C   UNL     1       0.468  -4.533   0.511  0.00  0.00    +0.037 A 
ATOM      8  C   UNL     1       1.021  -5.202   1.592  0.00  0.00    +0.025 A 
ATOM      9  C   UNL     1       0.293  -5.345   2.768  0.00  0.00    +0.025 A 
ATOM     10  C   UNL     1      -0.982  -4.822   2.865  0.00  0.00    +0.041 A 
ATOM     11  C   UNL     1      -1.540  -4.147   1.795  0.00  0.00    +0.134 A 
ATOM     12  F   UNL     1      -2.785  -3.632   1.895  0.00  0.00    -0.205 F 
BRANCH   8  13
ATOM     13  N   UNL     1       2.311  -5.734   1.499  0.00  0.00    -0.358 N 
ATOM     14  H   UNL     1       2.818  -5.634   0.679  0.00  0.00    +0.142 HD
ATOM     15  H   UNL     1       2.697  -6.202   2.255  0.00  0.00    +0.142 HD
ENDBRANCH   8  13
ENDBRANCH   2   6
BRANCH   1  16
ATOM     16  C   UNL     1       0.532  -1.781  -1.127  0.00  0.00    +0.111 C 
ATOM     17  C   UNL     1       1.375  -2.140  -2.352  0.00  0.00    +0.033 C 
BRANCH  16  18
ATOM     18  C   UNL     1       0.457  -0.260  -0.987  0.00  0.00    +0.010 C 
ATOM     19  C   UNL     1       1.868   0.307  -0.819  0.00  0.00    +0.009 C 
BRANCH  18  21
ATOM     20  C   UNL     1      -0.566   1.617   0.307  0.00  0.00    +0.004 C 
ATOM     21  C   UNL     1      -0.387   0.099   0.238  0.00  0.00    +0.002 C 
ENDBRANCH  18  21
ENDBRANCH  16  18
ENDBRANCH   1  16
TORSDOF 5
