REMARK  Name = ZINC01368024
REMARK  3 active torsions:
REMARK  status: ('A' for Active; 'I' for Inactive)
REMARK    1  A    between atoms: C_11  and  C_13
REMARK    2  A    between atoms: C_13  and  S_14
REMARK    3  A    between atoms: S_14  and  C_15
REMARK                            x       y       z     vdW  Elec       q    Type
REMARK                         _______ _______ _______ _____ _____    ______ ____
ROOT
ATOM      1  C   UNL     1      -0.336   8.005  -2.429  0.00  0.00    +0.170 A 
ATOM      2  N   UNL     1       0.131   9.082  -3.125  0.00  0.00    -0.301 N 
ATOM      3  H   UNL     1       0.757   8.936  -3.891  0.00  0.00    +0.171 HD
ATOM      4  C   UNL     1      -0.236  10.335  -2.802  0.00  0.00    +0.261 A 
ATOM      5  O   UNL     1       0.190  11.287  -3.434  0.00  0.00    -0.267 OA
ATOM      6  C   UNL     1      -1.133  10.536  -1.705  0.00  0.00    +0.075 A 
ATOM      7  C   UNL     1      -1.660  11.799  -1.184  0.00  0.00    -0.023 A 
ATOM      8  C   UNL     1      -2.499  11.724  -0.132  0.00  0.00    -0.004 A 
ATOM      9  S   UNL     1      -2.638   9.993   0.225  0.00  0.00    -0.073 S 
ATOM     10  C   UNL     1      -1.564   9.373  -1.046  0.00  0.00    +0.117 A 
ATOM     11  N   UNL     1      -1.168   8.162  -1.418  0.00  0.00    -0.216 NA
ATOM     12  C   UNL     1      -3.167  12.861   0.580  0.00  0.00    +0.043 C 
ATOM     13  C   UNL     1      -2.468  14.166   0.171  0.00  0.00    +0.005 C 
ATOM     14  C   UNL     1      -2.322  14.188  -1.353  0.00  0.00    +0.005 C 
ATOM     15  C   UNL     1      -1.289  13.149  -1.791  0.00  0.00    +0.037 C 
ENDROOT
BRANCH   1  16
ATOM     16  S   UNL     1       0.174   6.383  -2.890  0.00  0.00    -0.078 S 
BRANCH  16  17
ATOM     17  C   UNL     1      -0.729   5.408  -1.662  0.00  0.00    +0.173 C 
BRANCH  17  28
ATOM     18  C   UNL     1      -1.036   1.276   3.621  0.00  0.00    +0.000 A 
ATOM     19  C   UNL     1      -1.898   2.357   3.632  0.00  0.00    +0.000 A 
ATOM     20  C   UNL     1      -2.161   3.033   2.461  0.00  0.00    +0.005 A 
ATOM     21  C   UNL     1      -1.568   2.636   1.270  0.00  0.00    -0.027 A 
ATOM     22  C   UNL     1      -0.704   1.565   1.257  0.00  0.00    -0.041 A 
ATOM     23  C   UNL     1      -0.443   0.883   2.440  0.00  0.00    +0.004 A 
ATOM     24  C   UNL     1      -0.013   1.086   0.008  0.00  0.00    +0.054 C 
ATOM     25  C   UNL     1      -0.739   1.585  -1.240  0.00  0.00    +0.113 C 
ATOM     26  N   UNL     1      -1.003   3.023  -1.064  0.00  0.00    -0.296 N 
ATOM     27  C   UNL     1      -1.908   3.413   0.022  0.00  0.00    +0.143 C 
ATOM     28  C   UNL     1      -0.436   3.944  -1.869  0.00  0.00    +0.226 C 
ATOM     29  O   UNL     1       0.309   3.595  -2.760  0.00  0.00    -0.275 OA
ENDBRANCH  17  28
ENDBRANCH  16  17
ENDBRANCH   1  16
TORSDOF 3
