REMARK  Name = ZINC05007058
REMARK  9 active torsions:
REMARK  status: ('A' for Active; 'I' for Inactive)
REMARK    1  A    between atoms: C_1  and  C_2
REMARK    2  A    between atoms: C_2  and  O_3
REMARK    3  A    between atoms: O_3  and  C_4
REMARK    4  A    between atoms: C_4  and  C_6
REMARK    5  A    between atoms: C_7  and  C_19
REMARK    6  A    between atoms: C_12  and  C_14
REMARK    7  A    between atoms: C_19  and  N_46
REMARK    8  A    between atoms: C_20  and  C_21
REMARK    9  A    between atoms: C_20  and  N_46
REMARK                            x       y       z     vdW  Elec       q    Type
REMARK                         _______ _______ _______ _____ _____    ______ ____
ROOT
ATOM      1  C   UNL     1      -0.265   2.596  -4.379  0.00  0.00    +0.077 C 
ATOM      2  C   UNL     1      -0.765   1.550  -3.687  0.00  0.00    +0.007 C 
ATOM      3  N   UNL     1      -2.000   1.043  -3.972  0.00  0.00    -0.274 N 
ATOM      4  C   UNL     1      -2.795   1.522  -4.937  0.00  0.00    +0.304 C 
ATOM      5  O   UNL     1      -3.880   1.003  -5.116  0.00  0.00    -0.252 OA
ATOM      6  N   UNL     1      -2.432   2.559  -5.716  0.00  0.00    -0.288 N 
ATOM      7  C   UNL     1      -1.115   3.179  -5.490  0.00  0.00    +0.150 C 
ATOM      8  H   UNL     1      -2.320   0.294  -3.445  0.00  0.00    +0.156 HD
ATOM      9  H   UNL     1      -3.023   2.890  -6.411  0.00  0.00    +0.151 HD
ENDROOT
BRANCH   7  10
ATOM     10  C   UNL     1      -0.333   3.091  -6.775  0.00  0.00    +0.015 A 
ATOM     11  C   UNL     1       0.479   4.015  -7.344  0.00  0.00    +0.013 A 
ATOM     12  C   UNL     1       1.104   3.713  -8.539  0.00  0.00    +0.008 A 
ATOM     13  C   UNL     1       0.878   2.505  -9.112  0.00  0.00    +0.045 A 
ATOM     14  S   UNL     1      -0.242   1.747  -7.946  0.00  0.00    -0.099 S 
ENDBRANCH   7  10
BRANCH   1  15
ATOM     15  C   UNL     1       1.013   3.127  -4.082  0.00  0.00    +0.339 C 
ATOM     16  O   UNL     1       1.110   4.147  -3.426  0.00  0.00    -0.245 OA
BRANCH  15  17
ATOM     17  O   UNL     1       2.123   2.501  -4.524  0.00  0.00    -0.462 OA
BRANCH  17  19
ATOM     18  C   UNL     1       4.514   2.248  -4.771  0.00  0.00    +0.048 C 
ATOM     19  C   UNL     1       3.379   3.092  -4.186  0.00  0.00    +0.229 C 
ENDBRANCH  17  19
ENDBRANCH  15  17
ENDBRANCH   1  15
BRANCH   2  20
ATOM     20  C   UNL     1       0.051   0.937  -2.578  0.00  0.00    -0.030 C 
BRANCH  20  21
ATOM     21  N   UNL     1      -0.644   1.148  -1.294  0.00  0.00    +0.385 N 
ATOM     22  H   UNL     1      -1.569   0.704  -1.332  0.00  0.00    -0.085 HD
ATOM     23  H   UNL     1      -0.754   2.155  -1.129  0.00  0.00    -0.085 HD
BRANCH  21  24
ATOM     24  C   UNL     1       0.134   0.556  -0.188  0.00  0.00    -0.045 C 
BRANCH  24  25
ATOM     25  C   UNL     1      -0.599   0.786   1.109  0.00  0.00    -0.046 A 
ATOM     26  C   UNL     1      -0.207   1.810   1.952  0.00  0.00    +0.003 A 
ATOM     27  C   UNL     1      -0.881   2.023   3.139  0.00  0.00    +0.000 A 
ATOM     28  C   UNL     1      -1.942   1.208   3.489  0.00  0.00    +0.001 A 
ATOM     29  C   UNL     1      -2.331   0.182   2.649  0.00  0.00    +0.020 A 
ATOM     30  C   UNL     1      -1.659  -0.030   1.458  0.00  0.00    +0.042 A 
ATOM     31 CL   UNL     1      -2.147  -1.319   0.403  0.00  0.00    -0.083 Cl
ENDBRANCH  24  25
ENDBRANCH  21  24
ENDBRANCH  20  21
ENDBRANCH   2  20
TORSDOF 8
