REMARK  Name = ZINC39673826
REMARK  10 active torsions:
REMARK  status: ('A' for Active; 'I' for Inactive)
REMARK    1  A    between atoms: C_1  and  C_2
REMARK    2  A    between atoms: C_2  and  C_3
REMARK    3  A    between atoms: C_3  and  C_4
REMARK    4  A    between atoms: C_4  and  C_6
REMARK    5  A    between atoms: C_4  and  N_7
REMARK    6  A    between atoms: C_8  and  C_10
REMARK    7  A    between atoms: C_21  and  C_23
REMARK    8  A    between atoms: C_23  and  O_24
REMARK    9  A    between atoms: O_24  and  C_25
REMARK   10  A    between atoms: C_35  and  C_36
REMARK                            x       y       z     vdW  Elec       q    Type
REMARK                         _______ _______ _______ _____ _____    ______ ____
ROOT
ATOM      1  C   UNL     1      -2.325  -4.294   1.028  0.00  0.00    +0.100 C 
ATOM      2  C   UNL     1      -2.662  -4.557   2.513  0.00  0.00    +0.121 C 
ATOM      3  N   UNL     1      -3.490  -5.785   2.497  0.00  0.00    -0.297 N 
ATOM      4  C   UNL     1      -2.858  -6.644   1.467  0.00  0.00    +0.115 C 
ATOM      5  C   UNL     1      -2.454  -5.666   0.345  0.00  0.00    -0.004 C 
ATOM      6  C   UNL     1      -3.536  -5.621  -0.730  0.00  0.00    -0.010 C 
ATOM      7  C   UNL     1      -3.607  -6.980  -1.433  0.00  0.00    -0.082 C 
ATOM      8  N   UNL     1      -2.304  -7.290  -2.034  0.00  0.00    +0.379 N 
ATOM      9  C   UNL     1      -1.287  -7.423  -0.984  0.00  0.00    -0.082 C 
ATOM     10  C   UNL     1      -1.118  -6.083  -0.262  0.00  0.00    -0.010 C 
ATOM     11  C   UNL     1      -4.574  -6.060   3.250  0.00  0.00    +0.253 C 
ATOM     12  O   UNL     1      -5.150  -7.120   3.120  0.00  0.00    -0.272 OA
ATOM     13  H   UNL     1      -2.370  -8.156  -2.548  0.00  0.00    -0.086 HD
ATOM     14  H   UNL     1      -2.040  -6.548  -2.664  0.00  0.00    -0.086 HD
ENDROOT
BRANCH   1  16
ATOM     15  N   UNL     1      -0.598  -2.952  -0.127  0.00  0.00    -0.312 N 
ATOM     16  C   UNL     1      -0.918  -3.772   0.893  0.00  0.00    +0.218 C 
ATOM     17  O   UNL     1      -0.073  -4.090   1.704  0.00  0.00    -0.275 OA
ATOM     18  H   UNL     1      -1.274  -2.697  -0.775  0.00  0.00    +0.149 HD
BRANCH  15  19
ATOM     19  C   UNL     1       0.770  -2.444  -0.258  0.00  0.00    +0.070 C 
ATOM     20  C   UNL     1       0.934  -1.193   0.607  0.00  0.00    +0.028 C 
BRANCH  19  21
ATOM     21  C   UNL     1       1.046  -2.093  -1.721  0.00  0.00    +0.022 C 
BRANCH  21  23
ATOM     22  C   UNL     1       1.280  -3.015  -4.031  0.00  0.00    +0.004 C 
ATOM     23  C   UNL     1       1.004  -3.366  -2.568  0.00  0.00    -0.002 C 
ENDBRANCH  21  23
ENDBRANCH  19  21
ENDBRANCH  15  19
ENDBRANCH   1  16
BRANCH  11  24
ATOM     24  C   UNL     1      -5.071  -5.051   4.253  0.00  0.00    +0.324 C 
BRANCH  24  25
ATOM     25  O   UNL     1      -6.222  -5.571   4.921  0.00  0.00    -0.479 OA
BRANCH  25  26
ATOM     26  C   UNL     1      -6.798  -4.779   5.865  0.00  0.00    +0.164 A 
ATOM     27  C   UNL     1      -6.270  -3.530   6.137  0.00  0.00    +0.049 A 
ATOM     28  C   UNL     1      -6.848  -2.713   7.098  0.00  0.00    +0.004 A 
ATOM     29  C   UNL     1      -7.957  -3.134   7.795  0.00  0.00    +0.012 A 
ATOM     30  C   UNL     1      -8.504  -4.395   7.532  0.00  0.00    +0.024 A 
ATOM     31  C   UNL     1      -7.924  -5.222   6.556  0.00  0.00    +0.181 A 
ATOM     32  O   UNL     1      -8.456  -6.437   6.300  0.00  0.00    -0.418 OA
ATOM     33  C   UNL     1      -9.540  -6.879   6.956  0.00  0.00    +0.338 A 
ATOM     34  O   UNL     1      -9.985  -7.981   6.693  0.00  0.00    -0.245 OA
ATOM     35  C   UNL     1     -10.178  -6.098   7.945  0.00  0.00    +0.096 A 
ATOM     36  C   UNL     1      -9.685  -4.872   8.258  0.00  0.00    -0.033 A 
ATOM     37  C   UNL     1     -10.345  -4.018   9.309  0.00  0.00    +0.045 C 
ENDBRANCH  25  26
ENDBRANCH  24  25
ENDBRANCH  11  24
TORSDOF 7
