REMARK  Name = ZINC46266078
REMARK  6 active torsions:
REMARK  status: ('A' for Active; 'I' for Inactive)
REMARK    1  A    between atoms: C_1  and  C_2
REMARK    2  A    between atoms: C_2  and  C_23
REMARK    3  A    between atoms: N_5  and  C_9
REMARK    4  A    between atoms: C_9  and  C_10
REMARK    5  A    between atoms: N_12  and  C_13
REMARK    6  A    between atoms: C_17  and  C_19
REMARK                            x       y       z     vdW  Elec       q    Type
REMARK                         _______ _______ _______ _____ _____    ______ ____
ROOT
ATOM      1  C   UNL     1       2.874  -1.899  -1.400  0.00  0.00    +0.214 C 
ENDROOT
BRANCH   1   6
ATOM      2  C   UNL     1      -0.027   1.522  -0.002  0.00  0.00    +0.047 C 
ATOM      3  C   UNL     1      -0.000  -0.008  -0.001  0.00  0.00    +0.135 C 
ATOM      4  C   UNL     1       0.813  -0.528  -1.170  0.00  0.00    +0.251 C 
ATOM      5  O   UNL     1       0.591  -0.358  -2.349  0.00  0.00    -0.272 OA
ATOM      6  N   UNL     1       1.834  -1.219  -0.625  0.00  0.00    -0.215 N 
ATOM      7  C   UNL     1       1.779  -1.207   0.712  0.00  0.00    +0.310 C 
ATOM      8  O   UNL     1       2.591  -1.762   1.426  0.00  0.00    -0.252 OA
ATOM      9  N   UNL     1       0.725  -0.513   1.177  0.00  0.00    -0.281 N 
ATOM     10  H   UNL     1       0.489  -0.373   2.108  0.00  0.00    +0.152 HD
BRANCH   3  11
ATOM     11  C   UNL     1      -1.402  -0.561  -0.038  0.00  0.00    -0.016 A 
ATOM     12  C   UNL     1      -2.005  -0.834  -1.251  0.00  0.00    +0.006 A 
ATOM     13  C   UNL     1      -3.291  -1.341  -1.285  0.00  0.00    +0.000 A 
ATOM     14  C   UNL     1      -3.973  -1.576  -0.106  0.00  0.00    +0.000 A 
ATOM     15  C   UNL     1      -3.369  -1.304   1.107  0.00  0.00    +0.000 A 
ATOM     16  C   UNL     1      -2.082  -0.801   1.141  0.00  0.00    +0.006 A 
ENDBRANCH   3  11
ENDBRANCH   1   6
BRANCH   1  17
ATOM     17  C   UNL     1       4.019  -0.950  -1.645  0.00  0.00    +0.235 C 
ATOM     18  O   UNL     1       3.970   0.183  -1.214  0.00  0.00    -0.274 OA
ATOM     19  N   UNL     1       5.097  -1.360  -2.343  0.00  0.00    -0.284 N 
ATOM     20  H   UNL     1       5.166  -2.284  -2.630  0.00  0.00    +0.155 HD
BRANCH  19  21
ATOM     21  C   UNL     1       6.117  -0.452  -2.654  0.00  0.00    +0.034 A 
ATOM     22  C   UNL     1       6.453   0.551  -1.751  0.00  0.00    +0.026 A 
ATOM     23  C   UNL     1       7.457   1.450  -2.051  0.00  0.00    +0.041 A 
ATOM     24  C   UNL     1       8.136   1.359  -3.253  0.00  0.00    +0.136 A 
ATOM     25  C   UNL     1       7.805   0.354  -4.167  0.00  0.00    +0.073 A 
ATOM     26  C   UNL     1       6.793  -0.557  -3.858  0.00  0.00    +0.039 A 
ATOM     27  F   UNL     1       9.118   2.240  -3.544  0.00  0.00    -0.205 F 
BRANCH  25  28
ATOM     28  C   UNL     1       8.526   0.253  -5.452  0.00  0.00    +0.244 C 
ATOM     29  O   UNL     1       9.410   1.044  -5.717  0.00  0.00    -0.270 OA
ATOM     30  N   UNL     1       8.205  -0.717  -6.331  0.00  0.00    -0.325 N 
ATOM     31  H   UNL     1       7.500  -1.349  -6.119  0.00  0.00    +0.145 HD
ATOM     32  H   UNL     1       8.678  -0.784  -7.174  0.00  0.00    +0.145 HD
ENDBRANCH  25  28
ENDBRANCH  19  21
ENDBRANCH   1  17
TORSDOF 5
