REMARK  Name = ZINC66740246
REMARK  3 active torsions:
REMARK  status: ('A' for Active; 'I' for Inactive)
REMARK    1  A    between atoms: C_1  and  C_2
REMARK    2  A    between atoms: C_11  and  C_14
REMARK    3  A    between atoms: C_17  and  C_19
REMARK                            x       y       z     vdW  Elec       q    Type
REMARK                         _______ _______ _______ _____ _____    ______ ____
ROOT
ATOM      1  C   UNL     1      -0.018   1.503   0.010  0.00  0.00    +0.067 C 
ATOM      2  C   UNL     1       0.002  -0.004   0.002  0.00  0.00    +0.055 A 
ATOM      3  C   UNL     1       0.008  -0.795  -1.075  0.00  0.00    +0.082 A 
ATOM      4  C   UNL     1       0.022  -2.138  -0.574  0.00  0.00    +0.168 A 
ATOM      5  N   UNL     1       0.032  -2.062   0.724  0.00  0.00    -0.167 NA
ATOM      6  N   UNL     1       0.024  -0.824   1.094  0.00  0.00    -0.279 N 
ATOM      7  H   UNL     1       0.030  -0.521   2.015  0.00  0.00    +0.189 HD
ATOM      8  C   UNL     1       0.015  -3.268  -1.523  0.00  0.00    +0.268 C 
ATOM      9  O   UNL     1      -0.148  -4.413  -1.149  0.00  0.00    -0.268 OA
ATOM     10  N   UNL     1       0.198  -2.968  -2.831  0.00  0.00    -0.285 N 
ATOM     11  C   UNL     1       0.567  -1.639  -3.303  0.00  0.00    +0.226 C 
ATOM     12  N   UNL     1       0.007  -0.571  -2.459  0.00  0.00    -0.317 N 
ATOM     13  H   UNL     1       0.077  -3.673  -3.486  0.00  0.00    +0.151 HD
ATOM     14  H   UNL     1      -0.344   0.248  -2.841  0.00  0.00    +0.148 HD
ENDROOT
BRANCH  11  15
ATOM     15  C   UNL     1       2.070  -1.522  -3.306  0.00  0.00    +0.144 A 
ATOM     16  C   UNL     1       2.936  -2.534  -3.502  0.00  0.00    +0.049 A 
ATOM     17  C   UNL     1       4.233  -1.988  -3.425  0.00  0.00    +0.050 A 
ATOM     18  C   UNL     1       4.085  -0.658  -3.183  0.00  0.00    +0.137 A 
ATOM     19  O   UNL     1       2.767  -0.389  -3.118  0.00  0.00    -0.456 OA
BRANCH  18  20
ATOM     20  C   UNL     1       5.179   0.322  -3.023  0.00  0.00    +0.037 A 
ATOM     21  C   UNL     1       6.237   0.056  -2.152  0.00  0.00    +0.013 A 
ATOM     22  C   UNL     1       7.256   0.974  -2.007  0.00  0.00    +0.002 A 
ATOM     23  C   UNL     1       7.232   2.158  -2.723  0.00  0.00    +0.021 A 
ATOM     24  C   UNL     1       6.187   2.430  -3.589  0.00  0.00    +0.060 A 
ATOM     25  C   UNL     1       5.162   1.516  -3.748  0.00  0.00    +0.070 A 
ATOM     26 CL   UNL     1       3.856   1.853  -4.839  0.00  0.00    -0.081 Cl
ATOM     27 CL   UNL     1       6.166   3.918  -4.483  0.00  0.00    -0.082 Cl
ENDBRANCH  18  20
ENDBRANCH  11  15
TORSDOF 2
