REMARK  Name = ZINC13079008
REMARK  11 active torsions:
REMARK  status: ('A' for Active; 'I' for Inactive)
REMARK    1  A    between atoms: C_1  and  C_2
REMARK    2  A    between atoms: C_4  and  C_28
REMARK    3  A    between atoms: C_6  and  S_9
REMARK    4  A    between atoms: C_7  and  C_8
REMARK    5  A    between atoms: S_9  and  N_12
REMARK    6  A    between atoms: N_12  and  N_13
REMARK    7  A    between atoms: C_14  and  C_16
REMARK    8  A    between atoms: C_16  and  C_18
REMARK    9  A    between atoms: C_16  and  O_19
REMARK   10  A    between atoms: O_19  and  C_20
REMARK   11  A    between atoms: C_23  and  C_26
REMARK                            x       y       z     vdW  Elec       q    Type
REMARK                         _______ _______ _______ _____ _____    ______ ____
ROOT
ATOM      1  N   UNL     1      -4.452  -0.033  -0.769  0.00  0.00    -0.108 NA
ATOM      2  H   UNL     1      -4.858  -0.877  -0.516  0.00  0.00    +0.172 HD
ENDROOT
BRANCH   1   3
ATOM      3  N   UNL     1      -3.073   0.156  -0.611  0.00  0.00    -0.229 N 
ATOM      4  C   UNL     1      -2.503  -0.018   0.599  0.00  0.00    +0.268 C 
ATOM      5  O   UNL     1      -3.184  -0.338   1.550  0.00  0.00    -0.270 OA
ATOM      6  H   UNL     1      -2.528   0.412  -1.371  0.00  0.00    +0.171 HD
BRANCH   4   7
ATOM      7  C   UNL     1      -1.019   0.185   0.769  0.00  0.00    +0.257 C 
ATOM      8  C   UNL     1      -0.673   1.653   0.512  0.00  0.00    +0.062 C 
BRANCH   7   9
ATOM      9  O   UNL     1      -0.640  -0.168   2.100  0.00  0.00    -0.480 OA
BRANCH   9  10
ATOM     10  C   UNL     1       0.652  -0.538   2.295  0.00  0.00    +0.122 A 
ATOM     11  C   UNL     1       1.554  -0.487   1.239  0.00  0.00    +0.047 A 
ATOM     12  C   UNL     1       2.867  -0.856   1.434  0.00  0.00    +0.022 A 
ATOM     13  C   UNL     1       3.288  -1.291   2.693  0.00  0.00    +0.052 A 
ATOM     14  C   UNL     1       2.377  -1.346   3.751  0.00  0.00    +0.022 A 
ATOM     15  C   UNL     1       1.067  -0.970   3.549  0.00  0.00    +0.047 A 
BRANCH  13  16
ATOM     16  C   UNL     1       4.651  -1.680   2.899  0.00  0.00    +0.099 C 
ATOM     17  N   UNL     1       5.732  -1.989   3.063  0.00  0.00    -0.191 NA
ENDBRANCH  13  16
ENDBRANCH   9  10
ENDBRANCH   7   9
ENDBRANCH   4   7
ENDBRANCH   1   3
BRANCH   1  18
ATOM     18  S   UNL     1      -5.389   1.184  -1.388  0.00  0.00    +0.074 S 
ATOM     19  O   UNL     1      -6.670   0.622  -1.639  0.00  0.00    -0.152 OA
ATOM     20  O   UNL     1      -5.204   2.310  -0.541  0.00  0.00    -0.152 OA
BRANCH  18  26
ATOM     21  C   UNL     1      -4.185   0.011  -6.337  0.00  0.00    +0.044 C 
ATOM     22  C   UNL     1      -4.182   1.024  -5.221  0.00  0.00    -0.045 A 
ATOM     23  C   UNL     1      -3.650   2.279  -5.432  0.00  0.00    +0.018 A 
ATOM     24  C   UNL     1      -3.647   3.216  -4.397  0.00  0.00    +0.065 A 
ATOM     25  C   UNL     1      -4.183   2.875  -3.154  0.00  0.00    +0.044 A 
ATOM     26  C   UNL     1      -4.712   1.616  -2.956  0.00  0.00    +0.111 A 
ATOM     27  C   UNL     1      -4.706   0.691  -3.985  0.00  0.00    -0.021 A 
ATOM     28  C   UNL     1      -5.279  -0.685  -3.759  0.00  0.00    +0.046 C 
BRANCH  24  29
ATOM     29  C   UNL     1      -3.079   4.562  -4.616  0.00  0.00    +0.387 C 
ATOM     30  O   UNL     1      -3.078   5.375  -3.714  0.00  0.00    -0.241 OA
ATOM     31  O   UNL     1      -2.563   4.888  -5.817  0.00  0.00    -0.241 OA
ENDBRANCH  24  29
ENDBRANCH  18  26
ENDBRANCH   1  18
TORSDOF 8
