REMARK  Name = ZINC20351391
REMARK  8 active torsions:
REMARK  status: ('A' for Active; 'I' for Inactive)
REMARK    1  A    between atoms: C_1  and  C_2
REMARK    2  A    between atoms: C_2  and  N_3
REMARK    3  A    between atoms: N_6  and  C_24
REMARK    4  A    between atoms: N_12  and  C_15
REMARK    5  A    between atoms: C_24  and  C_25
REMARK    6  A    between atoms: C_25  and  N_26
REMARK    7  A    between atoms: N_26  and  C_27
REMARK    8  A    between atoms: N_26  and  C_28
REMARK                            x       y       z     vdW  Elec       q    Type
REMARK                         _______ _______ _______ _____ _____    ______ ____
ROOT
ATOM      1  N   UNL     1      -2.035   1.645   3.129  0.00  0.00    -0.271 N 
ATOM      2  C   UNL     1      -1.486   1.189   1.986  0.00  0.00    +0.312 C 
ATOM      3  O   UNL     1      -1.907   0.229   1.371  0.00  0.00    -0.252 OA
ATOM      4  N   UNL     1      -0.425   1.911   1.605  0.00  0.00    -0.226 N 
ATOM      5  C   UNL     1      -0.171   2.915   2.470  0.00  0.00    +0.247 C 
ATOM      6  O   UNL     1       0.721   3.734   2.402  0.00  0.00    -0.273 OA
ATOM      7  C   UNL     1      -1.232   2.804   3.539  0.00  0.00    +0.112 C 
ATOM      8  C   UNL     1      -0.590   2.556   4.901  0.00  0.00    +0.017 C 
ATOM      9  C   UNL     1      -1.684   2.473   5.969  0.00  0.00    -0.076 C 
ATOM     10  N   UNL     1      -2.459   3.720   5.974  0.00  0.00    +0.382 N 
ATOM     11  C   UNL     1      -3.136   3.932   4.689  0.00  0.00    -0.076 C 
ATOM     12  C   UNL     1      -2.092   4.064   3.577  0.00  0.00    +0.017 C 
ATOM     13  H   UNL     1      -1.753   4.551   6.121  0.00  0.00    -0.081 HD
ENDROOT
BRANCH  10  14
ATOM     14  C   UNL     1      -3.419   3.739   7.085  0.00  0.00    -0.060 C 
ATOM     15  C   UNL     1      -4.027   5.147   7.262  0.00  0.00    +0.020 C 
ATOM     16  C   UNL     1      -4.214   5.313   8.755  0.00  0.00    -0.046 A 
ATOM     17  C   UNL     1      -4.989   6.213   9.467  0.00  0.00    +0.004 A 
ATOM     18  C   UNL     1      -5.003   6.178  10.848  0.00  0.00    +0.000 A 
ATOM     19  C   UNL     1      -4.242   5.240  11.521  0.00  0.00    +0.000 A 
ATOM     20  C   UNL     1      -3.469   4.342  10.813  0.00  0.00    +0.004 A 
ATOM     21  C   UNL     1      -3.453   4.376   9.428  0.00  0.00    -0.046 A 
ATOM     22  C   UNL     1      -2.703   3.516   8.434  0.00  0.00    +0.020 C 
ENDBRANCH  10  14
BRANCH   1  24
ATOM     23  C   UNL     1      -2.865  -0.298   4.360  0.00  0.00    +0.024 C 
ATOM     24  C   UNL     1      -3.201   1.095   3.824  0.00  0.00    +0.107 C 
ENDBRANCH   1  24
BRANCH   4  25
ATOM     25  C   UNL     1       0.365   1.641   0.402  0.00  0.00    +0.099 C 
BRANCH  25  26
ATOM     26  C   UNL     1      -0.223   2.415  -0.779  0.00  0.00    -0.060 C 
BRANCH  26  27
ATOM     27  N   UNL     1       0.569   2.144  -1.986  0.00  0.00    +0.377 N 
ATOM     28  C   UNL     1      -0.096   2.674  -3.183  0.00  0.00    -0.097 C 
ATOM     29  C   UNL     1       1.929   2.685  -1.856  0.00  0.00    -0.097 C 
ATOM     30  H   UNL     1       0.650   1.052  -2.100  0.00  0.00    -0.083 HD
ENDBRANCH  26  27
ENDBRANCH  25  26
ENDBRANCH   4  25
TORSDOF 5
