REMARK  Name = ZINC13361311
REMARK  6 active torsions:
REMARK  status: ('A' for Active; 'I' for Inactive)
REMARK    1  A    between atoms: C_1  and  O_2
REMARK    2  A    between atoms: O_2  and  C_3
REMARK    3  A    between atoms: C_5  and  C_13
REMARK    4  A    between atoms: C_8  and  O_9
REMARK    5  A    between atoms: O_9  and  C_10
REMARK    6  A    between atoms: C_10  and  C_11
REMARK                            x       y       z     vdW  Elec       q    Type
REMARK                         _______ _______ _______ _____ _____    ______ ____
ROOT
ATOM      1  C   UNL     1       0.207   6.050  -0.474  0.00  0.00    +0.007 C 
ATOM      2  C   UNL     1      -0.897   6.553  -1.373  0.00  0.00    +0.010 A 
ATOM      3  C   UNL     1      -1.003   7.851  -1.752  0.00  0.00    -0.022 A 
ATOM      4  C   UNL     1      -2.174   7.954  -2.593  0.00  0.00    +0.003 A 
ATOM      5  C   UNL     1      -2.772   9.026  -3.264  0.00  0.00    +0.010 A 
ATOM      6  C   UNL     1      -3.905   8.751  -3.988  0.00  0.00    +0.001 A 
ATOM      7  C   UNL     1      -4.442   7.476  -4.060  0.00  0.00    +0.002 A 
ATOM      8  C   UNL     1      -3.872   6.398  -3.407  0.00  0.00    +0.026 A 
ATOM      9  C   UNL     1      -2.720   6.646  -2.664  0.00  0.00    +0.047 A 
ATOM     10  N   UNL     1      -1.922   5.830  -1.914  0.00  0.00    -0.359 N 
ATOM     11  H   UNL     1      -2.059   4.878  -1.786  0.00  0.00    +0.166 HD
ATOM     12  C   UNL     1      -0.030   8.923  -1.330  0.00  0.00    +0.018 C 
ATOM     13  C   UNL     1       1.226   8.235  -0.779  0.00  0.00    -0.076 C 
ATOM     14  N   UNL     1       0.836   7.205   0.205  0.00  0.00    +0.387 N 
ATOM     15  H   UNL     1       1.671   6.886   0.710  0.00  0.00    -0.084 HD
ATOM     16  H   UNL     1       0.168   7.610   0.871  0.00  0.00    -0.084 HD
ENDROOT
BRANCH   1  19
ATOM     17  C   UNL     1      -0.787   2.893   1.346  0.00  0.00    +0.162 A 
ATOM     18  C   UNL     1      -0.259   3.751   0.395  0.00  0.00    +0.051 A 
ATOM     19  C   UNL     1      -0.368   5.119   0.562  0.00  0.00    -0.052 A 
ATOM     20  C   UNL     1      -1.003   5.634   1.677  0.00  0.00    +0.006 A 
ATOM     21  C   UNL     1      -1.532   4.784   2.629  0.00  0.00    +0.049 A 
ATOM     22  C   UNL     1      -1.432   3.411   2.465  0.00  0.00    +0.163 A 
BRANCH  17  24
ATOM     23  C   UNL     1      -0.013   1.086   0.008  0.00  0.00    +0.277 C 
ATOM     24  O   UNL     1      -0.682   1.547   1.184  0.00  0.00    -0.491 OA
ENDBRANCH  17  24
BRANCH  22  25
ATOM     25  O   UNL     1      -1.957   2.573   3.399  0.00  0.00    -0.477 OA
BRANCH  25  26
ATOM     26  C   UNL     1      -2.603   3.176   4.521  0.00  0.00    +0.354 C 
BRANCH  26  27
ATOM     27  C   UNL     1      -3.119   2.100   5.442  0.00  0.00    +0.393 C 
ATOM     28  O   UNL     1      -2.949   0.936   5.165  0.00  0.00    -0.243 OA
ATOM     29  O   UNL     1      -3.766   2.435   6.569  0.00  0.00    -0.243 OA
ENDBRANCH  26  27
ENDBRANCH  25  26
ENDBRANCH  22  25
ENDBRANCH   1  19
TORSDOF 5
