REMARK  Name = ZINC48326256
REMARK  6 active torsions:
REMARK  status: ('A' for Active; 'I' for Inactive)
REMARK    1  A    between atoms: C_4  and  C_7
REMARK    2  A    between atoms: C_7  and  N_8
REMARK    3  A    between atoms: N_16  and  C_20
REMARK    4  A    between atoms: C_20  and  N_21
REMARK    5  A    between atoms: N_24  and  S_27
REMARK    6  A    between atoms: S_27  and  C_30
REMARK                            x       y       z     vdW  Elec       q    Type
REMARK                         _______ _______ _______ _____ _____    ______ ____
ROOT
ATOM      1  N   UNL     1       4.153  -0.953   1.342  0.00  0.00    +0.384 N 
ATOM      2  C   UNL     1       4.425   0.329   2.003  0.00  0.00    -0.078 C 
ATOM      3  C   UNL     1       4.798   0.086   3.467  0.00  0.00    -0.016 C 
ATOM      4  C   UNL     1       6.055  -0.789   3.527  0.00  0.00    +0.031 C 
ATOM      5  C   UNL     1       5.803  -2.080   2.755  0.00  0.00    +0.098 C 
ATOM      6  C   UNL     1       5.372  -1.773   1.325  0.00  0.00    -0.043 C 
ATOM      7  C   UNL     1       7.041  -2.948   2.759  0.00  0.00    +0.246 C 
ATOM      8  O   UNL     1       8.129  -2.676   2.300  0.00  0.00    -0.273 OA
ATOM      9  N   UNL     1       6.678  -4.088   3.382  0.00  0.00    -0.211 N 
ATOM     10  C   UNL     1       5.396  -4.055   3.765  0.00  0.00    +0.310 C 
ATOM     11  O   UNL     1       4.840  -4.966   4.346  0.00  0.00    -0.252 OA
ATOM     12  N   UNL     1       4.791  -2.897   3.435  0.00  0.00    -0.287 N 
ATOM     13  H   UNL     1       3.869  -2.653   3.611  0.00  0.00    +0.151 HD
ATOM     14  H   UNL     1       3.427  -1.441   1.844  0.00  0.00    -0.081 HD
ENDROOT
BRANCH   1  15
ATOM     15  C   UNL     1       3.711  -0.707  -0.038  0.00  0.00    -0.043 C 
BRANCH  15  19
ATOM     16  C   UNL     1      -0.017   1.378   0.010  0.00  0.00    +0.000 A 
ATOM     17  C   UNL     1       1.171   2.086   0.002  0.00  0.00    +0.000 A 
ATOM     18  C   UNL     1       2.377   1.411  -0.013  0.00  0.00    +0.002 A 
ATOM     19  C   UNL     1       2.396   0.029  -0.020  0.00  0.00    -0.064 A 
ATOM     20  C   UNL     1       1.208  -0.679  -0.012  0.00  0.00    +0.002 A 
ATOM     21  C   UNL     1       0.002  -0.004   0.002  0.00  0.00    +0.000 A 
ENDBRANCH  15  19
ENDBRANCH   1  15
BRANCH   9  22
ATOM     22  C   UNL     1       7.577  -5.222   3.612  0.00  0.00    +0.205 C 
BRANCH  22  23
ATOM     23  N   UNL     1       8.254  -5.056   4.905  0.00  0.00    -0.284 NA
ATOM     24  C   UNL     1       9.392  -4.135   4.788  0.00  0.00    +0.103 C 
ATOM     25  C   UNL     1       9.958  -3.848   6.183  0.00  0.00    +0.125 C 
ATOM     26  N   UNL     1      10.260  -5.130   6.838  0.00  0.00    -0.174 NA
ATOM     27  C   UNL     1       9.209  -6.159   6.872  0.00  0.00    +0.125 C 
ATOM     28  C   UNL     1       8.673  -6.355   5.450  0.00  0.00    +0.103 C 
BRANCH  26  29
ATOM     29  S   UNL     1      11.744  -5.408   7.518  0.00  0.00    +0.061 S 
ATOM     30  O   UNL     1      11.921  -6.818   7.545  0.00  0.00    -0.153 OA
ATOM     31  O   UNL     1      12.659  -4.538   6.867  0.00  0.00    -0.153 OA
BRANCH  29  32
ATOM     32  C   UNL     1      11.655  -4.879   9.197  0.00  0.00    +0.105 A 
ATOM     33  C   UNL     1      11.969  -3.575   9.528  0.00  0.00    +0.028 A 
ATOM     34  C   UNL     1      11.899  -3.160  10.845  0.00  0.00    +0.002 A 
ATOM     35  C   UNL     1      11.514  -4.050  11.830  0.00  0.00    +0.000 A 
ATOM     36  C   UNL     1      11.199  -5.354  11.499  0.00  0.00    +0.002 A 
ATOM     37  C   UNL     1      11.265  -5.768  10.181  0.00  0.00    +0.028 A 
ENDBRANCH  29  32
ENDBRANCH  26  29
ENDBRANCH  22  23
ENDBRANCH   9  22
TORSDOF 6
