REMARK  Name = ZINC44873058
REMARK  8 active torsions:
REMARK  status: ('A' for Active; 'I' for Inactive)
REMARK    1  A    between atoms: C_1  and  C_2
REMARK    2  A    between atoms: C_2  and  C_4
REMARK    3  A    between atoms: C_2  and  C_8
REMARK    4  A    between atoms: N_5  and  O_6
REMARK    5  A    between atoms: N_13  and  C_16
REMARK    6  A    between atoms: C_16  and  C_17
REMARK    7  A    between atoms: C_16  and  C_18
REMARK    8  A    between atoms: C_16  and  C_19
REMARK                            x       y       z     vdW  Elec       q    Type
REMARK                         _______ _______ _______ _____ _____    ______ ____
ROOT
ATOM      1  C   UNL     1      -1.384  -0.584   0.118  0.00  0.00    +0.226 C 
ATOM      2  O   UNL     1      -1.690  -1.232   1.097  0.00  0.00    -0.275 OA
ATOM      3  N   UNL     1      -2.284  -0.381  -0.864  0.00  0.00    -0.298 N 
ATOM      4  C   UNL     1      -1.902   0.303  -2.108  0.00  0.00    +0.123 C 
ATOM      5  C   UNL     1      -2.346  -0.559  -3.295  0.00  0.00    +0.104 C 
ATOM      6  N   UNL     1      -3.778  -0.862  -3.167  0.00  0.00    -0.295 NA
ATOM      7  C   UNL     1      -4.049  -1.656  -1.961  0.00  0.00    +0.104 C 
ATOM      8  C   UNL     1      -3.673  -0.844  -0.723  0.00  0.00    +0.123 C 
ENDROOT
BRANCH   6   9
ATOM      9  C   UNL     1      -4.282  -1.541  -4.368  0.00  0.00    +0.014 C 
ATOM     10  C   UNL     1      -3.519  -2.852  -4.571  0.00  0.00    +0.027 C 
ATOM     11  C   UNL     1      -5.773  -1.839  -4.198  0.00  0.00    +0.027 C 
ATOM     12  C   UNL     1      -4.078  -0.639  -5.587  0.00  0.00    +0.027 C 
ENDBRANCH   6   9
BRANCH   1  14
ATOM     13  C   UNL     1      -0.020   1.464   0.430  0.00  0.00    +0.025 C 
ATOM     14  C   UNL     1       0.003  -0.005   0.001  0.00  0.00    +0.138 C 
BRANCH  14  15
ATOM     15  C   UNL     1       0.945  -0.773   0.892  0.00  0.00    +0.143 C 
ATOM     16  N   UNL     1       1.200  -0.345   2.084  0.00  0.00    -0.076 NA
ATOM     17  N   UNL     1       1.533  -1.932   0.436  0.00  0.00    -0.343 N 
ATOM     18  H   UNL     1       1.341  -2.254  -0.459  0.00  0.00    +0.144 HD
ATOM     19  H   UNL     1       2.139  -2.427   1.009  0.00  0.00    +0.144 HD
BRANCH  16  20
ATOM     20  O   UNL     1       2.086  -1.067   2.921  0.00  0.00    -0.408 OA
ATOM     21  H   UNL     1       2.215  -0.670   3.793  0.00  0.00    +0.328 HD
ENDBRANCH  16  20
ENDBRANCH  14  15
ENDBRANCH   1  14
TORSDOF 4
