REMARK  Name = ZINC04365982
REMARK  7 active torsions:
REMARK  status: ('A' for Active; 'I' for Inactive)
REMARK    1  A    between atoms: C_1  and  C_2
REMARK    2  A    between atoms: C_2  and  C_4
REMARK    3  A    between atoms: C_2  and  O_14
REMARK    4  A    between atoms: N_6  and  N_7
REMARK    5  A    between atoms: C_8  and  C_9
REMARK    6  A    between atoms: O_14  and  C_15
REMARK    7  A    between atoms: C_18  and  C_21
REMARK                            x       y       z     vdW  Elec       q    Type
REMARK                         _______ _______ _______ _____ _____    ______ ____
ROOT
ATOM      1  C   UNL     1      -0.284   1.275  -0.188  0.00  0.00    +0.062 C 
ATOM      2  C   UNL     1      -0.034  -0.228  -0.045  0.00  0.00    +0.257 C 
ENDROOT
BRANCH   2   3
ATOM      3  C   UNL     1       0.765  -0.719  -1.225  0.00  0.00    +0.273 C 
ATOM      4  O   UNL     1       1.887  -1.148  -1.061  0.00  0.00    -0.270 OA
ATOM      5  N   UNL     1       0.232  -0.680  -2.462  0.00  0.00    -0.204 N 
ATOM      6  H   UNL     1      -0.666  -0.337  -2.593  0.00  0.00    +0.177 HD
BRANCH   5   7
ATOM      7  N   UNL     1       0.975  -1.137  -3.559  0.00  0.00    -0.185 NA
ATOM      8  C   UNL     1       0.461  -1.099  -4.753  0.00  0.00    +0.176 C 
BRANCH   8   9
ATOM      9  C   UNL     1       1.238  -1.577  -5.901  0.00  0.00    +0.147 A 
ATOM     10  C   UNL     1       0.821  -1.594  -7.200  0.00  0.00    +0.051 A 
ATOM     11  C   UNL     1       1.879  -2.129  -7.958  0.00  0.00    +0.042 A 
ATOM     12  C   UNL     1       2.879  -2.410  -7.098  0.00  0.00    +0.196 A 
ATOM     13  O   UNL     1       2.491  -2.070  -5.859  0.00  0.00    -0.462 OA
ENDBRANCH   8   9
ENDBRANCH   5   7
ENDBRANCH   2   3
BRANCH   2  14
ATOM     14  O   UNL     1       0.693  -0.477   1.160  0.00  0.00    -0.480 OA
BRANCH  14  15
ATOM     15  C   UNL     1      -0.030  -0.600   2.303  0.00  0.00    +0.122 A 
ATOM     16  C   UNL     1      -1.399  -0.364   2.286  0.00  0.00    +0.046 A 
ATOM     17  C   UNL     1      -2.137  -0.493   3.443  0.00  0.00    +0.012 A 
ATOM     18  C   UNL     1      -1.506  -0.849   4.634  0.00  0.00    -0.018 A 
ATOM     19  C   UNL     1      -0.131  -1.079   4.650  0.00  0.00    +0.012 A 
ATOM     20  C   UNL     1       0.601  -0.954   3.488  0.00  0.00    +0.046 A 
BRANCH  18  21
ATOM     21  C   UNL     1      -2.296  -0.982   5.883  0.00  0.00    -0.018 A 
ATOM     22  C   UNL     1      -1.667  -1.343   7.073  0.00  0.00    +0.008 A 
ATOM     23  C   UNL     1      -2.407  -1.461   8.233  0.00  0.00    +0.001 A 
ATOM     24  C   UNL     1      -3.771  -1.232   8.213  0.00  0.00    +0.000 A 
ATOM     25  C   UNL     1      -4.401  -0.878   7.033  0.00  0.00    +0.001 A 
ATOM     26  C   UNL     1      -3.670  -0.752   5.869  0.00  0.00    +0.008 A 
ENDBRANCH  18  21
ENDBRANCH  14  15
ENDBRANCH   2  14
TORSDOF 6
