REMARK  Name = ZINC24987499
REMARK  6 active torsions:
REMARK  status: ('A' for Active; 'I' for Inactive)
REMARK    1  A    between atoms: C_1  and  C_2
REMARK    2  A    between atoms: C_4  and  C_29
REMARK    3  A    between atoms: C_8  and  N_28
REMARK    4  A    between atoms: C_9  and  C_11
REMARK    5  A    between atoms: N_13  and  N_14
REMARK    6  A    between atoms: C_15  and  C_17
REMARK                            x       y       z     vdW  Elec       q    Type
REMARK                         _______ _______ _______ _____ _____    ______ ____
ROOT
ATOM      1  C   UNL     1       3.032  -3.475  -1.872  0.00  0.00    +0.269 C 
ATOM      2  O   UNL     1       2.233  -4.383  -2.012  0.00  0.00    -0.268 OA
ATOM      3  N   UNL     1       4.263  -3.571  -2.411  0.00  0.00    -0.230 N 
ATOM      4  H   UNL     1       4.984  -2.750  -2.284  0.00  0.00    +0.173 HD
ENDROOT
BRANCH   1  13
ATOM      5  C   UNL     1      -1.065  -1.077   0.974  0.00  0.00    +0.044 C 
ATOM      6  C   UNL     1       0.203  -0.268   0.878  0.00  0.00    -0.037 A 
ATOM      7  C   UNL     1       0.288   0.970   1.470  0.00  0.00    +0.025 A 
ATOM      8  C   UNL     1       1.455   1.713   1.379  0.00  0.00    +0.014 A 
ATOM      9  N   UNL     1       2.498   1.241   0.724  0.00  0.00    -0.353 N 
ATOM     10  C   UNL     1       2.467   0.062   0.141  0.00  0.00    +0.088 A 
ATOM     11  C   UNL     1       1.326  -0.772   0.175  0.00  0.00    +0.030 A 
ATOM     12  C   UNL     1       1.467  -2.041  -0.522  0.00  0.00    +0.054 A 
ATOM     13  C   UNL     1       2.666  -2.317  -1.140  0.00  0.00    +0.098 A 
ATOM     14  S   UNL     1       3.649  -0.870  -0.801  0.00  0.00    -0.064 S 
ATOM     15  C   UNL     1       1.533   3.068   2.033  0.00  0.00    +0.063 C 
ATOM     16  H   UNL     1       3.420   1.837   0.656  0.00  0.00    +0.166 HD
BRANCH  12  17
ATOM     17  N   UNL     1       0.419  -2.950  -0.563  0.00  0.00    -0.356 N 
ATOM     18  H   UNL     1       0.541  -3.906  -1.095  0.00  0.00    +0.142 HD
ATOM     19  H   UNL     1      -0.532  -2.716  -0.065  0.00  0.00    +0.142 HD
ENDBRANCH  12  17
ENDBRANCH   1  13
BRANCH   3  20
ATOM     20  N   UNL     1       4.624  -4.715  -3.134  0.00  0.00    -0.234 N 
ATOM     21  C   UNL     1       5.855  -4.811  -3.673  0.00  0.00    +0.236 C 
ATOM     22  O   UNL     1       6.651  -3.906  -3.533  0.00  0.00    -0.274 OA
ATOM     23  H   UNL     1       3.902  -5.536  -3.261  0.00  0.00    +0.173 HD
BRANCH  21  24
ATOM     24  C   UNL     1       6.244  -6.042  -4.451  0.00  0.00    +0.118 C 
ATOM     25  C   UNL     1       7.692  -5.915  -4.929  0.00  0.00    +0.055 C 
ATOM     26  C   UNL     1       8.176  -7.247  -5.443  0.00  0.00    -0.005 A 
ATOM     27  C   UNL     1       9.302  -7.282  -6.250  0.00  0.00    +0.007 A 
ATOM     28  C   UNL     1       9.778  -8.485  -6.731  0.00  0.00    +0.000 A 
ATOM     29  C   UNL     1       9.130  -9.664  -6.408  0.00  0.00    +0.004 A 
ATOM     30  C   UNL     1       8.008  -9.635  -5.606  0.00  0.00    +0.046 A 
ATOM     31  C   UNL     1       7.525  -8.424  -5.120  0.00  0.00    +0.124 A 
ATOM     32  O   UNL     1       6.415  -8.437  -4.337  0.00  0.00    -0.491 OA
ATOM     33  C   UNL     1       6.142  -7.278  -3.547  0.00  0.00    +0.242 C 
ENDBRANCH  21  24
ENDBRANCH   3  20
TORSDOF 4
