REMARK  Name = ZINC05480274
REMARK  6 active torsions:
REMARK  status: ('A' for Active; 'I' for Inactive)
REMARK    1  A    between atoms: C_1  and  N_2
REMARK    2  A    between atoms: N_4  and  C_20
REMARK    3  A    between atoms: C_8  and  C_9
REMARK    4  A    between atoms: C_11  and  O_17
REMARK    5  A    between atoms: C_12  and  O_16
REMARK    6  A    between atoms: O_17  and  C_18
REMARK                            x       y       z     vdW  Elec       q    Type
REMARK                         _______ _______ _______ _____ _____    ______ ____
ROOT
ATOM      1  C   UNL     1       3.913   2.712  -0.180  0.00  0.00    -0.019 A 
ATOM      2  C   UNL     1       3.231   2.819   1.038  0.00  0.00    +0.057 A 
ATOM      3  C   UNL     1       2.013   2.190   1.200  0.00  0.00    +0.163 A 
ATOM      4  C   UNL     1       1.470   1.441   0.157  0.00  0.00    +0.173 A 
ATOM      5  C   UNL     1       2.145   1.333  -1.052  0.00  0.00    +0.063 A 
ATOM      6  C   UNL     1       3.360   1.963  -1.225  0.00  0.00    +0.027 A 
ATOM      7 BR   UNL     1       1.398   0.321  -2.463  0.00  0.00    -0.046 Br
ENDROOT
BRANCH   1  15
ATOM      8  C   UNL     1       7.566   4.238  -6.211  0.00  0.00    +0.173 C 
ATOM      9  N   UNL     1       6.315   3.882  -5.538  0.00  0.00    -0.266 NA
ATOM     10  C   UNL     1       6.262   3.844  -4.235  0.00  0.00    +0.163 C 
ATOM     11  N   UNL     1       7.235   4.210  -3.326  0.00  0.00    -0.249 N 
ATOM     12  C   UNL     1       7.011   4.113  -2.027  0.00  0.00    +0.259 C 
ATOM     13  O   UNL     1       7.854   4.437  -1.210  0.00  0.00    -0.269 OA
ATOM     14  C   UNL     1       5.695   3.590  -1.611  0.00  0.00    +0.078 C 
ATOM     15  C   UNL     1       5.207   3.385  -0.362  0.00  0.00    +0.028 C 
ATOM     16  S   UNL     1       4.915   3.308  -3.193  0.00  0.00    -0.049 S 
ATOM     17  C   UNL     1       8.523   4.716  -3.805  0.00  0.00    +0.140 C 
ENDBRANCH   1  15
BRANCH   4  18
ATOM     18  O   UNL     1       0.273   0.818   0.322  0.00  0.00    -0.503 OA
ATOM     19  H   UNL     1       0.343  -0.083   0.666  0.00  0.00    +0.292 HD
ENDBRANCH   4  18
BRANCH   3  20
ATOM     20  O   UNL     1       1.345   2.297   2.380  0.00  0.00    -0.491 OA
ATOM     21  C   UNL     1       1.959   3.080   3.405  0.00  0.00    +0.277 C 
ENDBRANCH   3  20
TORSDOF 3
