REMARK  Name = ZINC15805419
REMARK  9 active torsions:
REMARK  status: ('A' for Active; 'I' for Inactive)
REMARK    1  A    between atoms: C_1  and  C_2
REMARK    2  A    between atoms: C_2  and  C_3
REMARK    3  A    between atoms: C_3  and  C_4
REMARK    4  A    between atoms: C_6  and  O_23
REMARK    5  A    between atoms: C_8  and  S_10
REMARK    6  A    between atoms: S_10  and  C_11
REMARK    7  A    between atoms: C_11  and  C_13
REMARK    8  A    between atoms: C_11  and  C_14
REMARK    9  A    between atoms: C_19  and  C_22
REMARK                            x       y       z     vdW  Elec       q    Type
REMARK                         _______ _______ _______ _____ _____    ______ ____
ROOT
ATOM      1  S   UNL     1      -0.022   1.806   0.012  0.00  0.00    -0.073 S 
ENDROOT
BRANCH   1   6
ATOM      2  C   UNL     1       3.420   3.679  -0.011  0.00  0.00    +0.049 A 
ATOM      3  C   UNL     1       4.340   2.647  -0.025  0.00  0.00    +0.090 A 
ATOM      4  C   UNL     1       3.869   1.335  -0.028  0.00  0.00    +0.216 A 
ATOM      5  N   UNL     1       2.560   1.120  -0.011  0.00  0.00    -0.187 NA
ATOM      6  C   UNL     1       1.708   2.135  -0.003  0.00  0.00    +0.192 A 
ATOM      7  N   UNL     1       2.127   3.393   0.000  0.00  0.00    -0.227 NA
BRANCH   4   8
ATOM      8  O   UNL     1       4.737   0.294  -0.042  0.00  0.00    -0.492 OA
ATOM      9  H   UNL     1       4.997  -0.013   0.838  0.00  0.00    +0.294 HD
ENDBRANCH   4   8
BRANCH   2  10
ATOM     10  C   UNL     1       3.883   5.113  -0.007  0.00  0.00    +0.055 C 
BRANCH  10  12
ATOM     11  C   UNL     1       3.711   7.315  -1.175  0.00  0.00    +0.004 C 
ATOM     12  C   UNL     1       3.241   5.859  -1.178  0.00  0.00    +0.003 C 
ENDBRANCH  10  12
ENDBRANCH   2  10
ENDBRANCH   1   6
BRANCH   1  13
ATOM     13  C   UNL     1       0.002  -0.004   0.002  0.00  0.00    +0.137 C 
ATOM     14  C   UNL     1       0.631  -0.513   1.301  0.00  0.00    +0.029 C 
BRANCH  13  15
ATOM     15  C   UNL     1      -1.407  -0.525  -0.111  0.00  0.00    +0.231 C 
ATOM     16  O   UNL     1      -2.343   0.189   0.181  0.00  0.00    -0.274 OA
ATOM     17  N   UNL     1      -1.628  -1.784  -0.537  0.00  0.00    -0.267 N 
ATOM     18  C   UNL     1      -2.933  -2.267  -0.642  0.00  0.00    +0.168 A 
ATOM     19  C   UNL     1      -4.129  -1.562  -0.341  0.00  0.00    +0.091 A 
ATOM     20  C   UNL     1      -5.109  -2.456  -0.604  0.00  0.00    +0.136 A 
ATOM     21  O   UNL     1      -4.503  -3.577  -1.022  0.00  0.00    -0.358 OA
ATOM     22  N   UNL     1      -3.301  -3.455  -1.042  0.00  0.00    -0.063 NA
ATOM     23  C   UNL     1      -6.593  -2.235  -0.458  0.00  0.00    +0.089 C 
ATOM     24  H   UNL     1      -0.880  -2.356  -0.771  0.00  0.00    +0.156 HD
ENDBRANCH  13  15
ENDBRANCH   1  13
TORSDOF 6
