REMARK  Name = ZINC05887216
REMARK  6 active torsions:
REMARK  status: ('A' for Active; 'I' for Inactive)
REMARK    1  A    between atoms: C_1  and  C_2
REMARK    2  A    between atoms: C_2  and  C_3
REMARK    3  A    between atoms: C_5  and  N_12
REMARK    4  A    between atoms: C_10  and  C_11
REMARK    5  A    between atoms: N_12  and  C_13
REMARK    6  A    between atoms: C_13  and  C_14
REMARK                            x       y       z     vdW  Elec       q    Type
REMARK                         _______ _______ _______ _____ _____    ______ ____
ROOT
ATOM      1  N   UNL     1       2.426   1.266  -0.015  0.00  0.00    -0.333 N 
ATOM      2  H   UNL     1       3.255   1.768  -0.020  0.00  0.00    +0.147 HD
ENDROOT
BRANCH   1   5
ATOM      3  C   UNL     1      -0.083   3.958   0.024  0.00  0.00    -0.027 A 
ATOM      4  C   UNL     1       1.160   3.307   0.009  0.00  0.00    +0.033 A 
ATOM      5  C   UNL     1       1.198   1.940   0.001  0.00  0.00    +0.093 A 
ATOM      6  C   UNL     1      -0.015   1.216   0.009  0.00  0.00    +0.270 A 
ATOM      7  O   UNL     1       0.002  -0.004   0.002  0.00  0.00    -0.266 OA
ATOM      8  N   UNL     1      -1.189   1.875   0.018  0.00  0.00    -0.325 N 
ATOM      9  H   UNL     1      -2.046   1.358   0.015  0.00  0.00    +0.169 HD
ATOM     10  C   UNL     1      -1.225   3.234   0.032  0.00  0.00    +0.019 A 
ATOM     11  C   UNL     1      -2.555   3.944   0.049  0.00  0.00    +0.063 C 
BRANCH   3  13
ATOM     12  C   UNL     1      -0.026   5.970   1.472  0.00  0.00    +0.009 C 
ATOM     13  C   UNL     1      -0.144   5.463   0.033  0.00  0.00    +0.033 C 
ENDBRANCH   3  13
ENDBRANCH   1   5
BRANCH   1  14
ATOM     14  C   UNL     1       2.457  -0.199  -0.024  0.00  0.00    +0.176 C 
BRANCH  14  15
ATOM     15  C   UNL     1       3.888  -0.671  -0.040  0.00  0.00    +0.123 A 
ATOM     16  C   UNL     1       4.627  -0.918   1.050  0.00  0.00    +0.054 A 
ATOM     17  C   UNL     1       5.942  -1.351   0.563  0.00  0.00    +0.020 A 
ATOM     18  C   UNL     1       7.129  -1.745   1.180  0.00  0.00    +0.011 A 
ATOM     19  C   UNL     1       8.205  -2.099   0.415  0.00  0.00    +0.001 A 
ATOM     20  C   UNL     1       8.123  -2.069  -0.970  0.00  0.00    +0.004 A 
ATOM     21  C   UNL     1       6.958  -1.683  -1.597  0.00  0.00    +0.047 A 
ATOM     22  C   UNL     1       5.853  -1.318  -0.839  0.00  0.00    +0.135 A 
ATOM     23  O   UNL     1       4.606  -0.911  -1.151  0.00  0.00    -0.458 OA
ENDBRANCH  14  15
ENDBRANCH   1  14
TORSDOF 4
