REMARK  Name = ZINC24900878
REMARK  9 active torsions:
REMARK  status: ('A' for Active; 'I' for Inactive)
REMARK    1  A    between atoms: C_1  and  C_2
REMARK    2  A    between atoms: C_2  and  S_3
REMARK    3  A    between atoms: S_3  and  C_4
REMARK    4  A    between atoms: C_7  and  S_9
REMARK    5  A    between atoms: S_9  and  C_10
REMARK    6  A    between atoms: C_10  and  C_12
REMARK    7  A    between atoms: C_10  and  C_13
REMARK    8  A    between atoms: N_19  and  C_20
REMARK    9  A    between atoms: N_19  and  C_21
REMARK                            x       y       z     vdW  Elec       q    Type
REMARK                         _______ _______ _______ _____ _____    ______ ____
ROOT
ATOM      1  C   UNL     1      -0.718   1.572   1.248  0.00  0.00    +0.149 A 
ATOM      2  N   UNL     1      -0.601   2.834   1.621  0.00  0.00    -0.198 NA
ATOM      3  C   UNL     1      -1.223   3.268   2.715  0.00  0.00    +0.217 A 
ATOM      4  N   UNL     1      -1.962   2.429   3.433  0.00  0.00    -0.181 NA
ATOM      5  C   UNL     1      -2.077   1.160   3.055  0.00  0.00    +0.222 A 
ATOM      6  N   UNL     1      -1.456   0.736   1.957  0.00  0.00    -0.198 NA
ATOM      7  N   UNL     1      -2.844   0.285   3.797  0.00  0.00    -0.306 N 
ATOM      8  C   UNL     1      -3.531   0.755   5.003  0.00  0.00    +0.132 C 
ATOM      9  C   UNL     1      -2.970  -1.113   3.380  0.00  0.00    +0.132 C 
ATOM     10  N   UNL     1      -1.100   4.586   3.103  0.00  0.00    -0.327 N 
ATOM     11  H   UNL     1      -1.614   4.943   4.008  0.00  0.00    +0.145 HD
ATOM     12  H   UNL     1      -0.488   5.280   2.508  0.00  0.00    +0.145 HD
ENDROOT
BRANCH   1  13
ATOM     13  C   UNL     1      -0.013   1.086   0.008  0.00  0.00    +0.118 C 
ATOM     14  C   UNL     1      -0.753   1.593  -1.232  0.00  0.00    +0.027 C 
BRANCH  13  15
ATOM     15  S   UNL     1       1.689   1.714  -0.005  0.00  0.00    -0.086 S 
BRANCH  15  19
ATOM     16  C   UNL     1       3.890   0.004  -3.455  0.00  0.00    +0.159 A 
ATOM     17  N   UNL     1       2.632  -0.372  -3.326  0.00  0.00    -0.134 NA
ATOM     18  N   UNL     1       1.879   0.107  -2.279  0.00  0.00    -0.134 NA
ATOM     19  C   UNL     1       2.415   0.949  -1.417  0.00  0.00    +0.160 A 
ATOM     20  S   UNL     1       4.075   1.100  -2.057  0.00  0.00    -0.033 S 
BRANCH  16  21
ATOM     21  S   UNL     1       5.072  -0.453  -4.681  0.00  0.00    -0.097 S 
BRANCH  21  23
ATOM     22  C   UNL     1       5.085  -2.068  -6.888  0.00  0.00    +0.016 C 
ATOM     23  C   UNL     1       4.163  -1.589  -5.764  0.00  0.00    +0.073 C 
ENDBRANCH  21  23
ENDBRANCH  16  21
ENDBRANCH  15  19
ENDBRANCH  13  15
ENDBRANCH   1  13
TORSDOF 5
