REMARK  Name = ZINC07048610
REMARK  7 active torsions:
REMARK  status: ('A' for Active; 'I' for Inactive)
REMARK    1  A    between atoms: C_1  and  C_2
REMARK    2  A    between atoms: C_4  and  N_22
REMARK    3  A    between atoms: C_6  and  S_8
REMARK    4  A    between atoms: S_8  and  C_9
REMARK    5  A    between atoms: C_9  and  C_10
REMARK    6  A    between atoms: N_12  and  C_13
REMARK    7  A    between atoms: C_19  and  C_21
REMARK                            x       y       z     vdW  Elec       q    Type
REMARK                         _______ _______ _______ _____ _____    ______ ____
ROOT
ATOM      1  C   UNL     1      -0.994   3.877   0.028  0.00  0.00    +0.173 C 
ENDROOT
BRANCH   1   2
ATOM      2  C   UNL     1      -2.184   4.802   0.038  0.00  0.00    +0.224 C 
ATOM      3  O   UNL     1      -3.307   4.345   0.041  0.00  0.00    -0.275 OA
ATOM      4  N   UNL     1      -1.999   6.137   0.045  0.00  0.00    -0.312 N 
ATOM      5  H   UNL     1      -1.100   6.503   0.043  0.00  0.00    +0.149 HD
BRANCH   4   6
ATOM      6  C   UNL     1      -3.155   7.037   0.055  0.00  0.00    +0.076 C 
ATOM      7  C   UNL     1      -3.628   7.243   1.496  0.00  0.00    +0.022 C 
ATOM      8  C   UNL     1      -2.496   7.858   2.321  0.00  0.00    +0.002 C 
ATOM      9  C   UNL     1      -2.099   9.206   1.717  0.00  0.00    +0.000 C 
ATOM     10  C   UNL     1      -1.626   9.000   0.276  0.00  0.00    +0.005 C 
ATOM     11  C   UNL     1      -2.758   8.385  -0.549  0.00  0.00    +0.006 C 
ATOM     12  C   UNL     1      -2.285   8.179  -1.990  0.00  0.00    +0.009 C 
ENDBRANCH   4   6
ENDBRANCH   1   2
BRANCH   1  13
ATOM     13  S   UNL     1      -1.566   2.160   0.021  0.00  0.00    -0.077 S 
BRANCH  13  19
ATOM     14  C   UNL     1       1.153  -2.176  -0.021  0.00  0.00    +0.066 C 
ATOM     15  C   UNL     1       1.147  -0.669  -0.013  0.00  0.00    +0.044 A 
ATOM     16  C   UNL     1       2.337   0.033  -0.020  0.00  0.00    +0.066 A 
ATOM     17  C   UNL     1       2.287   1.429  -0.012  0.00  0.00    +0.121 A 
ATOM     18  N   UNL     1       1.103   2.032   0.002  0.00  0.00    -0.207 NA
ATOM     19  C   UNL     1      -0.016   1.321   0.009  0.00  0.00    +0.191 A 
ATOM     20  N   UNL     1       0.002  -0.004   0.002  0.00  0.00    -0.227 NA
BRANCH  17  21
ATOM     21  N   UNL     1       3.455   2.174  -0.019  0.00  0.00    -0.343 N 
ATOM     22  H   UNL     1       4.316   1.726  -0.029  0.00  0.00    +0.144 HD
ATOM     23  H   UNL     1       3.412   3.143  -0.013  0.00  0.00    +0.144 HD
ENDBRANCH  17  21
ENDBRANCH  13  19
ENDBRANCH   1  13
TORSDOF 5
