REMARK  Name = ZINC06334025
REMARK  7 active torsions:
REMARK  status: ('A' for Active; 'I' for Inactive)
REMARK    1  A    between atoms: C_3  and  C_6
REMARK    2  A    between atoms: N_7  and  N_8
REMARK    3  A    between atoms: C_11  and  S_14
REMARK    4  A    between atoms: S_14  and  C_15
REMARK    5  A    between atoms: C_15  and  C_16
REMARK    6  A    between atoms: N_18  and  C_19
REMARK    7  A    between atoms: C_22  and  C_25
REMARK                            x       y       z     vdW  Elec       q    Type
REMARK                         _______ _______ _______ _____ _____    ______ ____
ROOT
ATOM      1  S   UNL     1       6.339  -5.645  -0.100  0.00  0.00    -0.075 S 
ENDROOT
BRANCH   1   5
ATOM      2  N   UNL     1       5.588  -0.558  -0.080  0.00  0.00    -0.205 N 
ATOM      3  C   UNL     1       6.250  -1.772  -0.089  0.00  0.00    +0.232 A 
ATOM      4  N   UNL     1       5.685  -2.962  -0.087  0.00  0.00    -0.186 NA
ATOM      5  C   UNL     1       6.630  -3.908  -0.099  0.00  0.00    +0.211 A 
ATOM      6  N   UNL     1       7.809  -3.333  -0.109  0.00  0.00    -0.144 NA
ATOM      7  N   UNL     1       7.588  -1.946  -0.109  0.00  0.00    -0.245 N 
ATOM      8  H   UNL     1       6.093   0.270  -0.087  0.00  0.00    +0.177 HD
ATOM      9  H   UNL     1       8.264  -1.250  -0.119  0.00  0.00    +0.192 HD
BRANCH   2  11
ATOM     10  C   UNL     1       3.565   0.618  -0.050  0.00  0.00    +0.176 C 
ATOM     11  N   UNL     1       4.188  -0.524  -0.059  0.00  0.00    -0.184 NA
BRANCH  10  14
ATOM     12  C   UNL     1      -0.015   1.345   0.003  0.00  0.00    +0.042 A 
ATOM     13  C   UNL     1       1.325   1.777  -0.017  0.00  0.00    +0.051 A 
ATOM     14  C   UNL     1       2.099   0.654  -0.028  0.00  0.00    +0.147 A 
ATOM     15  O   UNL     1       1.281  -0.418  -0.016  0.00  0.00    -0.462 OA
ATOM     16  C   UNL     1       0.003  -0.003   0.003  0.00  0.00    +0.196 A 
ENDBRANCH  10  14
ENDBRANCH   2  11
ENDBRANCH   1   5
BRANCH   1  17
ATOM     17  C   UNL     1       8.002  -6.369  -0.119  0.00  0.00    +0.173 C 
BRANCH  17  18
ATOM     18  C   UNL     1       7.895  -7.872  -0.121  0.00  0.00    +0.227 C 
ATOM     19  O   UNL     1       6.805  -8.403  -0.111  0.00  0.00    -0.275 OA
ATOM     20  N   UNL     1       9.012  -8.627  -0.134  0.00  0.00    -0.285 N 
ATOM     21  H   UNL     1       9.882  -8.205  -0.210  0.00  0.00    +0.155 HD
BRANCH  20  22
ATOM     22  C   UNL     1       8.916 -10.020  -0.039  0.00  0.00    +0.033 A 
ATOM     23  C   UNL     1       9.884 -10.738   0.652  0.00  0.00    +0.024 A 
ATOM     24  C   UNL     1       9.786 -12.113   0.744  0.00  0.00    +0.014 A 
ATOM     25  C   UNL     1       8.727 -12.774   0.150  0.00  0.00    +0.055 A 
ATOM     26  C   UNL     1       7.763 -12.062  -0.539  0.00  0.00    +0.014 A 
ATOM     27  C   UNL     1       7.851 -10.686  -0.630  0.00  0.00    +0.024 A 
BRANCH  25  28
ATOM     28  C   UNL     1       8.624 -14.274   0.252  0.00  0.00    +0.417 C 
ATOM     29  F   UNL     1       7.892 -14.614   1.395  0.00  0.00    -0.166 F 
ATOM     30  F   UNL     1       7.979 -14.776  -0.882  0.00  0.00    -0.166 F 
ATOM     31  F   UNL     1       9.908 -14.824   0.340  0.00  0.00    -0.166 F 
ENDBRANCH  25  28
ENDBRANCH  20  22
ENDBRANCH  17  18
ENDBRANCH   1  17
TORSDOF 7
