REMARK  Name = ZINC12773219
REMARK  8 active torsions:
REMARK  status: ('A' for Active; 'I' for Inactive)
REMARK    1  A    between atoms: C_1  and  C_2
REMARK    2  A    between atoms: C_2  and  C_9
REMARK    3  A    between atoms: C_9  and  S_10
REMARK    4  A    between atoms: S_10  and  C_11
REMARK    5  A    between atoms: C_16  and  C_17
REMARK    6  A    between atoms: N_19  and  C_20
REMARK    7  A    between atoms: N_19  and  C_21
REMARK    8  A    between atoms: C_21  and  C_22
REMARK                            x       y       z     vdW  Elec       q    Type
REMARK                         _______ _______ _______ _____ _____    ______ ____
ROOT
ATOM      1  C   UNL     1       1.074   3.099  -0.354  0.00  0.00    +0.020 A 
ATOM      2  C   UNL     1      -0.165   3.729  -0.355  0.00  0.00    +0.015 A 
ATOM      3  C   UNL     1      -1.303   3.016  -0.042  0.00  0.00    +0.001 A 
ATOM      4  C   UNL     1      -1.223   1.667   0.271  0.00  0.00    +0.001 A 
ATOM      5  C   UNL     1      -0.003   1.027   0.282  0.00  0.00    +0.014 A 
ATOM      6  C   UNL     1       1.159   1.735  -0.033  0.00  0.00    +0.050 A 
ENDROOT
BRANCH   6   7
ATOM      7  C   UNL     1       2.467   1.055  -0.028  0.00  0.00    +0.248 C 
ATOM      8  O   UNL     1       3.211   1.161  -0.984  0.00  0.00    -0.270 OA
ATOM      9  N   UNL     1       2.837   0.315   1.036  0.00  0.00    -0.293 N 
ATOM     10  C   UNL     1       1.902   0.107   2.145  0.00  0.00    +0.133 C 
BRANCH   9  11
ATOM     11  C   UNL     1       4.175  -0.281   1.084  0.00  0.00    +0.181 C 
BRANCH  11  12
ATOM     12  C   UNL     1       5.130   0.682   1.739  0.00  0.00    +0.128 A 
ATOM     13  N   UNL     1       6.429   0.308   1.877  0.00  0.00    -0.309 N 
ATOM     14  H   UNL     1       6.715  -0.561   1.556  0.00  0.00    +0.170 HD
ATOM     15  C   UNL     1       7.327   1.137   2.458  0.00  0.00    +0.259 A 
ATOM     16  O   UNL     1       8.494   0.815   2.588  0.00  0.00    -0.267 OA
ATOM     17  C   UNL     1       6.839   2.443   2.926  0.00  0.00    +0.065 A 
ATOM     18  C   UNL     1       7.682   3.369   3.537  0.00  0.00    +0.015 A 
ATOM     19  C   UNL     1       7.171   4.578   3.957  0.00  0.00    +0.001 A 
ATOM     20  C   UNL     1       5.827   4.879   3.775  0.00  0.00    +0.002 A 
ATOM     21  C   UNL     1       4.978   3.977   3.174  0.00  0.00    +0.028 A 
ATOM     22  C   UNL     1       5.472   2.745   2.740  0.00  0.00    +0.078 A 
ATOM     23  N   UNL     1       4.672   1.830   2.138  0.00  0.00    -0.232 NA
ENDBRANCH  11  12
ENDBRANCH   9  11
ENDBRANCH   6   7
BRANCH   1  24
ATOM     24  S   UNL     1       2.530   4.008  -0.753  0.00  0.00    -0.122 S 
BRANCH  24  25
ATOM     25  C   UNL     1       1.923   5.685  -1.087  0.00  0.00    +0.109 C 
BRANCH  25  27
ATOM     26  C   UNL     1       3.828   6.055  -2.687  0.00  0.00    +0.042 C 
ATOM     27  C   UNL     1       3.101   6.591  -1.451  0.00  0.00    +0.119 C 
ATOM     28  C   UNL     1       2.629   8.012  -1.684  0.00  0.00    +0.244 C 
ATOM     29  O   UNL     1       1.847   8.395  -2.527  0.00  0.00    -0.273 OA
ATOM     30  N   UNL     1       3.259   8.762  -0.758  0.00  0.00    -0.238 N 
ATOM     31  C   UNL     1       4.055   8.019   0.019  0.00  0.00    +0.307 C 
ATOM     32  O   UNL     1       4.727   8.471   0.926  0.00  0.00    -0.252 OA
ATOM     33  N   UNL     1       4.032   6.713  -0.316  0.00  0.00    -0.285 N 
ATOM     34  H   UNL     1       3.148   9.721  -0.666  0.00  0.00    +0.159 HD
ATOM     35  H   UNL     1       4.528   5.995   0.107  0.00  0.00    +0.151 HD
ENDBRANCH  25  27
ENDBRANCH  24  25
ENDBRANCH   1  24
TORSDOF 6
