REMARK  Name = ZINC40569450
REMARK  9 active torsions:
REMARK  status: ('A' for Active; 'I' for Inactive)
REMARK    1  A    between atoms: C_1  and  C_2
REMARK    2  A    between atoms: C_2  and  C_3
REMARK    3  A    between atoms: C_3  and  C_4
REMARK    4  A    between atoms: N_10  and  C_11
REMARK    5  A    between atoms: C_11  and  C_12
REMARK    6  A    between atoms: C_13  and  C_21
REMARK    7  A    between atoms: C_15  and  C_19
REMARK    8  A    between atoms: C_16  and  N_18
REMARK    9  A    between atoms: C_24  and  N_27
REMARK                            x       y       z     vdW  Elec       q    Type
REMARK                         _______ _______ _______ _____ _____    ______ ____
ROOT
ATOM      1  C   UNL     1       0.591  -1.989  -1.273  0.00  0.00    +0.025 A 
ATOM      2  C   UNL     1      -0.371  -2.557  -2.032  0.00  0.00    +0.068 A 
ATOM      3  C   UNL     1      -0.401  -3.958  -2.191  0.00  0.00    +0.141 A 
ATOM      4  C   UNL     1       0.560  -4.722  -1.563  0.00  0.00    +0.072 A 
ATOM      5  C   UNL     1       1.538  -4.089  -0.785  0.00  0.00    +0.259 A 
ATOM      6  O   UNL     1       2.394  -4.753  -0.223  0.00  0.00    -0.267 OA
ATOM      7  N   UNL     1       1.537  -2.749  -0.661  0.00  0.00    -0.312 N 
ATOM      8  C   UNL     1       0.566  -6.220  -1.706  0.00  0.00    +0.103 C 
ATOM      9  C   UNL     1      -0.761  -6.695  -2.231  0.00  0.00    +0.098 C 
ATOM     10  C   UNL     1      -1.634  -5.838  -2.812  0.00  0.00    +0.199 C 
ATOM     11  O   UNL     1      -1.361  -4.529  -2.949  0.00  0.00    -0.441 OA
ENDROOT
BRANCH   8  12
ATOM     12  C   UNL     1       1.654  -6.625  -2.667  0.00  0.00    -0.034 A 
ATOM     13  C   UNL     1       1.636  -6.158  -3.969  0.00  0.00    +0.007 A 
ATOM     14  C   UNL     1       2.634  -6.529  -4.850  0.00  0.00    +0.033 A 
ATOM     15  C   UNL     1       3.650  -7.367  -4.430  0.00  0.00    +0.126 A 
ATOM     16  C   UNL     1       3.668  -7.833  -3.129  0.00  0.00    +0.033 A 
ATOM     17  C   UNL     1       2.673  -7.458  -2.246  0.00  0.00    +0.007 A 
BRANCH  15  18
ATOM     18  N   UNL     1       4.718  -7.766  -5.375  0.00  0.00    +0.056 N 
ATOM     19  O   UNL     1       4.701  -7.359  -6.513  0.00  0.00    -0.126 OA
ATOM     20  O   UNL     1       5.607  -8.499  -5.007  0.00  0.00    -0.126 OA
ENDBRANCH  15  18
ENDBRANCH   8  12
BRANCH  10  21
ATOM     21  N   UNL     1      -2.832  -6.322  -3.275  0.00  0.00    -0.328 N 
ATOM     22  H   UNL     1      -3.043  -7.264  -3.184  0.00  0.00    +0.145 HD
ATOM     23  H   UNL     1      -3.468  -5.721  -3.694  0.00  0.00    +0.145 HD
ENDBRANCH  10  21
BRANCH   7  24
ATOM     24  C   UNL     1       2.569  -2.099   0.150  0.00  0.00    +0.122 C 
ATOM     25  C   UNL     1       2.092  -2.003   1.601  0.00  0.00    +0.027 C 
ENDBRANCH   7  24
BRANCH   9  26
ATOM     26  C   UNL     1      -1.107  -8.079  -2.114  0.00  0.00    +0.101 C 
ATOM     27  N   UNL     1      -1.382  -9.178  -2.021  0.00  0.00    -0.191 NA
ENDBRANCH   9  26
BRANCH   1  28
ATOM     28  C   UNL     1       0.618  -0.491  -1.107  0.00  0.00    +0.053 C 
BRANCH  28  30
ATOM     29  C   UNL     1       1.456   1.651  -2.083  0.00  0.00    +0.004 C 
ATOM     30  C   UNL     1       1.509   0.125  -2.187  0.00  0.00    +0.003 C 
ENDBRANCH  28  30
ENDBRANCH   1  28
TORSDOF 7
