REMARK  Name = ZINC20158585
REMARK  7 active torsions:
REMARK  status: ('A' for Active; 'I' for Inactive)
REMARK    1  A    between atoms: C_1  and  C_2
REMARK    2  A    between atoms: C_2  and  C_17
REMARK    3  A    between atoms: N_3  and  N_4
REMARK    4  A    between atoms: C_5  and  C_7
REMARK    5  A    between atoms: C_21  and  N_23
REMARK    6  A    between atoms: C_24  and  C_26
REMARK    7  A    between atoms: C_32  and  C_34
REMARK                            x       y       z     vdW  Elec       q    Type
REMARK                         _______ _______ _______ _____ _____    ______ ____
ROOT
ATOM      1  C   UNL     1      -4.635  -3.012   2.295  0.00  0.00    -0.001 A 
ATOM      2  C   UNL     1      -5.796  -2.235   2.303  0.00  0.00    +0.010 A 
ATOM      3  C   UNL     1      -5.716  -0.875   2.085  0.00  0.00    +0.002 A 
ATOM      4  C   UNL     1      -4.490  -0.276   1.864  0.00  0.00    +0.023 A 
ATOM      5  C   UNL     1      -3.330  -1.041   1.849  0.00  0.00    +0.034 A 
ATOM      6  C   UNL     1      -3.398  -2.408   2.066  0.00  0.00    +0.033 A 
ENDROOT
BRANCH   5   7
ATOM      7  N   UNL     1      -2.092  -0.430   1.619  0.00  0.00    -0.285 N 
ATOM      8  C   UNL     1      -0.992  -0.874   2.260  0.00  0.00    +0.221 C 
ATOM      9  O   UNL     1      -1.059  -1.854   2.972  0.00  0.00    -0.275 OA
ATOM     10  H   UNL     1      -2.016   0.413   0.916  0.00  0.00    +0.155 HD
BRANCH   8  11
ATOM     11  C   UNL     1       0.321  -0.154   2.091  0.00  0.00    +0.093 C 
ATOM     12  C   UNL     1       1.056  -0.102   3.432  0.00  0.00    +0.040 C 
ATOM     13  C   UNL     1       1.538  -1.473   3.807  0.00  0.00    -0.030 C 
ATOM     14  C   UNL     1       1.640  -2.459   2.974  0.00  0.00    -0.030 C 
ATOM     15  C   UNL     1       1.281  -2.372   1.520  0.00  0.00    +0.042 C 
ATOM     16  C   UNL     1       1.199  -0.907   1.085  0.00  0.00    +0.118 C 
BRANCH  16  17
ATOM     17  C   UNL     1       0.585  -0.820  -0.289  0.00  0.00    +0.360 C 
ATOM     18  O   UNL     1      -0.439  -0.200  -0.455  0.00  0.00    -0.246 OA
ATOM     19  O   UNL     1       1.175  -1.432  -1.328  0.00  0.00    -0.246 OA
ENDBRANCH  16  17
ENDBRANCH   8  11
ENDBRANCH   5   7
BRANCH   1  21
ATOM     20  C   UNL     1      -6.054  -5.116   2.774  0.00  0.00    +0.068 C 
ATOM     21  C   UNL     1      -4.717  -4.466   2.527  0.00  0.00    +0.063 C 
ATOM     22  N   UNL     1      -3.637  -5.187   2.519  0.00  0.00    -0.184 NA
BRANCH  22  23
ATOM     23  N   UNL     1      -3.715  -6.568   2.739  0.00  0.00    -0.202 N 
ATOM     24  C   UNL     1      -2.594  -7.316   2.730  0.00  0.00    +0.271 C 
ATOM     25  O   UNL     1      -1.514  -6.791   2.531  0.00  0.00    -0.268 OA
ATOM     26  H   UNL     1      -4.691  -7.042   2.919  0.00  0.00    +0.178 HD
BRANCH  24  27
ATOM     27  C   UNL     1      -2.675  -8.763   2.961  0.00  0.00    +0.095 A 
ATOM     28  C   UNL     1      -1.666  -9.676   2.984  0.00  0.00    +0.068 A 
ATOM     29  C   UNL     1      -1.953 -11.032   3.229  0.00  0.00    +0.008 A 
ATOM     30  C   UNL     1      -1.049 -12.123   3.296  0.00  0.00    +0.010 A 
ATOM     31  C   UNL     1      -1.496 -13.383   3.536  0.00  0.00    +0.001 A 
ATOM     32  C   UNL     1      -2.846 -13.653   3.726  0.00  0.00    +0.001 A 
ATOM     33  C   UNL     1      -3.760 -12.620   3.670  0.00  0.00    +0.016 A 
ATOM     34  C   UNL     1      -3.321 -11.336   3.425  0.00  0.00    +0.021 A 
ATOM     35  S   UNL     1      -4.122  -9.760   3.272  0.00  0.00    -0.082 S 
ATOM     36 CL   UNL     1      -0.027  -9.169   2.719  0.00  0.00    -0.082 Cl
ENDBRANCH  24  27
ENDBRANCH  22  23
ENDBRANCH   1  21
TORSDOF 6
