REMARK  Name = ZINC63831354
REMARK  1 active torsions:
REMARK  status: ('A' for Active; 'I' for Inactive)
REMARK    1  A    between atoms: C_7  and  C_10
REMARK                            x       y       z     vdW  Elec       q    Type
REMARK                         _______ _______ _______ _____ _____    ______ ____
ROOT
ATOM      1  C   UNL     1       0.691  -3.186  -0.024  0.00  0.00    +0.193 C 
ATOM      2  N   UNL     1       0.953  -4.047   1.150  0.00  0.00    -0.295 N 
ATOM      3  C   UNL     1       0.512  -5.359   1.101  0.00  0.00    +0.177 C 
ATOM      4  N   UNL     1       0.726  -6.082  -0.067  0.00  0.00    -0.284 N 
ATOM      5  C   UNL     1       0.392  -5.397  -1.328  0.00  0.00    +0.255 C 
ATOM      6  N   UNL     1       0.929  -4.025  -1.204  0.00  0.00    -0.272 N 
ATOM      7  C   UNL     1       1.684  -3.763  -2.345  0.00  0.00    +0.059 A 
ATOM      8  C   UNL     1       2.273  -2.588  -2.801  0.00  0.00    +0.074 A 
ATOM      9  C   UNL     1       3.001  -2.589  -3.978  0.00  0.00    +0.164 A 
ATOM     10  C   UNL     1       3.144  -3.759  -4.708  0.00  0.00    +0.164 A 
ATOM     11  C   UNL     1       2.555  -4.930  -4.265  0.00  0.00    +0.074 A 
ATOM     12  C   UNL     1       1.817  -4.936  -3.087  0.00  0.00    +0.055 A 
ATOM     13  N   UNL     1       1.095  -5.993  -2.463  0.00  0.00    -0.309 N 
ATOM     14  O   UNL     1       3.869  -3.748  -5.866  0.00  0.00    -0.488 OA
ATOM     15  C   UNL     1       3.297  -3.017  -6.953  0.00  0.00    +0.232 C 
ATOM     16  C   UNL     1       3.644  -1.540  -6.852  0.00  0.00    +0.082 C 
ATOM     17  C   UNL     1       3.034  -0.885  -5.624  0.00  0.00    +0.232 C 
ATOM     18  O   UNL     1       3.585  -1.438  -4.427  0.00  0.00    -0.488 OA
ATOM     19  N   UNL     1      -0.088  -5.901   2.122  0.00  0.00    -0.273 NA
ATOM     20  H   UNL     1       1.419  -3.704   1.929  0.00  0.00    +0.151 HD
ATOM     21  H   UNL     1       1.069  -6.925  -2.731  0.00  0.00    +0.149 HD
ATOM     22  H   UNL     1      -0.392  -6.821   2.074  0.00  0.00    +0.189 HD
ATOM     23  H   UNL     1       1.076  -6.986  -0.052  0.00  0.00    +0.152 HD
ENDROOT
BRANCH   1  30
ATOM     24  C   UNL     1      -0.016   1.348   0.009  0.00  0.00    +0.001 A 
ATOM     25  C   UNL     1       1.166   2.101   0.002  0.00  0.00    +0.002 A 
ATOM     26  C   UNL     1       2.391   1.535  -0.013  0.00  0.00    +0.026 A 
ATOM     27  C   UNL     1       2.529   0.120  -0.022  0.00  0.00    +0.043 A 
ATOM     28  N   UNL     1       3.587  -0.654  -0.037  0.00  0.00    -0.380 N 
ATOM     29  C   UNL     1       3.143  -2.053  -0.041  0.00  0.00    +0.148 C 
ATOM     30  C   UNL     1       1.631  -2.008  -0.025  0.00  0.00    -0.004 C 
ATOM     31  C   UNL     1       1.295  -0.698  -0.014  0.00  0.00    +0.002 A 
ATOM     32  C   UNL     1       0.002  -0.004   0.002  0.00  0.00    +0.010 A 
ATOM     33  H   UNL     1       4.509  -0.353  -0.045  0.00  0.00    +0.160 HD
ENDBRANCH   1  30
TORSDOF 1
