REMARK  Name = ZINC06859092
REMARK  6 active torsions:
REMARK  status: ('A' for Active; 'I' for Inactive)
REMARK    1  A    between atoms: C_1  and  C_2
REMARK    2  A    between atoms: C_2  and  C_29
REMARK    3  A    between atoms: C_6  and  C_17
REMARK    4  A    between atoms: C_20  and  N_23
REMARK    5  A    between atoms: N_23  and  C_24
REMARK    6  A    between atoms: N_23  and  C_25
REMARK                            x       y       z     vdW  Elec       q    Type
REMARK                         _______ _______ _______ _____ _____    ______ ____
ROOT
ATOM      1  C   UNL     1      -0.013   1.523   0.018  0.00  0.00    +0.011 C 
ATOM      2  C   UNL     1       0.006  -0.007   0.010  0.00  0.00    -0.023 C 
ATOM      3  C   UNL     1      -1.428  -0.540   0.007  0.00  0.00    +0.058 C 
ATOM      4  C   UNL     1      -1.407  -2.048  -0.048  0.00  0.00    +0.017 C 
ATOM      5  C   UNL     1      -0.409  -2.707  -0.673  0.00  0.00    +0.024 C 
ATOM      6  C   UNL     1      -0.385  -4.212  -0.726  0.00  0.00    +0.090 C 
ATOM      7  C   UNL     1      -1.731  -4.791  -0.404  0.00  0.00    +0.042 A 
ATOM      8  C   UNL     1      -2.026  -6.122  -0.737  0.00  0.00    +0.126 A 
ATOM      9  N   UNL     1      -3.222  -6.623  -0.446  0.00  0.00    -0.208 NA
ATOM     10  C   UNL     1      -4.149  -5.881   0.154  0.00  0.00    +0.180 A 
ATOM     11  S   UNL     1      -5.675  -6.569   0.512  0.00  0.00    -0.011 S 
ATOM     12  N   UNL     1      -3.903  -4.603   0.496  0.00  0.00    -0.322 N 
ATOM     13  C   UNL     1      -2.687  -4.040   0.215  0.00  0.00    +0.110 A 
ATOM     14  N   UNL     1      -2.429  -2.734   0.552  0.00  0.00    -0.304 N 
ATOM     15  N   UNL     1      -1.081  -6.905  -1.364  0.00  0.00    -0.343 N 
ATOM     16  C   UNL     1       0.643  -2.009  -1.292  0.00  0.00    +0.162 C 
ATOM     17  O   UNL     1       1.513  -2.631  -1.869  0.00  0.00    -0.292 OA
ATOM     18  C   UNL     1       0.717  -0.507  -1.253  0.00  0.00    +0.086 C 
ATOM     19  C   UNL     1       0.743  -0.518   1.250  0.00  0.00    +0.011 C 
ATOM     20  H   UNL     1      -3.052  -2.240   1.312  0.00  0.00    +0.153 HD
ATOM     21  H   UNL     1      -0.092  -6.487  -1.604  0.00  0.00    +0.144 HD
ATOM     22  H   UNL     1      -1.315  -7.948  -1.624  0.00  0.00    +0.144 HD
ATOM     23  H   UNL     1      -4.679  -4.009   1.001  0.00  0.00    +0.169 HD
ENDROOT
BRANCH   6  24
ATOM     24  C   UNL     1       0.622  -4.723   0.271  0.00  0.00    -0.035 A 
ATOM     25  C   UNL     1       0.475  -4.426   1.614  0.00  0.00    +0.006 A 
ATOM     26  C   UNL     1       1.393  -4.897   2.531  0.00  0.00    +0.023 A 
ATOM     27  C   UNL     1       2.472  -5.661   2.103  0.00  0.00    +0.029 A 
ATOM     28  C   UNL     1       2.619  -5.953   0.753  0.00  0.00    +0.023 A 
ATOM     29  C   UNL     1       1.694  -5.483  -0.159  0.00  0.00    +0.006 A 
BRANCH  27  30
ATOM     30  N   UNL     1       3.406  -6.134   3.028  0.00  0.00    -0.336 N 
ATOM     31  C   UNL     1       4.543  -6.939   2.574  0.00  0.00    +0.129 C 
ATOM     32  C   UNL     1       3.248  -5.826   4.451  0.00  0.00    +0.129 C 
ENDBRANCH  27  30
ENDBRANCH   6  24
TORSDOF 2
