REMARK  Name = ZINC05433104
REMARK  7 active torsions:
REMARK  status: ('A' for Active; 'I' for Inactive)
REMARK    1  A    between atoms: C_1  and  O_2
REMARK    2  A    between atoms: O_2  and  C_3
REMARK    3  A    between atoms: C_6  and  C_11
REMARK    4  A    between atoms: C_8  and  O_9
REMARK    5  A    between atoms: O_9  and  C_10
REMARK    6  A    between atoms: C_14  and  O_28
REMARK    7  A    between atoms: N_16  and  C_23
REMARK                            x       y       z     vdW  Elec       q    Type
REMARK                         _______ _______ _______ _____ _____    ______ ____
ROOT
ATOM      1  C   UNL     1       2.507  -2.501  -4.386  0.00  0.00    +0.115 C 
ATOM      2  C   UNL     1       1.778  -2.118  -5.636  0.00  0.00    +0.072 A 
ATOM      3  C   UNL     1       0.418  -1.729  -5.620  0.00  0.00    +0.238 A 
ATOM      4  N   UNL     1       0.049  -1.451  -6.841  0.00  0.00    -0.131 NA
ATOM      5  N   UNL     1       1.144  -1.649  -7.681  0.00  0.00    -0.244 N 
ATOM      6  C   UNL     1       2.207  -2.065  -6.915  0.00  0.00    +0.132 A 
ATOM      7  N   UNL     1       3.425  -2.346  -7.486  0.00  0.00    -0.270 N 
ATOM      8  C   UNL     1       4.591  -2.700  -7.034  0.00  0.00    +0.228 C 
ATOM      9  O   UNL     1       5.468  -2.751  -7.870  0.00  0.00    -0.275 OA
ATOM     10  C   UNL     1       5.018  -3.051  -5.663  0.00  0.00    +0.166 C 
ATOM     11  S   UNL     1       4.239  -2.028  -4.405  0.00  0.00    -0.138 S 
ATOM     12  H   UNL     1       3.412  -2.259  -8.452  0.00  0.00    +0.156 HD
ENDROOT
BRANCH   1  16
ATOM     13  C   UNL     1       0.606  -0.608  -1.056  0.00  0.00    +0.162 A 
ATOM     14  C   UNL     1       1.173   0.159  -2.062  0.00  0.00    +0.050 A 
ATOM     15  C   UNL     1       1.787  -0.456  -3.137  0.00  0.00    +0.009 A 
ATOM     16  C   UNL     1       1.837  -1.836  -3.212  0.00  0.00    -0.026 A 
ATOM     17  C   UNL     1       1.273  -2.606  -2.212  0.00  0.00    +0.054 A 
ATOM     18  C   UNL     1       0.662  -1.996  -1.129  0.00  0.00    +0.162 A 
BRANCH  13  20
ATOM     19  C   UNL     1      -0.017   1.425   0.010  0.00  0.00    +0.277 C 
ATOM     20  O   UNL     1       0.002  -0.004   0.002  0.00  0.00    -0.491 OA
ENDBRANCH  13  20
BRANCH  18  21
ATOM     21  O   UNL     1       0.112  -2.753  -0.142  0.00  0.00    -0.491 OA
ATOM     22  C   UNL     1       0.206  -4.171  -0.283  0.00  0.00    +0.277 C 
ENDBRANCH  18  21
ENDBRANCH   1  16
BRANCH   5  23
ATOM     23  C   UNL     1       1.159  -1.446  -9.132  0.00  0.00    +0.109 C 
ATOM     24  C   UNL     1       0.746   0.001  -9.468  0.00  0.00    +0.027 C 
ATOM     25  C   UNL     1      -0.093  -0.134 -10.764  0.00  0.00    +0.002 C 
ATOM     26  C   UNL     1      -0.882  -1.446 -10.524  0.00  0.00    +0.002 C 
ATOM     27  C   UNL     1       0.124  -2.366  -9.803  0.00  0.00    +0.027 C 
ENDBRANCH   5  23
BRANCH   3  28
ATOM     28  O   UNL     1      -0.373  -1.656  -4.517  0.00  0.00    -0.491 OA
ATOM     29  H   UNL     1      -0.360  -0.794  -4.079  0.00  0.00    +0.294 HD
ENDBRANCH   3  28
TORSDOF 5
