REMARK  Name = ZINC04473450
REMARK  9 active torsions:
REMARK  status: ('A' for Active; 'I' for Inactive)
REMARK    1  A    between atoms: C_1  and  C_2
REMARK    2  A    between atoms: C_2  and  C_3
REMARK    3  A    between atoms: C_3  and  N_4
REMARK    4  A    between atoms: C_11  and  C_23
REMARK    5  A    between atoms: C_13  and  C_19
REMARK    6  A    between atoms: C_13  and  C_21
REMARK    7  A    between atoms: C_14  and  N_18
REMARK    8  A    between atoms: C_15  and  C_16
REMARK    9  A    between atoms: C_26  and  C_29
REMARK                            x       y       z     vdW  Elec       q    Type
REMARK                         _______ _______ _______ _____ _____    ______ ____
ROOT
ATOM      1  N   UNL     1      -0.818   1.704  -1.576  0.00  0.00    -0.298 NA
ATOM      2  C   UNL     1       0.040   1.136  -0.521  0.00  0.00    +0.112 C 
ATOM      3  C   UNL     1      -0.555   1.520   0.811  0.00  0.00    -0.007 C 
ATOM      4  C   UNL     1      -1.214   2.661   0.940  0.00  0.00    -0.026 C 
ATOM      5  C   UNL     1      -1.322   3.669  -0.169  0.00  0.00    +0.044 C 
ATOM      6  C   UNL     1      -0.810   3.168  -1.500  0.00  0.00    +0.093 C 
ATOM      7  C   UNL     1      -2.785   4.107  -0.249  0.00  0.00    +0.067 C 
ATOM      8  C   UNL     1      -3.166   4.806   1.057  0.00  0.00    +0.188 C 
ATOM      9  C   UNL     1      -2.798   3.983   2.255  0.00  0.00    +0.054 C 
ATOM     10  C   UNL     1      -1.873   2.990   2.225  0.00  0.00    +0.074 C 
ENDROOT
BRANCH   7  11
ATOM     11  C   UNL     1      -3.664   2.900  -0.450  0.00  0.00    -0.041 A 
ATOM     12  C   UNL     1      -3.924   2.443  -1.730  0.00  0.00    +0.004 A 
ATOM     13  C   UNL     1      -4.724   1.334  -1.919  0.00  0.00    +0.009 A 
ATOM     14  C   UNL     1      -5.278   0.681  -0.820  0.00  0.00    -0.018 A 
ATOM     15  C   UNL     1      -5.017   1.149   0.466  0.00  0.00    +0.009 A 
ATOM     16  C   UNL     1      -4.212   2.256   0.645  0.00  0.00    +0.004 A 
BRANCH  14  17
ATOM     17  C   UNL     1      -6.143  -0.508  -1.018  0.00  0.00    -0.018 A 
ATOM     18  C   UNL     1      -6.692  -1.164   0.081  0.00  0.00    +0.008 A 
ATOM     19  C   UNL     1      -7.501  -2.267  -0.109  0.00  0.00    +0.001 A 
ATOM     20  C   UNL     1      -7.757  -2.727  -1.388  0.00  0.00    +0.000 A 
ATOM     21  C   UNL     1      -7.209  -2.083  -2.483  0.00  0.00    +0.001 A 
ATOM     22  C   UNL     1      -6.404  -0.977  -2.304  0.00  0.00    +0.008 A 
ENDBRANCH  14  17
ENDBRANCH   7  11
BRANCH   9  23
ATOM     23  N   UNL     1      -3.426   4.247   3.439  0.00  0.00    -0.358 N 
ATOM     24  H   UNL     1      -3.178   3.660   4.336  0.00  0.00    +0.142 HD
ATOM     25  H   UNL     1      -4.181   5.045   3.495  0.00  0.00    +0.142 HD
ENDBRANCH   9  23
BRANCH  10  26
ATOM     26  C   UNL     1      -1.555   2.261   3.416  0.00  0.00    +0.101 C 
ATOM     27  N   UNL     1      -1.302   1.683   4.361  0.00  0.00    -0.191 NA
ENDBRANCH  10  26
BRANCH   8  28
ATOM     28  C   UNL     1      -2.468   6.100   1.131  0.00  0.00    +0.091 C 
ATOM     29  N   UNL     1      -1.930   7.098   1.187  0.00  0.00    -0.194 NA
ENDBRANCH   8  28
BRANCH   8  30
ATOM     30  C   UNL     1      -4.619   5.043   1.068  0.00  0.00    +0.091 C 
ATOM     31  N   UNL     1      -5.740   5.226   1.077  0.00  0.00    -0.194 NA
ENDBRANCH   8  30
BRANCH   1  32
ATOM     32  C   UNL     1      -0.392   1.244  -2.905  0.00  0.00    +0.084 C 
BRANCH  32  34
ATOM     33  C   UNL     1      -0.182  -0.744  -4.404  0.00  0.00    +0.005 C 
ATOM     34  C   UNL     1      -0.625  -0.264  -3.020  0.00  0.00    +0.012 C 
ENDBRANCH  32  34
ENDBRANCH   1  32
TORSDOF 8
