REMARK  Name = ZINC33123095
REMARK  9 active torsions:
REMARK  status: ('A' for Active; 'I' for Inactive)
REMARK    1  A    between atoms: C_1  and  C_2
REMARK    2  A    between atoms: C_5  and  C_21
REMARK    3  A    between atoms: C_7  and  S_8
REMARK    4  A    between atoms: S_8  and  N_11
REMARK    5  A    between atoms: N_11  and  C_12
REMARK    6  A    between atoms: C_13  and  C_20
REMARK    7  A    between atoms: C_15  and  C_19
REMARK    8  A    between atoms: C_17  and  C_18
REMARK    9  A    between atoms: C_22  and  C_33
REMARK                            x       y       z     vdW  Elec       q    Type
REMARK                         _______ _______ _______ _____ _____    ______ ____
ROOT
ATOM      1  C   UNL     1       2.466   2.654   1.146  0.00  0.00    +0.046 C 
ATOM      2  C   UNL     1       3.530   2.279   2.145  0.00  0.00    -0.024 A 
ATOM      3  C   UNL     1       3.498   2.815   3.420  0.00  0.00    +0.006 A 
ATOM      4  C   UNL     1       4.469   2.474   4.340  0.00  0.00    +0.009 A 
ATOM      5  C   UNL     1       5.484   1.588   3.981  0.00  0.00    -0.011 A 
ATOM      6  C   UNL     1       5.508   1.047   2.697  0.00  0.00    +0.037 A 
ATOM      7  C   UNL     1       4.535   1.399   1.784  0.00  0.00    +0.112 A 
ENDROOT
BRANCH   5   8
ATOM      8  C   UNL     1       6.530   1.218   4.965  0.00  0.00    +0.045 A 
ATOM      9  C   UNL     1       6.748  -0.062   5.506  0.00  0.00    +0.070 A 
ATOM     10  N   UNL     1       7.764   0.002   6.317  0.00  0.00    -0.167 NA
ATOM     11  N   UNL     1       8.277   1.314   6.313  0.00  0.00    -0.185 N 
ATOM     12  C   UNL     1       7.480   2.072   5.516  0.00  0.00    +0.139 A 
ATOM     13  N   UNL     1       7.472   3.436   5.306  0.00  0.00    -0.270 N 
ATOM     14  C   UNL     1       8.570   4.221   5.295  0.00  0.00    +0.219 C 
ATOM     15  O   UNL     1       8.461   5.415   5.116  0.00  0.00    -0.275 OA
ATOM     16  C   UNL     1       9.918   3.616   5.505  0.00  0.00    +0.105 C 
ATOM     17  C   UNL     1      10.038   2.979   6.865  0.00  0.00    +0.110 C 
ATOM     18  C   UNL     1       9.398   1.656   6.982  0.00  0.00    +0.250 C 
ATOM     19  O   UNL     1       9.902   0.837   7.713  0.00  0.00    -0.271 OA
ATOM     20  C   UNL     1       5.942  -1.298   5.200  0.00  0.00    +0.068 C 
ATOM     21  H   UNL     1       6.521   3.960   5.130  0.00  0.00    +0.156 HD
ENDBRANCH   5   8
BRANCH   7  22
ATOM     22  S   UNL     1       4.567   0.721   0.158  0.00  0.00    +0.073 S 
ATOM     23  O   UNL     1       5.686  -0.153   0.105  0.00  0.00    -0.150 OA
ATOM     24  O   UNL     1       4.409   1.812  -0.740  0.00  0.00    -0.150 OA
BRANCH  22  25
ATOM     25  N   UNL     1       3.219  -0.226  -0.005  0.00  0.00    -0.216 N 
ATOM     26  H   UNL     1       2.419   0.071  -0.699  0.00  0.00    +0.174 HD
BRANCH  25  27
ATOM     27  C   UNL     1       3.097  -1.401   0.739  0.00  0.00    +0.054 A 
ATOM     28  C   UNL     1       2.139  -1.495   1.741  0.00  0.00    -0.028 A 
ATOM     29  C   UNL     1       2.021  -2.659   2.474  0.00  0.00    +0.008 A 
ATOM     30  C   UNL     1       2.855  -3.731   2.213  0.00  0.00    -0.050 A 
ATOM     31  C   UNL     1       3.809  -3.641   1.216  0.00  0.00    +0.008 A 
ATOM     32  C   UNL     1       3.933  -2.480   0.479  0.00  0.00    -0.028 A 
ATOM     33  C   UNL     1       4.973  -2.383  -0.607  0.00  0.00    +0.046 C 
ATOM     34  C   UNL     1       2.727  -4.997   3.019  0.00  0.00    +0.044 C 
ATOM     35  C   UNL     1       1.230  -0.328   2.027  0.00  0.00    +0.046 C 
ENDBRANCH  25  27
ENDBRANCH  22  25
ENDBRANCH   7  22
TORSDOF 4
