REMARK  Name = ZINC18219556
REMARK  2 active torsions:
REMARK  status: ('A' for Active; 'I' for Inactive)
REMARK    1  A    between atoms: C_4  and  N_7
REMARK    2  A    between atoms: C_12  and  C_30
REMARK                            x       y       z     vdW  Elec       q    Type
REMARK                         _______ _______ _______ _____ _____    ______ ____
ROOT
ATOM      1  N   UNL     1       3.624  -0.652  -0.037  0.00  0.00    -0.210 N 
ATOM      2  C   UNL     1       4.801  -0.025  -0.139  0.00  0.00    +0.233 C 
ATOM      3  O   UNL     1       4.949   1.175  -0.227  0.00  0.00    -0.274 OA
ATOM      4  C   UNL     1       5.918  -1.044  -0.126  0.00  0.00    +0.125 C 
ATOM      5  C   UNL     1       6.571  -1.096  -1.524  0.00  0.00    +0.163 C 
ATOM      6  O   UNL     1       6.686  -2.503  -1.833  0.00  0.00    -0.348 OA
ATOM      7  C   UNL     1       5.469  -3.095  -1.352  0.00  0.00    +0.206 C 
ATOM      8  C   UNL     1       5.163  -2.398   0.003  0.00  0.00    +0.138 C 
ATOM      9  C   UNL     1       3.710  -1.984   0.052  0.00  0.00    +0.234 C 
ATOM     10  O   UNL     1       2.769  -2.742   0.155  0.00  0.00    -0.274 OA
ATOM     11  C   UNL     1       4.347  -2.901  -2.333  0.00  0.00    +0.204 C 
ATOM     12  O   UNL     1       3.920  -1.842  -2.740  0.00  0.00    -0.288 OA
ATOM     13  C   UNL     1       3.865  -4.245  -2.707  0.00  0.00    +0.031 A 
ATOM     14  C   UNL     1       2.849  -4.637  -3.581  0.00  0.00    +0.012 A 
ATOM     15  C   UNL     1       2.578  -5.979  -3.769  0.00  0.00    +0.001 A 
ATOM     16  C   UNL     1       3.307  -6.943  -3.095  0.00  0.00    +0.001 A 
ATOM     17  C   UNL     1       4.317  -6.576  -2.227  0.00  0.00    +0.012 A 
ATOM     18  C   UNL     1       4.609  -5.226  -2.023  0.00  0.00    +0.031 A 
ATOM     19  C   UNL     1       5.622  -4.578  -1.167  0.00  0.00    +0.204 C 
ATOM     20  O   UNL     1       6.424  -5.137  -0.450  0.00  0.00    -0.288 OA
ENDROOT
BRANCH   5  21
ATOM     21  C   UNL     1       7.934  -0.453  -1.489  0.00  0.00    -0.018 A 
ATOM     22  C   UNL     1       9.037  -1.194  -1.109  0.00  0.00    +0.009 A 
ATOM     23  C   UNL     1      10.287  -0.605  -1.077  0.00  0.00    +0.039 A 
ATOM     24  C   UNL     1      10.434   0.727  -1.426  0.00  0.00    +0.123 A 
ATOM     25  C   UNL     1       9.329   1.467  -1.807  0.00  0.00    +0.039 A 
ATOM     26  C   UNL     1       8.080   0.875  -1.843  0.00  0.00    +0.009 A 
ATOM     27  F   UNL     1      11.656   1.303  -1.395  0.00  0.00    -0.205 F 
ENDBRANCH   5  21
BRANCH   1  31
ATOM     28  C   UNL     1      -0.017   1.377   0.011  0.00  0.00    +0.000 A 
ATOM     29  C   UNL     1       0.752   1.368  -1.138  0.00  0.00    +0.002 A 
ATOM     30  C   UNL     1       1.959   0.697  -1.157  0.00  0.00    +0.024 A 
ATOM     31  C   UNL     1       2.399   0.031  -0.021  0.00  0.00    +0.044 A 
ATOM     32  C   UNL     1       1.625   0.042   1.131  0.00  0.00    +0.024 A 
ATOM     33  C   UNL     1       0.418   0.715   1.143  0.00  0.00    +0.002 A 
ENDBRANCH   1  31
TORSDOF 2
