REMARK  Name = ZINC06500941
REMARK  4 active torsions:
REMARK  status: ('A' for Active; 'I' for Inactive)
REMARK    1  A    between atoms: C_1  and  C_2
REMARK    2  A    between atoms: C_4  and  N_27
REMARK    3  A    between atoms: C_7  and  N_8
REMARK    4  A    between atoms: C_19  and  C_20
REMARK                            x       y       z     vdW  Elec       q    Type
REMARK                         _______ _______ _______ _____ _____    ______ ____
ROOT
ATOM      1  N   UNL     1       0.026  -0.013   2.418  0.00  0.00    -0.204 N 
ATOM      2  C   UNL     1      -1.092   0.335   3.080  0.00  0.00    +0.258 C 
ATOM      3  O   UNL     1      -2.223   0.219   2.643  0.00  0.00    -0.269 OA
ATOM      4  C   UNL     1      -0.773   0.846   4.338  0.00  0.00    +0.081 C 
ATOM      5  H   UNL     1       0.215   1.831   7.170  0.00  0.00    +0.194 HD
ATOM      6  C   UNL     1       0.703   1.241   4.196  0.00  0.00    +0.272 C 
ATOM      7  C   UNL     1       1.152   0.371   3.059  0.00  0.00    +0.263 C 
ATOM      8  O   UNL     1       2.293   0.075   2.772  0.00  0.00    -0.271 OA
ATOM      9  O   UNL     1       1.191   0.867   5.493  0.00  0.00    -0.256 OA
ATOM     10  N   UNL     1       0.123   1.384   6.314  0.00  0.00    -0.264 N 
ATOM     11  C   UNL     1      -1.060   1.117   5.640  0.00  0.00    +0.080 C 
ENDROOT
BRANCH   1  18
ATOM     12  C   UNL     1      -0.018   1.503   0.010  0.00  0.00    +0.046 C 
ATOM     13  C   UNL     1       0.002  -0.004   0.002  0.00  0.00    -0.026 A 
ATOM     14  C   UNL     1       0.006  -0.689  -1.198  0.00  0.00    +0.038 A 
ATOM     15  C   UNL     1       0.024  -2.071  -1.206  0.00  0.00    +0.127 A 
ATOM     16  C   UNL     1       0.039  -2.773  -0.014  0.00  0.00    +0.034 A 
ATOM     17  C   UNL     1       0.035  -2.094   1.188  0.00  0.00    +0.026 A 
ATOM     18  C   UNL     1       0.023  -0.705   1.200  0.00  0.00    +0.047 A 
BRANCH  15  19
ATOM     19  N   UNL     1       0.028  -2.802  -2.493  0.00  0.00    +0.056 N 
ATOM     20  O   UNL     1       0.015  -2.190  -3.536  0.00  0.00    -0.126 OA
ATOM     21  O   UNL     1       0.045  -4.011  -2.502  0.00  0.00    -0.126 OA
ENDBRANCH  15  19
ENDBRANCH   1  18
BRANCH  11  22
ATOM     22  C   UNL     1      -2.409   1.125   6.239  0.00  0.00    +0.001 A 
ATOM     23  C   UNL     1      -3.526   0.832   5.453  0.00  0.00    +0.013 A 
ATOM     24  C   UNL     1      -4.784   0.842   6.017  0.00  0.00    +0.039 A 
ATOM     25  C   UNL     1      -4.941   1.141   7.362  0.00  0.00    +0.123 A 
ATOM     26  C   UNL     1      -3.836   1.433   8.146  0.00  0.00    +0.039 A 
ATOM     27  C   UNL     1      -2.573   1.420   7.594  0.00  0.00    +0.013 A 
ATOM     28  F   UNL     1      -6.176   1.149   7.909  0.00  0.00    -0.205 F 
ENDBRANCH  11  22
TORSDOF 3
