REMARK  Name = ZINC00972626
REMARK  6 active torsions:
REMARK  status: ('A' for Active; 'I' for Inactive)
REMARK    1  A    between atoms: C_6  and  N_7
REMARK    2  A    between atoms: N_10  and  C_11
REMARK    3  A    between atoms: C_11  and  C_12
REMARK    4  A    between atoms: C_12  and  C_13
REMARK    5  A    between atoms: C_13  and  N_14
REMARK    6  A    between atoms: C_21  and  N_23
REMARK                            x       y       z     vdW  Elec       q    Type
REMARK                         _______ _______ _______ _____ _____    ______ ____
ROOT
ATOM      1  C   UNL     1       4.245   3.738   1.417  0.00  0.00    +0.043 C 
ENDROOT
BRANCH   1   2
ATOM      2  C   UNL     1       4.181   3.222  -0.022  0.00  0.00    +0.125 C 
BRANCH   2  11
ATOM      3  C   UNL     1      -0.017   1.389   0.010  0.00  0.00    +0.025 A 
ATOM      4  C   UNL     1       1.162   2.102   0.002  0.00  0.00    +0.030 A 
ATOM      5  C   UNL     1       2.377   1.432  -0.013  0.00  0.00    +0.069 A 
ATOM      6  C   UNL     1       2.405   0.027  -0.021  0.00  0.00    +0.091 A 
ATOM      7  C   UNL     1       1.204  -0.686  -0.013  0.00  0.00    +0.052 A 
ATOM      8  C   UNL     1       0.002  -0.004   0.002  0.00  0.00    +0.027 A 
ATOM      9  N   UNL     1       3.712  -0.343  -0.035  0.00  0.00    -0.236 NA
ATOM     10  C   UNL     1       4.467   0.717  -0.037  0.00  0.00    +0.200 A 
ATOM     11  N   UNL     1       3.699   1.839  -0.024  0.00  0.00    -0.330 N 
BRANCH   8  12
ATOM     12  N   UNL     1      -1.202  -0.716   0.010  0.00  0.00    -0.358 N 
ATOM     13  H   UNL     1      -2.047  -0.240   0.021  0.00  0.00    +0.142 HD
ATOM     14  H   UNL     1      -1.192  -1.686   0.005  0.00  0.00    +0.142 HD
ENDBRANCH   8  12
ENDBRANCH   2  11
ENDBRANCH   1   2
BRANCH   1  15
ATOM     15  C   UNL     1       4.749   5.182   1.420  0.00  0.00    +0.125 C 
BRANCH  15  16
ATOM     16  N   UNL     1       4.809   5.676   2.798  0.00  0.00    -0.330 N 
ATOM     17  C   UNL     1       3.845   6.386   3.443  0.00  0.00    +0.200 A 
ATOM     18  N   UNL     1       4.228   6.662   4.655  0.00  0.00    -0.236 NA
ATOM     19  C   UNL     1       5.466   6.147   4.872  0.00  0.00    +0.091 A 
ATOM     20  C   UNL     1       5.855   5.502   3.686  0.00  0.00    +0.069 A 
ATOM     21  C   UNL     1       7.089   4.871   3.610  0.00  0.00    +0.030 A 
ATOM     22  C   UNL     1       7.931   4.873   4.700  0.00  0.00    +0.025 A 
ATOM     23  C   UNL     1       7.552   5.508   5.882  0.00  0.00    +0.027 A 
ATOM     24  C   UNL     1       6.330   6.149   5.970  0.00  0.00    +0.052 A 
BRANCH  23  25
ATOM     25  N   UNL     1       8.416   5.503   6.982  0.00  0.00    -0.358 N 
ATOM     26  H   UNL     1       9.277   5.059   6.921  0.00  0.00    +0.142 HD
ATOM     27  H   UNL     1       8.155   5.944   7.806  0.00  0.00    +0.142 HD
ENDBRANCH  23  25
ENDBRANCH  15  16
ENDBRANCH   1  15
TORSDOF 6
