REMARK  Name = ZINC35763496
REMARK  4 active torsions:
REMARK  status: ('A' for Active; 'I' for Inactive)
REMARK    1  A    between atoms: C_2  and  N_19
REMARK    2  A    between atoms: C_6  and  S_7
REMARK    3  A    between atoms: S_7  and  N_10
REMARK    4  A    between atoms: N_10  and  C_11
REMARK                            x       y       z     vdW  Elec       q    Type
REMARK                         _______ _______ _______ _____ _____    ______ ____
ROOT
ATOM      1  C   UNL     1      -0.017   1.377   0.010  0.00  0.00    +0.057 A 
ATOM      2  C   UNL     1       1.176   2.087   0.002  0.00  0.00    +0.062 A 
ATOM      3  C   UNL     1       2.388   1.406  -0.013  0.00  0.00    +0.147 A 
ATOM      4  C   UNL     1       2.401   0.023  -0.021  0.00  0.00    +0.080 A 
ATOM      5  C   UNL     1       1.209  -0.682  -0.014  0.00  0.00    +0.153 A 
ATOM      6  C   UNL     1       0.002  -0.004   0.002  0.00  0.00    +0.145 A 
ATOM      7  F   UNL     1       1.224  -2.033  -0.021  0.00  0.00    -0.203 F 
ATOM      8  F   UNL     1       3.551   2.093  -0.021  0.00  0.00    -0.203 F 
ENDROOT
BRANCH   6   9
ATOM      9  S   UNL     1      -1.512  -0.905   0.012  0.00  0.00    +0.075 S 
ATOM     10  O   UNL     1      -1.394  -1.888   1.031  0.00  0.00    -0.150 OA
ATOM     11  O   UNL     1      -2.558   0.058  -0.000  0.00  0.00    -0.150 OA
BRANCH   9  12
ATOM     12  N   UNL     1      -1.605  -1.722  -1.426  0.00  0.00    -0.213 N 
ATOM     13  H   UNL     1      -2.301  -1.502  -2.064  0.00  0.00    +0.174 HD
BRANCH  12  14
ATOM     14  C   UNL     1      -0.674  -2.736  -1.721  0.00  0.00    +0.085 A 
ATOM     15  C   UNL     1      -0.021  -2.902  -2.898  0.00  0.00    +0.129 A 
ATOM     16  N   UNL     1       0.784  -3.991  -2.770  0.00  0.00    -0.283 N 
ATOM     17  H   UNL     1       1.371  -4.351  -3.454  0.00  0.00    +0.188 HD
ATOM     18  N   UNL     1       0.615  -4.501  -1.477  0.00  0.00    -0.180 NA
ATOM     19  C   UNL     1      -0.252  -3.748  -0.848  0.00  0.00    +0.158 A 
ENDBRANCH  12  14
ENDBRANCH   9  12
ENDBRANCH   6   9
BRANCH   2  20
ATOM     20  N   UNL     1       1.159   3.487   0.009  0.00  0.00    -0.356 N 
ATOM     21  H   UNL     1       0.313   3.962   0.020  0.00  0.00    +0.142 HD
ATOM     22  H   UNL     1       1.993   3.982   0.004  0.00  0.00    +0.142 HD
ENDBRANCH   2  20
TORSDOF 4
