REMARK  Name = ZINC02470579
REMARK  6 active torsions:
REMARK  status: ('A' for Active; 'I' for Inactive)
REMARK    1  A    between atoms: C_1  and  C_2
REMARK    2  A    between atoms: N_7  and  C_8
REMARK    3  A    between atoms: C_8  and  C_10
REMARK    4  A    between atoms: C_8  and  C_16
REMARK    5  A    between atoms: C_22  and  C_27
REMARK    6  A    between atoms: C_25  and  O_26
REMARK                            x       y       z     vdW  Elec       q    Type
REMARK                         _______ _______ _______ _____ _____    ______ ____
ROOT
ATOM      1  C   UNL     1       1.443   2.288   4.772  0.00  0.00    +0.137 C 
ENDROOT
BRANCH   1   2
ATOM      2  C   UNL     1       1.875   2.138   6.208  0.00  0.00    +0.021 A 
ATOM      3  C   UNL     1       1.008   2.521   7.228  0.00  0.00    +0.010 A 
ATOM      4  C   UNL     1       1.368   2.399   8.536  0.00  0.00    +0.010 A 
ATOM      5  C   UNL     1       2.631   1.879   8.865  0.00  0.00    +0.004 A 
ATOM      6  C   UNL     1       3.038   1.737  10.205  0.00  0.00    +0.012 A 
ATOM      7  C   UNL     1       4.280   1.224  10.450  0.00  0.00    +0.023 A 
ATOM      8  C   UNL     1       5.103   0.859   9.387  0.00  0.00    +0.039 A 
ATOM      9  N   UNL     1       4.720   0.993   8.140  0.00  0.00    -0.248 NA
ATOM     10  C   UNL     1       3.518   1.488   7.832  0.00  0.00    +0.113 A 
ATOM     11  C   UNL     1       3.108   1.624   6.489  0.00  0.00    +0.148 A 
ATOM     12  C   UNL     1       6.469   0.294   9.678  0.00  0.00    +0.065 C 
BRANCH  11  13
ATOM     13  O   UNL     1       3.938   1.250   5.481  0.00  0.00    -0.504 OA
ATOM     14  H   UNL     1       4.522   1.956   5.170  0.00  0.00    +0.292 HD
ENDBRANCH  11  13
ENDBRANCH   1   2
BRANCH   1  21
ATOM     15  C   UNL     1       0.351   0.766   0.002  0.00  0.00    +0.044 C 
ATOM     16  C   UNL     1      -0.462   1.113   1.223  0.00  0.00    -0.046 A 
ATOM     17  C   UNL     1      -1.849   1.056   1.192  0.00  0.00    +0.021 A 
ATOM     18  C   UNL     1      -2.564   1.375   2.329  0.00  0.00    +0.084 A 
ATOM     19  C   UNL     1      -0.626   1.815   3.503  0.00  0.00    +0.097 A 
ATOM     20  C   UNL     1       0.157   1.502   2.397  0.00  0.00    +0.045 A 
ATOM     21  N   UNL     1      -0.017   2.207   4.690  0.00  0.00    -0.320 N 
ATOM     22  H   UNL     1      -0.559   2.426   5.464  0.00  0.00    +0.148 HD
ATOM     23  N   UNL     1      -1.989   1.761   3.500  0.00  0.00    -0.350 N 
ATOM     24  H   UNL     1      -2.547   1.997   4.329  0.00  0.00    +0.166 HD
ENDBRANCH   1  21
BRANCH   1  25
ATOM     25  C   UNL     1       1.902   3.624   4.246  0.00  0.00    -0.005 A 
ATOM     26  C   UNL     1       3.045   3.716   3.467  0.00  0.00    +0.009 A 
ATOM     27  C   UNL     1       3.427   4.965   3.001  0.00  0.00    +0.020 A 
ATOM     28  C   UNL     1       2.667   6.070   3.336  0.00  0.00    +0.111 A 
ATOM     29  N   UNL     1       1.588   5.945   4.084  0.00  0.00    -0.263 NA
ATOM     30  C   UNL     1       1.192   4.772   4.539  0.00  0.00    +0.116 A 
ENDBRANCH   1  25
TORSDOF 4
