REMARK  Name = ZINC38547544
REMARK  9 active torsions:
REMARK  status: ('A' for Active; 'I' for Inactive)
REMARK    1  A    between atoms: C_1  and  C_2
REMARK    2  A    between atoms: C_6  and  N_8
REMARK    3  A    between atoms: N_8  and  C_9
REMARK    4  A    between atoms: C_9  and  C_11
REMARK    5  A    between atoms: C_9  and  C_17
REMARK    6  A    between atoms: C_18  and  C_31
REMARK    7  A    between atoms: C_19  and  C_30
REMARK    8  A    between atoms: C_21  and  N_22
REMARK    9  A    between atoms: C_23  and  C_25
REMARK                            x       y       z     vdW  Elec       q    Type
REMARK                         _______ _______ _______ _____ _____    ______ ____
ROOT
ATOM      1  C   UNL     1       0.049  -4.117   2.476  0.00  0.00    +0.135 C 
ENDROOT
BRANCH   1   2
ATOM      2  C   UNL     1       0.766  -4.665   3.682  0.00  0.00    +0.009 A 
ATOM      3  C   UNL     1       1.767  -5.608   3.538  0.00  0.00    -0.033 A 
ATOM      4  C   UNL     1       2.392  -6.080   4.644  0.00  0.00    -0.008 A 
ATOM      5  S   UNL     1       1.566  -5.185   5.949  0.00  0.00    -0.078 S 
ATOM      6  C   UNL     1       0.444  -4.236   4.935  0.00  0.00    +0.078 A 
ATOM      7  C   UNL     1       3.499  -7.097   4.745  0.00  0.00    +0.052 C 
ATOM      8  C   UNL     1       2.157  -6.105   2.170  0.00  0.00    +0.045 C 
BRANCH   6   9
ATOM      9  N   UNL     1      -0.515  -3.300   5.324  0.00  0.00    -0.273 N 
ATOM     10  C   UNL     1      -0.760  -3.090   6.633  0.00  0.00    +0.284 C 
ATOM     11  O   UNL     1      -0.145  -3.717   7.476  0.00  0.00    -0.266 OA
ATOM     12  H   UNL     1      -1.005  -2.800   4.653  0.00  0.00    +0.156 HD
BRANCH  10  13
ATOM     13  C   UNL     1      -1.768  -2.106   7.042  0.00  0.00    +0.189 A 
ATOM     14  C   UNL     1      -2.109  -1.794   8.327  0.00  0.00    +0.054 A 
ATOM     15  C   UNL     1      -3.107  -0.810   8.252  0.00  0.00    +0.042 A 
ATOM     16  C   UNL     1      -3.328  -0.568   6.941  0.00  0.00    +0.196 A 
ATOM     17  O   UNL     1      -2.516  -1.347   6.215  0.00  0.00    -0.458 OA
ENDBRANCH  10  13
ENDBRANCH   6   9
ENDBRANCH   1   2
BRANCH   1  18
ATOM     18  C   UNL     1      -1.341  -4.698   2.411  0.00  0.00    -0.023 A 
ATOM     19  C   UNL     1      -2.388  -4.057   3.046  0.00  0.00    +0.006 A 
ATOM     20  C   UNL     1      -3.662  -4.590   2.986  0.00  0.00    +0.000 A 
ATOM     21  C   UNL     1      -3.889  -5.763   2.292  0.00  0.00    +0.000 A 
ATOM     22  C   UNL     1      -2.842  -6.403   1.656  0.00  0.00    +0.000 A 
ATOM     23  C   UNL     1      -1.569  -5.868   1.712  0.00  0.00    +0.006 A 
ENDBRANCH   1  18
BRANCH   1  24
ATOM     24  N   UNL     1      -0.036  -2.658   2.579  0.00  0.00    -0.320 N 
ATOM     25  H   UNL     1       0.090  -2.225   3.437  0.00  0.00    +0.148 HD
BRANCH  24  31
ATOM     26  C   UNL     1      -0.696   1.679   0.663  0.00  0.00    +0.063 C 
ATOM     27  C   UNL     1      -0.619   0.183   0.496  0.00  0.00    +0.014 A 
ATOM     28  C   UNL     1      -0.808  -0.374  -0.753  0.00  0.00    +0.021 A 
ATOM     29  C   UNL     1      -0.737  -1.753  -0.900  0.00  0.00    +0.005 A 
ATOM     30  C   UNL     1      -0.477  -2.524   0.218  0.00  0.00    +0.041 A 
ATOM     31  C   UNL     1      -0.297  -1.896   1.446  0.00  0.00    +0.097 A 
ATOM     32  N   UNL     1      -0.368  -0.577   1.545  0.00  0.00    -0.347 N 
ATOM     33  H   UNL     1      -0.235  -0.160   2.411  0.00  0.00    +0.167 HD
ENDBRANCH  24  31
ENDBRANCH   1  24
TORSDOF 6
