REMARK  Name = ZINC12321498
REMARK  8 active torsions:
REMARK  status: ('A' for Active; 'I' for Inactive)
REMARK    1  A    between atoms: C_1  and  O_2
REMARK    2  A    between atoms: O_2  and  C_3
REMARK    3  A    between atoms: C_5  and  C_13
REMARK    4  A    between atoms: C_6  and  O_11
REMARK    5  A    between atoms: C_8  and  O_9
REMARK    6  A    between atoms: O_9  and  C_10
REMARK    7  A    between atoms: O_11  and  C_12
REMARK    8  A    between atoms: C_18  and  C_23
REMARK                            x       y       z     vdW  Elec       q    Type
REMARK                         _______ _______ _______ _____ _____    ______ ____
ROOT
ATOM      1  C   UNL     1      -1.123   7.128   1.863  0.00  0.00    +0.141 C 
ATOM      2  C   UNL     1       0.202   7.649   2.378  0.00  0.00    +0.037 C 
ATOM      3  C   UNL     1       0.537   8.113   3.591  0.00  0.00    +0.019 C 
ATOM      4  C   UNL     1       1.959   8.553   3.900  0.00  0.00    +0.060 C 
ATOM      5  C   UNL     1       2.951   7.729   3.081  0.00  0.00    +0.039 C 
ATOM      6  C   UNL     1       2.628   7.973   1.601  0.00  0.00    +0.088 C 
ATOM      7  C   UNL     1       1.197   7.612   1.360  0.00  0.00    +0.163 C 
ATOM      8  O   UNL     1       0.867   7.269   0.242  0.00  0.00    -0.292 OA
ATOM      9  N   UNL     1      -0.321   8.253   4.643  0.00  0.00    -0.297 N 
ATOM     10  C   UNL     1      -1.264   7.292   4.980  0.00  0.00    +0.208 A 
ATOM     11  C   UNL     1      -2.282   6.906   4.013  0.00  0.00    +0.205 A 
ATOM     12  N   UNL     1      -3.102   6.079   4.582  0.00  0.00    -0.032 NA
ATOM     13  O   UNL     1      -2.629   5.853   5.902  0.00  0.00    -0.239 OA
ATOM     14  N   UNL     1      -1.463   6.645   6.082  0.00  0.00    -0.032 NA
ATOM     15  N   UNL     1      -2.273   7.394   2.708  0.00  0.00    -0.312 N 
ATOM     16  H   UNL     1      -0.271   9.061   5.178  0.00  0.00    +0.153 HD
ATOM     17  H   UNL     1      -3.024   7.906   2.369  0.00  0.00    +0.149 HD
ENDROOT
BRANCH   1  20
ATOM     18  C   UNL     1       0.054   3.556   2.229  0.00  0.00    +0.162 A 
ATOM     19  C   UNL     1      -0.052   4.928   2.389  0.00  0.00    +0.058 A 
ATOM     20  C   UNL     1      -1.006   5.636   1.682  0.00  0.00    +0.023 A 
ATOM     21  C   UNL     1      -1.855   4.975   0.806  0.00  0.00    +0.129 A 
ATOM     22  C   UNL     1      -1.748   3.603   0.639  0.00  0.00    +0.095 A 
ATOM     23  C   UNL     1      -0.793   2.892   1.347  0.00  0.00    +0.165 A 
BRANCH  18  25
ATOM     24  C   UNL     1       1.825   3.606   3.817  0.00  0.00    +0.277 C 
ATOM     25  O   UNL     1       0.990   2.859   2.930  0.00  0.00    -0.491 OA
ENDBRANCH  18  25
BRANCH  23  26
ATOM     26  O   UNL     1      -0.686   1.546   1.184  0.00  0.00    -0.491 OA
ATOM     27  C   UNL     1      -1.592   0.930   0.267  0.00  0.00    +0.277 C 
ENDBRANCH  23  26
BRANCH  21  28
ATOM     28  O   UNL     1      -2.792   5.674   0.112  0.00  0.00    -0.495 OA
ATOM     29  C   UNL     1      -3.632   4.930  -0.773  0.00  0.00    +0.277 C 
ENDBRANCH  21  28
ENDBRANCH   1  20
BRANCH   5  30
ATOM     30  C   UNL     1       4.359   8.173   3.381  0.00  0.00    -0.006 A 
ATOM     31  C   UNL     1       5.391   7.455   3.888  0.00  0.00    +0.011 A 
ATOM     32  C   UNL     1       6.610   8.078   4.081  0.00  0.00    +0.008 A 
ATOM     33  C   UNL     1       6.737   9.388   3.759  0.00  0.00    +0.045 A 
ATOM     34  S   UNL     1       5.104   9.780   3.155  0.00  0.00    -0.101 S 
ENDBRANCH   5  30
TORSDOF 5
