REMARK  Name = ZINC08190477
REMARK  6 active torsions:
REMARK  status: ('A' for Active; 'I' for Inactive)
REMARK    1  A    between atoms: C_7  and  S_11
REMARK    2  A    between atoms: S_11  and  C_12
REMARK    3  A    between atoms: C_12  and  C_13
REMARK    4  A    between atoms: N_15  and  C_16
REMARK    5  A    between atoms: C_19  and  N_24
REMARK    6  A    between atoms: C_21  and  C_22
REMARK                            x       y       z     vdW  Elec       q    Type
REMARK                         _______ _______ _______ _____ _____    ______ ____
ROOT
ATOM      1  C   UNL     1       3.505  -4.087  -0.051  0.00  0.00    +0.227 C 
ATOM      2  O   UNL     1       2.618  -4.914  -0.054  0.00  0.00    -0.275 OA
ATOM      3  N   UNL     1       4.794  -4.482  -0.068  0.00  0.00    -0.284 N 
ATOM      4  H   UNL     1       5.502  -3.823  -0.147  0.00  0.00    +0.155 HD
ENDROOT
BRANCH   3   5
ATOM      5  C   UNL     1       5.109  -5.836   0.026  0.00  0.00    +0.051 A 
ATOM      6  C   UNL     1       4.226  -6.717   0.635  0.00  0.00    +0.027 A 
ATOM      7  C   UNL     1       4.540  -8.059   0.727  0.00  0.00    +0.034 A 
ATOM      8  C   UNL     1       5.736  -8.536   0.214  0.00  0.00    +0.128 A 
ATOM      9  C   UNL     1       6.625  -7.676  -0.394  0.00  0.00    +0.053 A 
ATOM     10  C   UNL     1       6.319  -6.316  -0.498  0.00  0.00    +0.075 A 
BRANCH   8  11
ATOM     11  N   UNL     1       6.059  -9.976   0.318  0.00  0.00    +0.056 N 
ATOM     12  O   UNL     1       5.275 -10.739   0.854  0.00  0.00    -0.126 OA
ATOM     13  O   UNL     1       7.109 -10.399  -0.131  0.00  0.00    -0.126 OA
ENDBRANCH   8  11
BRANCH  10  14
ATOM     14  C   UNL     1       7.235  -5.418  -1.134  0.00  0.00    +0.101 C 
ATOM     15  N   UNL     1       7.962  -4.706  -1.638  0.00  0.00    -0.191 NA
ENDBRANCH  10  14
ENDBRANCH   3   5
BRANCH   1  16
ATOM     16  C   UNL     1       3.167  -2.619  -0.028  0.00  0.00    +0.171 C 
BRANCH  16  17
ATOM     17  S   UNL     1       1.369  -2.414  -0.008  0.00  0.00    -0.096 S 
BRANCH  17  24
ATOM     18  C   UNL     1      -2.383  -0.030   0.061  0.00  0.00    +0.001 A 
ATOM     19  C   UNL     1      -2.404   1.361   0.081  0.00  0.00    +0.002 A 
ATOM     20  C   UNL     1      -1.246   2.082   0.084  0.00  0.00    +0.028 A 
ATOM     21  C   UNL     1      -0.015   1.413   0.057  0.00  0.00    +0.075 A 
ATOM     22  C   UNL     1       0.003  -0.003   0.038  0.00  0.00    +0.032 A 
ATOM     23  C   UNL     1      -1.202  -0.713   0.040  0.00  0.00    +0.012 A 
ATOM     24  C   UNL     1       1.261  -0.656   0.017  0.00  0.00    +0.108 A 
ATOM     25  N   UNL     1       2.356   0.095   0.017  0.00  0.00    -0.229 NA
ATOM     26  C   UNL     1       2.288   1.416   0.036  0.00  0.00    +0.223 A 
ATOM     27  N   UNL     1       1.152   2.073   0.055  0.00  0.00    -0.235 NA
ENDBRANCH  17  24
ENDBRANCH  16  17
ENDBRANCH   1  16
TORSDOF 6
