REMARK  Name = ZINC39072634
REMARK  2 active torsions:
REMARK  status: ('A' for Active; 'I' for Inactive)
REMARK    1  A    between atoms: C_1  and  C_2
REMARK    2  A    between atoms: C_2  and  C_4
REMARK                            x       y       z     vdW  Elec       q    Type
REMARK                         _______ _______ _______ _____ _____    ______ ____
ROOT
ATOM      1  C   UNL     1      -0.000  -0.750  -1.307  0.00  0.00    +0.060 C 
ATOM      2  C   UNL     1      -1.450  -0.968  -1.789  0.00  0.00    +0.016 C 
ATOM      3  C   UNL     1      -1.432  -2.380  -2.428  0.00  0.00    +0.065 C 
ATOM      4  C   UNL     1      -0.477  -3.160  -1.500  0.00  0.00    +0.171 C 
ATOM      5  C   UNL     1       0.616  -2.149  -1.118  0.00  0.00    +0.076 C 
ATOM      6  O   UNL     1      -1.176  -3.612  -0.337  0.00  0.00    -0.346 OA
ATOM      7  C   UNL     1      -1.517  -4.991  -0.627  0.00  0.00    +0.191 C 
ATOM      8  C   UNL     1      -0.282  -5.458  -1.439  0.00  0.00    +0.191 C 
ATOM      9  O   UNL     1       0.083  -4.279  -2.187  0.00  0.00    -0.346 OA
ENDROOT
BRANCH   1  11
ATOM     10  C   UNL     1      -0.018   1.503   0.010  0.00  0.00    +0.086 C 
ATOM     11  C   UNL     1       0.002  -0.004   0.002  0.00  0.00    +0.134 C 
ATOM     12  O   UNL     1       0.020  -0.613   1.044  0.00  0.00    -0.297 OA
ENDBRANCH   1  11
TORSDOF 1
