REMARK  Name = ZINC39575333
REMARK  8 active torsions:
REMARK  status: ('A' for Active; 'I' for Inactive)
REMARK    1  A    between atoms: C_1  and  C_2
REMARK    2  A    between atoms: N_10  and  C_14
REMARK    3  A    between atoms: C_14  and  C_15
REMARK    4  A    between atoms: C_15  and  O_17
REMARK    5  A    between atoms: O_17  and  C_18
REMARK    6  A    between atoms: C_18  and  C_20
REMARK    7  A    between atoms: C_18  and  C_21
REMARK    8  A    between atoms: N_23  and  C_24
REMARK                            x       y       z     vdW  Elec       q    Type
REMARK                         _______ _______ _______ _____ _____    ______ ____
ROOT
ATOM      1  C   UNL     1       3.515  -6.199  -1.485  0.00  0.00    +0.326 C 
ATOM      2  O   UNL     1       3.234  -5.457  -2.397  0.00  0.00    -0.249 OA
ENDROOT
BRANCH   1   3
ATOM      3  C   UNL     1       3.355  -5.736  -0.060  0.00  0.00    +0.238 C 
BRANCH   3  13
ATOM      4  C   UNL     1       0.069   1.554   0.015  0.00  0.00    +0.007 C 
ATOM      5  C   UNL     1       0.078   0.025   0.005  0.00  0.00    -0.014 C 
ATOM      6  C   UNL     1       0.789  -0.473  -1.255  0.00  0.00    +0.006 C 
ATOM      7  C   UNL     1       0.787  -2.004  -1.269  0.00  0.00    +0.035 C 
ATOM      8  C   UNL     1       1.497  -2.526  -0.024  0.00  0.00    +0.113 C 
ATOM      9  C   UNL     1       0.811  -2.020   1.240  0.00  0.00    +0.035 C 
ATOM     10  C   UNL     1       0.812  -0.489   1.245  0.00  0.00    +0.006 C 
ATOM     11  C   UNL     1       1.538  -4.037  -0.034  0.00  0.00    +0.247 C 
ATOM     12  O   UNL     1       0.593  -4.796  -0.030  0.00  0.00    -0.273 OA
ATOM     13  N   UNL     1       2.847  -4.361  -0.048  0.00  0.00    -0.213 N 
ATOM     14  C   UNL     1       3.626  -3.272  -0.048  0.00  0.00    +0.310 C 
ATOM     15  O   UNL     1       4.840  -3.309  -0.060  0.00  0.00    -0.252 OA
ATOM     16  N   UNL     1       2.911  -2.131  -0.035  0.00  0.00    -0.285 N 
ATOM     17  H   UNL     1       3.262  -1.226  -0.033  0.00  0.00    +0.151 HD
ENDBRANCH   3  13
ENDBRANCH   1   3
BRANCH   1  18
ATOM     18  O   UNL     1       3.970  -7.436  -1.742  0.00  0.00    -0.451 OA
BRANCH  18  19
ATOM     19  C   UNL     1       4.097  -7.808  -3.115  0.00  0.00    +0.259 C 
ATOM     20  C   UNL     1       5.495  -7.442  -3.616  0.00  0.00    +0.062 C 
BRANCH  19  21
ATOM     21  C   UNL     1       3.887  -9.294  -3.254  0.00  0.00    +0.258 C 
ATOM     22  O   UNL     1       3.652  -9.968  -2.273  0.00  0.00    -0.271 OA
ATOM     23  N   UNL     1       3.961  -9.874  -4.468  0.00  0.00    -0.281 N 
ATOM     24  H   UNL     1       4.069  -9.327  -5.262  0.00  0.00    +0.155 HD
BRANCH  23  25
ATOM     25  C   UNL     1       3.881 -11.267  -4.585  0.00  0.00    +0.053 A 
ATOM     26  C   UNL     1       4.239 -12.076  -3.514  0.00  0.00    +0.044 A 
ATOM     27  C   UNL     1       4.159 -13.451  -3.632  0.00  0.00    +0.043 A 
ATOM     28  C   UNL     1       3.723 -14.021  -4.815  0.00  0.00    +0.021 A 
ATOM     29  C   UNL     1       3.367 -13.219  -5.883  0.00  0.00    +0.023 A 
ATOM     30  C   UNL     1       3.439 -11.843  -5.769  0.00  0.00    +0.062 A 
ATOM     31 CL   UNL     1       2.986 -10.836  -7.109  0.00  0.00    -0.082 Cl
ATOM     32 CL   UNL     1       4.606 -14.463  -2.294  0.00  0.00    -0.083 Cl
ENDBRANCH  23  25
ENDBRANCH  19  21
ENDBRANCH  18  19
ENDBRANCH   1  18
TORSDOF 6
