REMARK  Name = ZINC64684639
REMARK  8 active torsions:
REMARK  status: ('A' for Active; 'I' for Inactive)
REMARK    1  A    between atoms: CG_7  and  CB_10
REMARK    2  A    between atoms: CB_10  and  CA_11
REMARK    3  A    between atoms: CA_11  and  C_13
REMARK    4  A    between atoms: CA_11  and  N_16
REMARK    5  A    between atoms: C_17  and  C_19
REMARK    6  A    between atoms: C_19  and  S_20
REMARK    7  A    between atoms: S_20  and  C_21
REMARK    8  A    between atoms: C_25  and  C_28
REMARK                            x       y       z     vdW  Elec       q    Type
REMARK                         _______ _______ _______ _____ _____    ______ ____
ROOT
ATOM      1  N   TRP A   1       1.776  -4.228  -1.888  0.00  0.00    -0.301 N 
ATOM      2  C   UNK A   0       1.913  -4.252  -3.229  0.00  0.00    +0.224 C 
ATOM      3  O   UNK A   0       1.004  -3.877  -3.938  0.00  0.00    -0.275 OA
ATOM      4  H   TRP A   1       2.503  -4.528  -1.321  0.00  0.00    +0.150 HD
ENDROOT
BRANCH   1   5
ATOM      5  CA  TRP A   1       0.529  -3.747  -1.288  0.00  0.00    +0.190 C 
BRANCH   5   6
ATOM      6  C   TRP A   1      -0.466  -4.878  -1.224  0.00  0.00    +0.376 C 
ATOM      7  O   TRP A   1      -1.660  -4.643  -1.293  0.00  0.00    -0.244 OA
ATOM      8  OXT TRP A   1      -0.076  -6.027  -1.103  0.00  0.00    -0.244 OA
ENDBRANCH   5   6
BRANCH   5   9
ATOM      9  CB  TRP A   1       0.808  -3.233   0.126  0.00  0.00    +0.067 C 
BRANCH   9  16
ATOM     10  CZ3 TRP A   1      -0.055   1.273   0.075  0.00  0.00    +0.001 A 
ATOM     11  CH2 TRP A   1       1.099   2.066  -0.003  0.00  0.00    +0.002 A 
ATOM     12  CZ2 TRP A   1       2.341   1.541  -0.058  0.00  0.00    +0.026 A 
ATOM     13  CE2 TRP A   1       2.528   0.131  -0.037  0.00  0.00    +0.043 A 
ATOM     14  NE1 TRP A   1       3.611  -0.607  -0.079  0.00  0.00    -0.380 N 
ATOM     15  CD1 TRP A   1       3.217  -2.019  -0.028  0.00  0.00    +0.144 C 
ATOM     16  CG  TRP A   1       1.706  -2.025   0.053  0.00  0.00    -0.039 C 
ATOM     17  CD2 TRP A   1       1.325  -0.728   0.045  0.00  0.00    -0.001 A 
ATOM     18  CE3 TRP A   1       0.011  -0.077   0.101  0.00  0.00    +0.010 A 
ATOM     19  HE1 TRP A   1       4.520  -0.274  -0.135  0.00  0.00    +0.160 HD
ENDBRANCH   9  16
ENDBRANCH   5   9
ENDBRANCH   1   5
BRANCH   2  20
ATOM     20  C   UNK A   0       3.196  -4.746  -3.846  0.00  0.00    +0.168 C 
BRANCH  20  21
ATOM     21  S   UNK A   0       3.071  -4.657  -5.654  0.00  0.00    -0.104 S 
BRANCH  21  22
ATOM     22  C   UNK A   0       4.673  -5.277  -6.236  0.00  0.00    +0.263 C 
ATOM     23  N   UNK A   0       5.781  -4.472  -5.659  0.00  0.00    -0.218 NA
ATOM     24  N   UNK A   0       6.914  -5.412  -5.716  0.00  0.00    -0.226 NA
ATOM     25  C   UNK A   0       6.295  -6.725  -5.425  0.00  0.00    +0.206 C 
ATOM     26  O   UNK A   0       4.899  -6.613  -5.751  0.00  0.00    -0.332 OA
ATOM     27  H   UNK A   0       5.578  -4.208  -4.707  0.00  0.00    +0.144 HD
ATOM     28  H   UNK A   0       7.341  -5.408  -6.630  0.00  0.00    +0.143 HD
BRANCH  25  29
ATOM     29  C   UNK A   0       6.947  -7.811  -6.284  0.00  0.00    +0.034 C 
ATOM     30  C   UNK A   0       6.325  -9.168  -5.949  0.00  0.00    +0.007 C 
ATOM     31  C   UNK A   0       6.977 -10.254  -6.807  0.00  0.00    +0.000 C 
ATOM     32  C   UNK A   0       8.480 -10.296  -6.520  0.00  0.00    +0.000 C 
ATOM     33  C   UNK A   0       9.101  -8.939  -6.855  0.00  0.00    +0.000 C 
ATOM     34  C   UNK A   0       8.449  -7.854  -5.997  0.00  0.00    +0.007 C 
ENDBRANCH  25  29
ENDBRANCH  21  22
ENDBRANCH  20  21
ENDBRANCH   2  20
TORSDOF 8
