REMARK  Name = ZINC06236206
REMARK  6 active torsions:
REMARK  status: ('A' for Active; 'I' for Inactive)
REMARK    1  A    between atoms: C_1  and  C_2
REMARK    2  A    between atoms: C_7  and  C_9
REMARK    3  A    between atoms: C_7  and  C_10
REMARK    4  A    between atoms: N_13  and  C_17
REMARK    5  A    between atoms: C_17  and  C_18
REMARK    6  A    between atoms: N_20  and  C_21
REMARK                            x       y       z     vdW  Elec       q    Type
REMARK                         _______ _______ _______ _____ _____    ______ ____
ROOT
ATOM      1  C   UNL     1      -0.029   1.514   0.032  0.00  0.00    +0.007 C 
ATOM      2  C   UNL     1      -0.002  -0.018   0.016  0.00  0.00    -0.011 C 
ATOM      3  C   UNL     1       0.722  -0.497  -1.245  0.00  0.00    +0.038 C 
ATOM      4  C   UNL     1       0.711  -2.018  -1.297  0.00  0.00    +0.113 C 
ATOM      5  C   UNL     1       1.268  -2.655  -0.039  0.00  0.00    +0.041 C 
ATOM      6  C   UNL     1       0.793  -2.048   1.269  0.00  0.00    -0.032 C 
ATOM      7  C   UNL     1       0.763  -0.525   1.236  0.00  0.00    +0.009 C 
ATOM      8  C   UNL     1       1.779  -2.475   2.379  0.00  0.00    +0.011 C 
ATOM      9  C   UNL     1      -0.587  -2.592   1.649  0.00  0.00    +0.011 C 
ATOM     10  C   UNL     1      -0.665  -2.537  -1.636  0.00  0.00    +0.247 C 
ATOM     11  O   UNL     1      -1.715  -2.295  -1.081  0.00  0.00    -0.273 OA
ATOM     12  N   UNL     1      -0.503  -3.323  -2.723  0.00  0.00    -0.215 N 
ATOM     13  C   UNL     1       0.750  -3.264  -3.188  0.00  0.00    +0.310 C 
ATOM     14  O   UNL     1       1.137  -3.874  -4.165  0.00  0.00    -0.252 OA
ATOM     15  N   UNL     1       1.531  -2.458  -2.448  0.00  0.00    -0.285 N 
ATOM     16  H   UNL     1       2.449  -2.206  -2.622  0.00  0.00    +0.151 HD
ENDROOT
BRANCH  12  17
ATOM     17  C   UNL     1      -1.567  -4.136  -3.315  0.00  0.00    +0.214 C 
BRANCH  17  18
ATOM     18  C   UNL     1      -2.295  -3.328  -4.359  0.00  0.00    +0.235 C 
ATOM     19  O   UNL     1      -1.958  -2.185  -4.585  0.00  0.00    -0.274 OA
ATOM     20  N   UNL     1      -3.321  -3.876  -5.040  0.00  0.00    -0.284 N 
ATOM     21  H   UNL     1      -3.548  -4.809  -4.908  0.00  0.00    +0.155 HD
BRANCH  20  22
ATOM     22  C   UNL     1      -4.059  -3.097  -5.938  0.00  0.00    +0.034 A 
ATOM     23  C   UNL     1      -3.429  -2.113  -6.688  0.00  0.00    +0.023 A 
ATOM     24  C   UNL     1      -4.161  -1.348  -7.573  0.00  0.00    +0.006 A 
ATOM     25  C   UNL     1      -5.523  -1.558  -7.717  0.00  0.00    -0.044 A 
ATOM     26  C   UNL     1      -6.154  -2.537  -6.971  0.00  0.00    -0.042 A 
ATOM     27  C   UNL     1      -5.422  -3.310  -6.087  0.00  0.00    +0.027 A 
ATOM     28  C   UNL     1      -7.629  -2.566  -7.309  0.00  0.00    +0.036 C 
ATOM     29  C   UNL     1      -7.910  -1.219  -8.009  0.00  0.00    +0.009 C 
ATOM     30  C   UNL     1      -6.532  -0.862  -8.606  0.00  0.00    +0.036 C 
ENDBRANCH  20  22
ENDBRANCH  17  18
ENDBRANCH  12  17
TORSDOF 3
