REMARK  Name = ZINC14383164
REMARK  7 active torsions:
REMARK  status: ('A' for Active; 'I' for Inactive)
REMARK    1  A    between atoms: C_4  and  C_7
REMARK    2  A    between atoms: C_7  and  N_8
REMARK    3  A    between atoms: C_9  and  N_33
REMARK    4  A    between atoms: C_10  and  N_17
REMARK    5  A    between atoms: N_17  and  C_18
REMARK    6  A    between atoms: C_18  and  C_19
REMARK    7  A    between atoms: C_25  and  C_27
REMARK                            x       y       z     vdW  Elec       q    Type
REMARK                         _______ _______ _______ _____ _____    ______ ____
ROOT
ATOM      1  N   UNL     1       3.634  -1.810   2.603  0.00  0.00    -0.276 N 
ATOM      2  C   UNL     1       4.101  -0.867   3.490  0.00  0.00    +0.128 A 
ATOM      3  C   UNL     1       5.266  -0.187   3.198  0.00  0.00    +0.140 A 
ATOM      4  C   UNL     1       5.941  -0.480   1.998  0.00  0.00    +0.277 A 
ATOM      5  O   UNL     1       6.973   0.105   1.716  0.00  0.00    -0.266 OA
ATOM      6  N   UNL     1       5.441  -1.413   1.164  0.00  0.00    -0.273 N 
ATOM      7  H   UNL     1       5.905  -1.616   0.338  0.00  0.00    +0.173 HD
ATOM      8  C   UNL     1       4.307  -2.069   1.468  0.00  0.00    +0.331 A 
ATOM      9  O   UNL     1       3.880  -2.910   0.700  0.00  0.00    -0.246 OA
ENDROOT
BRANCH   3  10
ATOM     10  N   UNL     1       5.771   0.786   4.086  0.00  0.00    -0.260 N 
ATOM     11  C   UNL     1       6.225   0.418   5.302  0.00  0.00    +0.223 C 
ATOM     12  O   UNL     1       6.179  -0.747   5.641  0.00  0.00    -0.275 OA
BRANCH  11  13
ATOM     13  C   UNL     1       6.791   1.453   6.240  0.00  0.00    +0.076 C 
ATOM     14  C   UNL     1       8.195   1.847   5.777  0.00  0.00    +0.013 C 
ATOM     15  C   UNL     1       8.770   2.898   6.729  0.00  0.00    +0.001 C 
ATOM     16  C   UNL     1       8.843   2.319   8.144  0.00  0.00    +0.000 C 
ATOM     17  C   UNL     1       7.439   1.925   8.607  0.00  0.00    +0.001 C 
ATOM     18  C   UNL     1       6.864   0.874   7.654  0.00  0.00    +0.013 C 
ENDBRANCH  11  13
BRANCH  10  19
ATOM     19  C   UNL     1       5.801   2.196   3.689  0.00  0.00    +0.149 C 
BRANCH  19  20
ATOM     20  C   UNL     1       4.460   2.824   3.966  0.00  0.00    -0.030 A 
ATOM     21  C   UNL     1       3.434   2.697   3.048  0.00  0.00    +0.005 A 
ATOM     22  C   UNL     1       2.204   3.274   3.301  0.00  0.00    +0.000 A 
ATOM     23  C   UNL     1       1.999   3.978   4.473  0.00  0.00    +0.000 A 
ATOM     24  C   UNL     1       3.024   4.104   5.392  0.00  0.00    +0.000 A 
ATOM     25  C   UNL     1       4.253   3.524   5.140  0.00  0.00    +0.005 A 
ENDBRANCH  19  20
ENDBRANCH  10  19
ENDBRANCH   3  10
BRANCH   2  26
ATOM     26  N   UNL     1       3.416  -0.605   4.652  0.00  0.00    -0.343 N 
ATOM     27  H   UNL     1       2.561  -1.033   4.818  0.00  0.00    +0.144 HD
ATOM     28  H   UNL     1       3.787   0.007   5.306  0.00  0.00    +0.144 HD
ENDBRANCH   2  26
BRANCH   1  29
ATOM     29  C   UNL     1       2.398  -2.539   2.901  0.00  0.00    +0.163 C 
BRANCH  29  33
ATOM     30  C   UNL     1       3.327  -6.080   5.102  0.00  0.00    +0.000 A 
ATOM     31  C   UNL     1       3.066  -4.899   5.771  0.00  0.00    +0.000 A 
ATOM     32  C   UNL     1       2.765  -3.753   5.059  0.00  0.00    +0.005 A 
ATOM     33  C   UNL     1       2.727  -3.788   3.677  0.00  0.00    -0.028 A 
ATOM     34  C   UNL     1       2.990  -4.969   3.008  0.00  0.00    +0.005 A 
ATOM     35  C   UNL     1       3.289  -6.115   3.721  0.00  0.00    +0.000 A 
ENDBRANCH  29  33
ENDBRANCH   1  29
TORSDOF 7
