REMARK  Name = ZINC06141357
REMARK  8 active torsions:
REMARK  status: ('A' for Active; 'I' for Inactive)
REMARK    1  A    between atoms: C_1  and  C_2
REMARK    2  A    between atoms: N_13  and  C_24
REMARK    3  A    between atoms: C_14  and  S_16
REMARK    4  A    between atoms: S_16  and  C_17
REMARK    5  A    between atoms: C_17  and  C_18
REMARK    6  A    between atoms: C_24  and  C_25
REMARK    7  A    between atoms: C_25  and  C_26
REMARK    8  A    between atoms: C_25  and  C_27
REMARK                            x       y       z     vdW  Elec       q    Type
REMARK                         _______ _______ _______ _____ _____    ______ ____
ROOT
ATOM      1  C   UNL     1       5.789  -2.793   7.898  0.00  0.00    +0.008 C 
ATOM      2  C   UNL     1       4.897  -1.829   7.114  0.00  0.00    -0.009 C 
ATOM      3  C   UNL     1       3.475  -1.865   7.679  0.00  0.00    +0.008 C 
ATOM      4  C   UNL     1       2.646  -0.733   7.071  0.00  0.00    +0.037 C 
ATOM      5  C   UNL     1       2.752  -0.807   5.550  0.00  0.00    -0.023 A 
ATOM      6  C   UNL     1       3.751  -1.496   4.962  0.00  0.00    -0.004 A 
ATOM      7  S   UNL     1       3.477  -1.308   3.221  0.00  0.00    -0.073 S 
ATOM      8  C   UNL     1       2.015  -0.303   3.288  0.00  0.00    +0.117 A 
ATOM      9  C   UNL     1       1.790  -0.146   4.666  0.00  0.00    +0.076 A 
ATOM     10  C   UNL     1       0.649   0.639   5.027  0.00  0.00    +0.263 A 
ATOM     11  O   UNL     1       0.375   0.829   6.199  0.00  0.00    -0.267 OA
ATOM     12  N   UNL     1      -0.115   1.167   4.053  0.00  0.00    -0.287 N 
ATOM     13  C   UNL     1       0.174   0.961   2.735  0.00  0.00    +0.173 A 
ATOM     14  N   UNL     1       1.219   0.242   2.376  0.00  0.00    -0.216 NA
ATOM     15  C   UNL     1       4.853  -2.253   5.639  0.00  0.00    +0.046 C 
ENDROOT
BRANCH  13  16
ATOM     16  S   UNL     1      -0.860   1.669   1.497  0.00  0.00    -0.078 S 
BRANCH  16  17
ATOM     17  C   UNL     1      -0.013   1.086   0.008  0.00  0.00    +0.173 C 
BRANCH  17  18
ATOM     18  C   UNL     1      -0.742   1.585  -1.213  0.00  0.00    +0.231 C 
ATOM     19  O   UNL     1      -1.736   2.268  -1.089  0.00  0.00    -0.274 OA
ATOM     20  N   UNL     1      -0.288   1.272  -2.443  0.00  0.00    -0.240 N 
ATOM     21  C   UNL     1      -0.940   1.719  -3.535  0.00  0.00    +0.303 C 
ATOM     22  O   UNL     1      -1.937   2.403  -3.410  0.00  0.00    -0.253 OA
ATOM     23  N   UNL     1      -0.487   1.406  -4.765  0.00  0.00    -0.313 N 
ATOM     24  H   UNL     1       0.507   0.726  -2.543  0.00  0.00    +0.159 HD
ATOM     25  H   UNL     1       0.308   0.860  -4.865  0.00  0.00    +0.146 HD
ATOM     26  H   UNL     1      -0.956   1.727  -5.551  0.00  0.00    +0.146 HD
ENDBRANCH  17  18
ENDBRANCH  16  17
ENDBRANCH  13  16
BRANCH  12  27
ATOM     27  C   UNL     1      -1.281   1.977   4.415  0.00  0.00    +0.130 C 
BRANCH  27  28
ATOM     28  C   UNL     1      -2.508   1.072   4.547  0.00  0.00    +0.003 C 
ATOM     29  C   UNL     1      -2.307   0.107   5.717  0.00  0.00    +0.009 C 
ATOM     30  C   UNL     1      -3.749   1.930   4.801  0.00  0.00    +0.009 C 
ENDBRANCH  27  28
ENDBRANCH  12  27
TORSDOF 5
