REMARK  Name = ZINC38789343
REMARK  8 active torsions:
REMARK  status: ('A' for Active; 'I' for Inactive)
REMARK    1  A    between atoms: C_1  and  C_2
REMARK    2  A    between atoms: C_2  and  O_3
REMARK    3  A    between atoms: O_3  and  C_4
REMARK    4  A    between atoms: C_9  and  C_16
REMARK    5  A    between atoms: C_16  and  N_17
REMARK    6  A    between atoms: N_17  and  C_18
REMARK    7  A    between atoms: C_21  and  C_25
REMARK    8  A    between atoms: C_23  and  C_24
REMARK                            x       y       z     vdW  Elec       q    Type
REMARK                         _______ _______ _______ _____ _____    ______ ____
ROOT
ATOM      1  C   UNL     1      -1.498  -1.844   0.006  0.00  0.00    +0.122 A 
ATOM      2  C   UNL     1      -0.357  -2.661  -0.003  0.00  0.00    +0.046 A 
ATOM      3  C   UNL     1      -0.459  -4.011  -0.009  0.00  0.00    +0.013 A 
ATOM      4  C   UNL     1      -1.790  -4.624  -0.006  0.00  0.00    -0.007 A 
ATOM      5  C   UNL     1      -1.931  -5.978  -0.012  0.00  0.00    -0.003 C 
ATOM      6  C   UNL     1      -3.342  -6.531  -0.007  0.00  0.00    +0.115 C 
ATOM      7  C   UNL     1      -4.480  -5.535   0.004  0.00  0.00    +0.226 C 
ATOM      8  O   UNL     1      -5.633  -5.925   0.009  0.00  0.00    -0.275 OA
ATOM      9  N   UNL     1      -4.218  -4.240   0.009  0.00  0.00    -0.284 N 
ATOM     10  C   UNL     1      -2.976  -3.749   0.005  0.00  0.00    +0.044 A 
ATOM     11  C   UNL     1      -2.774  -2.362   0.016  0.00  0.00    +0.069 A 
ATOM     12  H   UNL     1      -4.961  -3.618   0.016  0.00  0.00    +0.155 HD
ENDROOT
BRANCH   1  13
ATOM     13  O   UNL     1      -1.339  -0.499   0.012  0.00  0.00    -0.492 OA
BRANCH  13  15
ATOM     14  C   UNL     1      -0.019   1.526   0.010  0.00  0.00    +0.048 C 
ATOM     15  C   UNL     1       0.002  -0.004   0.002  0.00  0.00    +0.225 C 
ENDBRANCH  13  15
ENDBRANCH   1  13
BRANCH   6  16
ATOM     16  C   UNL     1      -3.491  -7.426   1.225  0.00  0.00    +0.118 C 
BRANCH  16  17
ATOM     17  N   UNL     1      -4.805  -8.074   1.202  0.00  0.00    -0.343 N 
ATOM     18  H   UNL     1      -5.419  -7.899   0.472  0.00  0.00    +0.146 HD
BRANCH  17  19
ATOM     19  C   UNL     1      -5.172  -8.944   2.230  0.00  0.00    +0.030 A 
ATOM     20  C   UNL     1      -4.296  -9.192   3.280  0.00  0.00    +0.023 A 
ATOM     21  C   UNL     1      -4.663 -10.052   4.295  0.00  0.00    +0.005 A 
ATOM     22  C   UNL     1      -5.901 -10.668   4.269  0.00  0.00    -0.050 A 
ATOM     23  C   UNL     1      -6.775 -10.425   3.226  0.00  0.00    +0.008 A 
ATOM     24  C   UNL     1      -6.417  -9.560   2.210  0.00  0.00    -0.029 A 
ATOM     25  C   UNL     1      -7.373  -9.290   1.077  0.00  0.00    +0.045 C 
ATOM     26  C   UNL     1      -6.298 -11.607   5.379  0.00  0.00    +0.044 C 
ENDBRANCH  17  19
ENDBRANCH  16  17
ENDBRANCH   6  16
TORSDOF 5
