REMARK  Name = ZINC61541254
REMARK  5 active torsions:
REMARK  status: ('A' for Active; 'I' for Inactive)
REMARK    1  A    between atoms: N_14  and  C_15
REMARK    2  A    between atoms: C_15  and  C_16
REMARK    3  A    between atoms: C_16  and  C_17
REMARK    4  A    between atoms: C_17  and  S_18
REMARK    5  A    between atoms: S_18  and  N_21
REMARK                            x       y       z     vdW  Elec       q    Type
REMARK                         _______ _______ _______ _____ _____    ______ ____
ROOT
ATOM      1  C   UNL     1      -0.019   1.526   0.010  0.00  0.00    +0.003 C 
ATOM      2  C   UNL     1       1.417   2.058  -0.000  0.00  0.00    +0.019 C 
ATOM      3  C   UNL     1       2.144   1.577   1.259  0.00  0.00    +0.108 C 
ATOM      4  N   UNL     1       2.043   0.113   1.334  0.00  0.00    -0.299 N 
ATOM      5  C   UNL     1       0.714  -0.508   1.262  0.00  0.00    +0.108 C 
ATOM      6  C   UNL     1       0.002  -0.004   0.002  0.00  0.00    +0.019 C 
ATOM      7  C   UNL     1       3.176  -0.664   1.469  0.00  0.00    +0.223 A 
ATOM      8  N   UNL     1       3.071  -1.987   1.530  0.00  0.00    -0.181 NA
ATOM      9  C   UNL     1       4.164  -2.732   1.660  0.00  0.00    +0.221 A 
ATOM     10  N   UNL     1       5.359  -2.150   1.729  0.00  0.00    -0.184 NA
ATOM     11  C   UNL     1       5.460  -0.833   1.668  0.00  0.00    +0.229 A 
ATOM     12  N   UNL     1       4.374  -0.089   1.533  0.00  0.00    -0.184 NA
ATOM     13 CL   UNL     1       7.021  -0.078   1.758  0.00  0.00    -0.041 Cl
ATOM     14  N   UNL     1       4.060  -4.106   1.724  0.00  0.00    -0.313 N 
ATOM     15  H   UNL     1       3.188  -4.529   1.675  0.00  0.00    +0.149 HD
ENDROOT
BRANCH  14  16
ATOM     16  C   UNL     1       5.265  -4.926   1.867  0.00  0.00    +0.106 C 
BRANCH  16  17
ATOM     17  C   UNL     1       4.874  -6.405   1.913  0.00  0.00    +0.043 C 
BRANCH  17  18
ATOM     18  C   UNL     1       6.133  -7.261   2.063  0.00  0.00    +0.186 C 
BRANCH  18  19
ATOM     19  S   UNL     1       5.668  -9.014   2.118  0.00  0.00    +0.027 S 
ATOM     20  O   UNL     1       4.955  -9.294   3.314  0.00  0.00    -0.158 OA
ATOM     21  O   UNL     1       5.158  -9.425   0.856  0.00  0.00    -0.158 OA
BRANCH  19  22
ATOM     22  N   UNL     1       7.101  -9.829   2.279  0.00  0.00    -0.208 NA
ATOM     23  H   UNL     1       7.936  -9.337   2.322  0.00  0.00    +0.144 HD
ATOM     24  H   UNL     1       7.105 -10.797   2.331  0.00  0.00    +0.144 HD
ENDBRANCH  19  22
ENDBRANCH  18  19
ENDBRANCH  17  18
ENDBRANCH  16  17
ENDBRANCH  14  16
TORSDOF 5
