REMARK  Name = ZINC36064762
REMARK  14 active torsions:
REMARK  status: ('A' for Active; 'I' for Inactive)
REMARK    1  A    between atoms: C_1  and  C_2
REMARK    2  A    between atoms: C_2  and  C_3
REMARK    3  A    between atoms: C_4  and  C_36
REMARK    4  A    between atoms: C_5  and  C_28
REMARK    5  A    between atoms: C_8  and  C_13
REMARK    6  A    between atoms: C_14  and  N_16
REMARK    7  A    between atoms: C_20  and  C_23
REMARK    8  A    between atoms: C_23  and  O_25
REMARK    9  A    between atoms: O_25  and  C_26
REMARK   10  A    between atoms: C_26  and  C_27
REMARK   11  A    between atoms: C_31  and  C_35
REMARK   12  A    between atoms: C_33  and  C_34
REMARK   13  A    between atoms: C_36  and  O_38
REMARK   14  A    between atoms: O_38  and  C_39
REMARK                            x       y       z     vdW  Elec       q    Type
REMARK                         _______ _______ _______ _____ _____    ______ ____
ROOT
ATOM      1  C   UNL     1      -1.736  -2.187   0.605  0.00  0.00    +0.056 C 
ATOM      2  C   UNL     1      -2.119  -2.260  -0.721  0.00  0.00    +0.083 C 
ATOM      3  C   UNL     1      -3.595  -2.152  -1.034  0.00  0.00    +0.150 C 
ATOM      4  N   UNL     1      -4.521  -1.975   0.116  0.00  0.00    -0.267 N 
ATOM      5  C   UNL     1      -5.895  -1.856   0.067  0.00  0.00    +0.048 C 
ATOM      6  C   UNL     1      -6.554  -1.702   1.236  0.00  0.00    +0.072 C 
ATOM      7  S   UNL     1      -5.219  -1.726   2.417  0.00  0.00    -0.060 S 
ATOM      8  C   UNL     1      -3.938  -1.927   1.352  0.00  0.00    +0.166 C 
ATOM      9  N   UNL     1      -2.641  -2.033   1.557  0.00  0.00    -0.229 NA
ENDROOT
BRANCH   3  10
ATOM     10  C   UNL     1      -4.005  -3.402  -1.770  0.00  0.00    -0.019 A 
ATOM     11  C   UNL     1      -4.483  -4.493  -1.068  0.00  0.00    +0.006 A 
ATOM     12  C   UNL     1      -4.859  -5.638  -1.743  0.00  0.00    +0.004 A 
ATOM     13  C   UNL     1      -4.758  -5.694  -3.121  0.00  0.00    -0.050 A 
ATOM     14  C   UNL     1      -4.281  -4.603  -3.823  0.00  0.00    +0.007 A 
ATOM     15  C   UNL     1      -3.909  -3.455  -3.148  0.00  0.00    -0.045 A 
ATOM     16  C   UNL     1      -3.394  -2.264  -3.914  0.00  0.00    +0.044 C 
ATOM     17  C   UNL     1      -5.167  -6.944  -3.857  0.00  0.00    +0.044 C 
ENDBRANCH   3  10
BRANCH   5  18
ATOM     18  C   UNL     1      -6.617  -1.895  -1.214  0.00  0.00    +0.091 C 
ATOM     19  C   UNL     1      -7.963  -1.902  -1.228  0.00  0.00    +0.241 C 
ATOM     20  O   UNL     1      -8.654  -1.774  -0.068  0.00  0.00    -0.271 OA
BRANCH  19  21
ATOM     21  N   UNL     1      -8.642  -2.040  -2.426  0.00  0.00    -0.297 N 
ATOM     22  C   UNL     1      -8.068  -1.522  -3.676  0.00  0.00    +0.108 C 
ATOM     23  C   UNL     1      -9.095  -0.603  -4.346  0.00  0.00    +0.020 C 
ATOM     24  C   UNL     1     -10.412  -1.361  -4.526  0.00  0.00    +0.018 C 
ATOM     25  C   UNL     1     -10.956  -1.775  -3.157  0.00  0.00    +0.115 C 
ATOM     26  C   UNL     1      -9.948  -2.712  -2.474  0.00  0.00    +0.122 C 
BRANCH  25  27
ATOM     27  C   UNL     1     -12.269  -2.492  -3.333  0.00  0.00    +0.312 C 
ATOM     28  O   UNL     1     -12.724  -2.656  -4.441  0.00  0.00    -0.250 OA
BRANCH  27  29
ATOM     29  O   UNL     1     -12.933  -2.949  -2.260  0.00  0.00    -0.465 OA
BRANCH  29  30
ATOM     30  C   UNL     1     -14.172  -3.620  -2.502  0.00  0.00    +0.229 C 
ATOM     31  C   UNL     1     -14.778  -4.066  -1.169  0.00  0.00    +0.048 C 
ENDBRANCH  29  30
ENDBRANCH  27  29
ENDBRANCH  25  27
ENDBRANCH  19  21
ENDBRANCH   5  18
BRANCH   1  33
ATOM     32  C   UNL     1       0.336  -0.888   1.019  0.00  0.00    +0.010 C 
ATOM     33  C   UNL     1      -0.277  -2.289   0.968  0.00  0.00    +0.053 C 
ENDBRANCH   1  33
BRANCH   2  34
ATOM     34  C   UNL     1      -1.174  -2.427  -1.739  0.00  0.00    +0.339 C 
ATOM     35  O   UNL     1      -0.795  -1.465  -2.384  0.00  0.00    -0.245 OA
BRANCH  34  36
ATOM     36  O   UNL     1      -0.680  -3.656  -2.008  0.00  0.00    -0.465 OA
ATOM     37  C   UNL     1       0.302  -3.750  -3.042  0.00  0.00    +0.280 C 
ENDBRANCH  34  36
ENDBRANCH   2  34
TORSDOF 9
