REMARK  Name = ZINC53044325
REMARK  7 active torsions:
REMARK  status: ('A' for Active; 'I' for Inactive)
REMARK    1  A    between atoms: C_1  and  C_2
REMARK    2  A    between atoms: C_3  and  N_19
REMARK    3  A    between atoms: C_7  and  S_8
REMARK    4  A    between atoms: S_8  and  N_11
REMARK    5  A    between atoms: N_11  and  C_12
REMARK    6  A    between atoms: C_12  and  C_17
REMARK    7  A    between atoms: C_17  and  O_18
REMARK                            x       y       z     vdW  Elec       q    Type
REMARK                         _______ _______ _______ _____ _____    ______ ____
ROOT
ATOM      1  S   UNL     1       0.399   0.554   3.590  0.00  0.00    +0.059 S 
ATOM      2  O   UNL     1       0.737  -0.566   4.396  0.00  0.00    -0.153 OA
ATOM      3  O   UNL     1      -0.224   0.418   2.320  0.00  0.00    -0.153 OA
ENDROOT
BRANCH   1  10
ATOM      4  C   UNL     1       1.094   1.579   6.348  0.00  0.00    +0.047 C 
ATOM      5  C   UNL     1      -0.253   1.993   5.814  0.00  0.00    -0.004 A 
ATOM      6  C   UNL     1      -1.085   2.801   6.578  0.00  0.00    +0.029 A 
ATOM      7  C   UNL     1      -2.326   3.181   6.082  0.00  0.00    +0.023 A 
ATOM      8  C   UNL     1      -2.728   2.753   4.832  0.00  0.00    +0.004 A 
ATOM      9  C   UNL     1      -1.897   1.949   4.074  0.00  0.00    +0.029 A 
ATOM     10  C   UNL     1      -0.659   1.574   4.563  0.00  0.00    +0.110 A 
BRANCH   6  11
ATOM     11  N   UNL     1      -0.676   3.232   7.842  0.00  0.00    -0.358 N 
ATOM     12  H   UNL     1       0.191   2.966   8.188  0.00  0.00    +0.142 HD
ATOM     13  H   UNL     1      -1.258   3.796   8.375  0.00  0.00    +0.142 HD
ENDBRANCH   6  11
ENDBRANCH   1  10
BRANCH   1  14
ATOM     14  N   UNL     1       1.801   1.399   3.342  0.00  0.00    -0.182 NA
ATOM     15  H   UNL     1       2.580   1.218   3.891  0.00  0.00    +0.149 HD
BRANCH  14  16
ATOM     16  C   UNL     1       1.865   2.420   2.294  0.00  0.00    +0.063 C 
ATOM     17  C   UNL     1       1.842   1.761   0.892  0.00  0.00    +0.026 C 
ATOM     18  C   UNL     1       3.313   1.315   0.700  0.00  0.00    +0.002 C 
ATOM     19  C   UNL     1       4.139   2.457   1.328  0.00  0.00    +0.002 C 
ATOM     20  C   UNL     1       3.219   3.159   2.342  0.00  0.00    +0.026 C 
BRANCH  16  21
ATOM     21  C   UNL     1       0.709   3.411   2.441  0.00  0.00    +0.179 C 
BRANCH  21  22
ATOM     22  O   UNL     1      -0.522   2.757   2.125  0.00  0.00    -0.393 OA
ATOM     23  H   UNL     1      -1.300   3.327   2.197  0.00  0.00    +0.209 HD
ENDBRANCH  21  22
ENDBRANCH  16  21
ENDBRANCH  14  16
ENDBRANCH   1  14
TORSDOF 6
