REMARK  Name = ZINC12419665
REMARK  7 active torsions:
REMARK  status: ('A' for Active; 'I' for Inactive)
REMARK    1  A    between atoms: C_1  and  O_2
REMARK    2  A    between atoms: O_2  and  C_3
REMARK    3  A    between atoms: C_7  and  N_11
REMARK    4  A    between atoms: C_8  and  O_9
REMARK    5  A    between atoms: O_9  and  C_10
REMARK    6  A    between atoms: C_12  and  C_14
REMARK    7  A    between atoms: C_14  and  C_15
REMARK                            x       y       z     vdW  Elec       q    Type
REMARK                         _______ _______ _______ _____ _____    ______ ____
ROOT
ATOM      1  C   UNL     1       5.117   3.547  -1.355  0.00  0.00    +0.164 A 
ATOM      2  C   UNL     1       5.460   4.845  -0.988  0.00  0.00    +0.057 A 
ATOM      3  C   UNL     1       4.541   5.650  -0.363  0.00  0.00    +0.009 A 
ATOM      4  C   UNL     1       3.250   5.177  -0.093  0.00  0.00    +0.090 A 
ATOM      5  C   UNL     1       2.905   3.866  -0.459  0.00  0.00    +0.094 A 
ATOM      6  C   UNL     1       3.842   3.059  -1.091  0.00  0.00    +0.184 A 
ATOM      7  C   UNL     1       2.499   6.253   0.567  0.00  0.00    +0.342 C 
ATOM      8  O   UNL     1       1.345   6.168   0.938  0.00  0.00    -0.245 OA
ATOM      9  O   UNL     1       3.270   7.346   0.702  0.00  0.00    -0.456 OA
ATOM     10  C   UNL     1       4.588   7.066   0.153  0.00  0.00    +0.269 C 
ENDROOT
BRANCH   5  11
ATOM     11  N   UNL     1       1.625   3.378  -0.193  0.00  0.00    -0.282 N 
ATOM     12  C   UNL     1       1.425   2.544   0.846  0.00  0.00    +0.218 C 
ATOM     13  O   UNL     1       2.337   2.290   1.605  0.00  0.00    -0.275 OA
ATOM     14  H   UNL     1       0.880   3.640  -0.755  0.00  0.00    +0.155 HD
BRANCH  12  15
ATOM     15  C   UNL     1       0.068   1.926   1.066  0.00  0.00    +0.100 C 
BRANCH  15  16
ATOM     16  C   UNL     1       0.111   1.027   2.303  0.00  0.00    +0.001 C 
ATOM     17  C   UNL     1       0.232   1.880   3.586  0.00  0.00    +0.007 C 
ATOM     18  C   UNL     1      -1.055   1.550   4.402  0.00  0.00    -0.010 C 
ATOM     19  C   UNL     1      -2.212   2.213   3.594  0.00  0.00    +0.004 C 
ATOM     20  C   UNL     1      -2.332   1.360   2.311  0.00  0.00    +0.004 C 
ATOM     21  C   UNL     1      -1.237   0.260   2.465  0.00  0.00    -0.007 C 
ATOM     22  C   UNL     1      -1.262   0.042   4.019  0.00  0.00    +0.007 C 
ENDBRANCH  15  16
ENDBRANCH  12  15
ENDBRANCH   5  11
BRANCH   1  24
ATOM     23  C   UNL     1       7.321   3.319  -2.215  0.00  0.00    +0.277 C 
ATOM     24  O   UNL     1       6.030   2.755  -1.974  0.00  0.00    -0.491 OA
ENDBRANCH   1  24
BRANCH   6  25
ATOM     25  O   UNL     1       3.512   1.790  -1.452  0.00  0.00    -0.490 OA
ATOM     26  C   UNL     1       2.957   1.609  -2.757  0.00  0.00    +0.277 C 
ENDBRANCH   6  25
TORSDOF 5
