REMARK  Name = ZINC39895272
REMARK  9 active torsions:
REMARK  status: ('A' for Active; 'I' for Inactive)
REMARK    1  A    between atoms: C_1  and  C_2
REMARK    2  A    between atoms: C_5  and  N_8
REMARK    3  A    between atoms: N_8  and  C_9
REMARK    4  A    between atoms: C_10  and  C_28
REMARK    5  A    between atoms: C_14  and  C_21
REMARK    6  A    between atoms: C_15  and  C_19
REMARK    7  A    between atoms: C_16  and  N_18
REMARK    8  A    between atoms: N_30  and  C_31
REMARK    9  A    between atoms: C_31  and  C_32
REMARK                            x       y       z     vdW  Elec       q    Type
REMARK                         _______ _______ _______ _____ _____    ______ ____
ROOT
ATOM      1  C   UNL     1       0.178  -4.861   1.161  0.00  0.00    +0.085 A 
ATOM      2  C   UNL     1       0.315  -6.231   1.348  0.00  0.00    +0.091 A 
ATOM      3  C   UNL     1       0.425  -6.731   2.718  0.00  0.00    +0.095 A 
ATOM      4  C   UNL     1       0.377  -5.739   3.716  0.00  0.00    +0.049 A 
ATOM      5  S   UNL     1       0.201  -4.217   2.823  0.00  0.00    -0.071 S 
ATOM      6  C   UNL     1       0.468  -6.051   5.064  0.00  0.00    +0.019 A 
ATOM      7  C   UNL     1       0.612  -7.413   5.419  0.00  0.00    +0.100 A 
ATOM      8  C   UNL     1       0.654  -8.363   4.382  0.00  0.00    +0.135 A 
ATOM      9  N   UNL     1       0.564  -8.013   3.119  0.00  0.00    -0.230 NA
ENDROOT
BRANCH   6  10
ATOM     10  C   UNL     1       0.417  -4.993   6.098  0.00  0.00    -0.015 A 
ATOM     11  C   UNL     1       1.427  -4.034   6.169  0.00  0.00    +0.010 A 
ATOM     12  C   UNL     1       1.375  -3.050   7.135  0.00  0.00    +0.020 A 
ATOM     13  C   UNL     1       0.321  -3.014   8.033  0.00  0.00    +0.041 A 
ATOM     14  C   UNL     1      -0.685  -3.963   7.967  0.00  0.00    +0.020 A 
ATOM     15  C   UNL     1      -0.645  -4.948   7.001  0.00  0.00    +0.010 A 
ATOM     16 CL   UNL     1       0.260  -1.773   9.245  0.00  0.00    -0.084 Cl
ENDBRANCH   6  10
BRANCH   2  17
ATOM     17  C   UNL     1       0.348  -7.146   0.208  0.00  0.00    +0.249 C 
ATOM     18  O   UNL     1       1.411  -7.429  -0.315  0.00  0.00    -0.270 OA
ATOM     19  N   UNL     1      -0.797  -7.677  -0.264  0.00  0.00    -0.308 N 
ATOM     20  H   UNL     1      -1.644  -7.451   0.153  0.00  0.00    +0.149 HD
BRANCH  19  21
ATOM     21  C   UNL     1      -0.764  -8.594  -1.406  0.00  0.00    +0.131 C 
BRANCH  21  22
ATOM     22  C   UNL     1      -2.166  -9.040  -1.732  0.00  0.00    -0.016 C 
ATOM     23  C   UNL     1      -2.639  -8.879  -2.943  0.00  0.00    +0.005 C 
ENDBRANCH  21  22
ENDBRANCH  19  21
ENDBRANCH   2  17
BRANCH   8  24
ATOM     24  N   UNL     1       0.795  -9.704   4.701  0.00  0.00    -0.342 N 
ATOM     25  H   UNL     1       0.863  -9.977   5.630  0.00  0.00    +0.144 HD
ATOM     26  H   UNL     1       0.825 -10.370   3.997  0.00  0.00    +0.144 HD
ENDBRANCH   8  24
BRANCH   1  27
ATOM     27  N   UNL     1       0.059  -4.168  -0.021  0.00  0.00    -0.308 N 
ATOM     28  H   UNL     1      -0.025  -4.650  -0.859  0.00  0.00    +0.153 HD
BRANCH  27  33
ATOM     29  C   UNL     1       0.059   1.503   0.002  0.00  0.00    +0.044 C 
ATOM     30  C   UNL     1       0.059  -0.004  -0.004  0.00  0.00    -0.050 A 
ATOM     31  C   UNL     1       0.825  -0.697   0.915  0.00  0.00    +0.005 A 
ATOM     32  C   UNL     1       0.827  -2.078   0.912  0.00  0.00    +0.023 A 
ATOM     33  C   UNL     1       0.058  -2.771  -0.015  0.00  0.00    +0.032 A 
ATOM     34  C   UNL     1      -0.711  -2.071  -0.936  0.00  0.00    +0.023 A 
ATOM     35  C   UNL     1      -0.712  -0.690  -0.925  0.00  0.00    +0.005 A 
ENDBRANCH  27  33
ENDBRANCH   1  27
BRANCH   7  36
ATOM     36  C   UNL     1       0.713  -7.811   6.791  0.00  0.00    +0.103 C 
ATOM     37  N   UNL     1       0.793  -8.128   7.879  0.00  0.00    -0.191 NA
ENDBRANCH   7  36
TORSDOF 8
