REMARK  Name = ZINC42027610
REMARK  5 active torsions:
REMARK  status: ('A' for Active; 'I' for Inactive)
REMARK    1  A    between atoms: C_1  and  C_2
REMARK    2  A    between atoms: C_5  and  N_9
REMARK    3  A    between atoms: C_10  and  C_14
REMARK    4  A    between atoms: C_16  and  N_21
REMARK    5  A    between atoms: C_18  and  N_20
REMARK                            x       y       z     vdW  Elec       q    Type
REMARK                         _______ _______ _______ _____ _____    ______ ____
ROOT
ATOM      1  N   UNL     1      -0.121  -4.191  -0.006  0.00  0.00    -0.190 N 
ATOM      2  C   UNL     1       0.165  -5.009   1.047  0.00  0.00    +0.187 A 
ATOM      3  N   UNL     1       0.316  -6.223   0.559  0.00  0.00    -0.108 NA
ATOM      4  N   UNL     1       0.145  -6.221  -0.714  0.00  0.00    -0.022 NA
ATOM      5  N   UNL     1      -0.128  -5.033  -1.132  0.00  0.00    -0.039 NA
ENDROOT
BRANCH   1  10
ATOM      6  C   UNL     1      -1.098   1.400   0.134  0.00  0.00    +0.044 C 
ATOM      7  C   UNL     1      -0.838  -0.084   0.096  0.00  0.00    -0.048 A 
ATOM      8  C   UNL     1      -1.608  -0.940   0.863  0.00  0.00    +0.005 A 
ATOM      9  C   UNL     1      -1.373  -2.300   0.831  0.00  0.00    +0.031 A 
ATOM     10  C   UNL     1      -0.362  -2.810   0.028  0.00  0.00    +0.105 A 
ATOM     11  C   UNL     1       0.411  -1.949  -0.742  0.00  0.00    +0.149 A 
ATOM     12  C   UNL     1       0.167  -0.588  -0.709  0.00  0.00    +0.044 A 
ATOM     13  F   UNL     1       1.397  -2.441  -1.524  0.00  0.00    -0.203 F 
ENDBRANCH   1  10
BRANCH   2  14
ATOM     14  C   UNL     1       0.284  -4.609   2.467  0.00  0.00    +0.025 A 
ATOM     15  C   UNL     1       0.499  -3.273   2.801  0.00  0.00    +0.034 A 
ATOM     16  C   UNL     1       0.609  -2.901   4.133  0.00  0.00    +0.027 A 
ATOM     17  C   UNL     1       0.507  -3.859   5.133  0.00  0.00    +0.045 A 
ATOM     18  C   UNL     1       0.293  -5.191   4.804  0.00  0.00    +0.027 A 
ATOM     19  C   UNL     1       0.175  -5.568   3.474  0.00  0.00    +0.034 A 
BRANCH  18  20
ATOM     20  N   UNL     1       0.190  -6.151   5.813  0.00  0.00    -0.358 N 
ATOM     21  H   UNL     1       0.268  -5.888   6.743  0.00  0.00    +0.142 HD
ATOM     22  H   UNL     1       0.041  -7.082   5.584  0.00  0.00    +0.142 HD
ENDBRANCH  18  20
BRANCH  16  23
ATOM     23  N   UNL     1       0.825  -1.562   4.468  0.00  0.00    -0.358 N 
ATOM     24  H   UNL     1       0.897  -0.893   3.770  0.00  0.00    +0.142 HD
ATOM     25  H   UNL     1       0.902  -1.302   5.399  0.00  0.00    +0.142 HD
ENDBRANCH  16  23
ENDBRANCH   2  14
TORSDOF 4
