REMARK  Name = ZINC67606997
REMARK  5 active torsions:
REMARK  status: ('A' for Active; 'I' for Inactive)
REMARK    1  A    between atoms: C_3  and  C_16
REMARK    2  A    between atoms: C_5  and  N_7
REMARK    3  A    between atoms: C_8  and  C_10
REMARK    4  A    between atoms: C_16  and  N_17
REMARK    5  A    between atoms: N_20  and  C_21
REMARK                            x       y       z     vdW  Elec       q    Type
REMARK                         _______ _______ _______ _____ _____    ______ ____
ROOT
ATOM      1  C   UNL     1       3.657   2.200  -0.029  0.00  0.00    +0.141 C 
ENDROOT
BRANCH   1   4
ATOM      2  C   UNL     1      -0.028   1.373  -0.012  0.00  0.00    +0.002 A 
ATOM      3  C   UNL     1       1.157   2.086  -0.017  0.00  0.00    +0.005 A 
ATOM      4  C   UNL     1       2.368   1.419  -0.023  0.00  0.00    -0.029 A 
ATOM      5  C   UNL     1       2.398   0.038  -0.025  0.00  0.00    +0.028 A 
ATOM      6  C   UNL     1       1.210  -0.681  -0.020  0.00  0.00    +0.034 A 
ATOM      7  C   UNL     1      -0.005  -0.008  -0.013  0.00  0.00    +0.023 A 
BRANCH   6   8
ATOM      8  N   UNL     1       1.237  -2.080  -0.021  0.00  0.00    -0.283 N 
ATOM      9  C   UNL     1       0.299  -2.773   0.653  0.00  0.00    +0.246 C 
ATOM     10  O   UNL     1      -0.617  -2.187   1.192  0.00  0.00    -0.273 OA
ATOM     11  H   UNL     1       1.932  -2.551  -0.508  0.00  0.00    +0.155 HD
BRANCH   9  12
ATOM     12  C   UNL     1       0.387  -4.275   0.738  0.00  0.00    +0.204 C 
ATOM     13  C   UNL     1       1.629  -4.694   1.565  0.00  0.00    +0.043 C 
ATOM     14  C   UNL     1       1.190  -6.099   2.063  0.00  0.00    +0.031 C 
ATOM     15  C   UNL     1      -0.330  -5.917   2.257  0.00  0.00    +0.161 C 
ATOM     16  O   UNL     1      -0.740  -4.800   1.457  0.00  0.00    -0.367 OA
ENDBRANCH   9  12
ENDBRANCH   6   8
ENDBRANCH   1   4
BRANCH   1  17
ATOM     17  N   UNL     1       4.082   2.452   1.350  0.00  0.00    -0.295 N 
ATOM     18  C   UNL     1       5.216   3.139   1.591  0.00  0.00    +0.300 C 
ATOM     19  O   UNL     1       5.887   3.549   0.664  0.00  0.00    -0.253 OA
ATOM     20  N   UNL     1       5.607   3.371   2.860  0.00  0.00    -0.298 N 
ATOM     21  H   UNL     1       3.546   2.125   2.090  0.00  0.00    +0.151 HD
ATOM     22  H   UNL     1       5.071   3.044   3.600  0.00  0.00    +0.150 HD
BRANCH  20  23
ATOM     23  C   UNL     1       6.840   4.117   3.122  0.00  0.00    +0.059 C 
ATOM     24  C   UNL     1       8.056   3.157   3.172  0.00  0.00    +0.002 C 
ATOM     25  C   UNL     1       8.584   3.257   4.628  0.00  0.00    -0.077 C 
ATOM     26  N   UNL     1       7.405   3.700   5.390  0.00  0.00    +0.383 N 
ATOM     27  C   UNL     1       6.800   4.747   4.518  0.00  0.00    -0.048 C 
ATOM     28  C   UNL     1       5.398   5.028   5.037  0.00  0.00    -0.014 C 
ATOM     29  C   UNL     1       5.538   5.611   6.452  0.00  0.00    -0.003 C 
ATOM     30  C   UNL     1       6.346   4.668   7.343  0.00  0.00    -0.019 C 
ATOM     31  C   UNL     1       7.693   4.305   6.684  0.00  0.00    -0.078 C 
ATOM     32  H   UNL     1       6.763   2.930   5.506  0.00  0.00    -0.081 HD
ENDBRANCH  20  23
ENDBRANCH   1  17
TORSDOF 5
