REMARK  Name = ZINC00321109
REMARK  4 active torsions:
REMARK  status: ('A' for Active; 'I' for Inactive)
REMARK    1  A    between atoms: C_1  and  C_2
REMARK    2  A    between atoms: C_5  and  N_11
REMARK    3  A    between atoms: N_11  and  N_12
REMARK    4  A    between atoms: N_12  and  C_13
REMARK                            x       y       z     vdW  Elec       q    Type
REMARK                         _______ _______ _______ _____ _____    ______ ____
ROOT
ATOM      1  N   UNL     1       3.573   1.808  -0.021  0.00  0.00    -0.223 NA
ATOM      2  H   UNL     1       3.607   2.449  -0.800  0.00  0.00    +0.146 HD
ENDROOT
BRANCH   1   6
ATOM      3  C   UNL     1       7.179  -0.270   1.155  0.00  0.00    +0.028 C 
ATOM      4  C   UNL     1       5.839  -1.007   1.112  0.00  0.00    +0.072 C 
ATOM      5  C   UNL     1       4.693   0.006   1.207  0.00  0.00    +0.061 C 
ATOM      6  C   UNL     1       4.729   0.901  -0.036  0.00  0.00    +0.158 C 
ATOM      7  N   UNL     1       4.677   0.062  -1.235  0.00  0.00    -0.310 N 
ATOM      8  C   UNL     1       5.170  -1.185  -1.235  0.00  0.00    +0.132 C 
ATOM      9  S   UNL     1       5.087  -2.102  -2.678  0.00  0.00    -0.019 S 
ATOM     10  N   UNL     1       5.726  -1.743  -0.149  0.00  0.00    -0.324 N 
ATOM     11  H   UNL     1       4.277   0.415  -2.045  0.00  0.00    +0.149 HD
ATOM     12  H   UNL     1       6.060  -2.652  -0.200  0.00  0.00    +0.148 HD
ENDBRANCH   1   6
BRANCH   1  13
ATOM     13  N   UNL     1       2.401   1.107  -0.014  0.00  0.00    -0.279 N 
ATOM     14  H   UNL     1       2.416   0.137  -0.019  0.00  0.00    +0.166 HD
BRANCH  13  15
ATOM     15  C   UNL     1       1.180   1.787   0.000  0.00  0.00    +0.041 A 
ATOM     16  C   UNL     1      -0.013   1.076   0.008  0.00  0.00    +0.025 A 
ATOM     17  C   UNL     1      -1.218   1.751   0.017  0.00  0.00    +0.017 A 
ATOM     18  C   UNL     1      -1.237   3.134   0.030  0.00  0.00    +0.018 A 
ATOM     19  C   UNL     1      -0.050   3.845   0.022  0.00  0.00    +0.017 A 
ATOM     20  C   UNL     1       1.158   3.176   0.008  0.00  0.00    +0.025 A 
ATOM     21 BR   UNL     1      -2.889   4.054   0.051  0.00  0.00    -0.050 Br
ENDBRANCH  13  15
ENDBRANCH   1  13
TORSDOF 3
