REMARK  Name = ZINC16401483
REMARK  7 active torsions:
REMARK  status: ('A' for Active; 'I' for Inactive)
REMARK    1  A    between atoms: C_1  and  C_2
REMARK    2  A    between atoms: C_2  and  C_4
REMARK    3  A    between atoms: C_2  and  N_11
REMARK    4  A    between atoms: C_12  and  C_14
REMARK    5  A    between atoms: C_14  and  N_15
REMARK    6  A    between atoms: C_18  and  C_22
REMARK    7  A    between atoms: C_18  and  C_23
REMARK                            x       y       z     vdW  Elec       q    Type
REMARK                         _______ _______ _______ _____ _____    ______ ____
ROOT
ATOM      1  C   UNL     1       2.736  -1.073  -2.455  0.00  0.00    +0.213 C 
ENDROOT
BRANCH   1   2
ATOM      2  N   UNL     1       4.181  -1.104  -2.214  0.00  0.00    -0.215 N 
ATOM      3  C   UNL     1       5.010  -0.068  -2.449  0.00  0.00    +0.254 C 
ATOM      4  O   UNL     1       4.713   1.024  -2.883  0.00  0.00    -0.272 OA
ATOM      5  C   UNL     1       6.392  -0.552  -2.057  0.00  0.00    +0.168 C 
ATOM      6  N   UNL     1       6.160  -1.934  -1.605  0.00  0.00    -0.279 N 
ATOM      7  C   UNL     1       4.840  -2.163  -1.729  0.00  0.00    +0.310 C 
ATOM      8  O   UNL     1       4.306  -3.214  -1.436  0.00  0.00    -0.252 OA
ATOM      9  C   UNL     1       6.958   0.300  -0.919  0.00  0.00    +0.050 C 
ATOM     10  H   UNL     1       6.827  -2.557  -1.278  0.00  0.00    +0.152 HD
BRANCH   5  11
ATOM     11  C   UNL     1       7.318  -0.532  -3.247  0.00  0.00    +0.137 A 
ATOM     12  C   UNL     1       8.355  -1.364  -3.450  0.00  0.00    +0.047 A 
ATOM     13  C   UNL     1       8.943  -0.992  -4.681  0.00  0.00    +0.041 A 
ATOM     14  C   UNL     1       8.230   0.045  -5.156  0.00  0.00    +0.195 A 
ATOM     15  O   UNL     1       7.243   0.315  -4.286  0.00  0.00    -0.465 OA
ENDBRANCH   5  11
ENDBRANCH   1   2
BRANCH   1  17
ATOM     16  N   UNL     1       0.688  -0.476  -1.203  0.00  0.00    -0.307 N 
ATOM     17  C   UNL     1       2.031  -0.587  -1.215  0.00  0.00    +0.231 C 
ATOM     18  O   UNL     1       2.672  -0.295  -0.228  0.00  0.00    -0.274 OA
ATOM     19  H   UNL     1       0.175  -0.710  -1.993  0.00  0.00    +0.149 HD
BRANCH  16  21
ATOM     20  C   UNL     1      -0.019   1.526   0.010  0.00  0.00    +0.033 C 
ATOM     21  C   UNL     1       0.002  -0.004   0.002  0.00  0.00    +0.100 C 
BRANCH  21  22
ATOM     22  C   UNL     1      -1.412  -0.526   0.013  0.00  0.00    -0.027 A 
ATOM     23  C   UNL     1      -2.141  -0.569  -1.161  0.00  0.00    +0.008 A 
ATOM     24  C   UNL     1      -3.437  -1.047  -1.153  0.00  0.00    +0.038 A 
ATOM     25  C   UNL     1      -4.006  -1.484   0.032  0.00  0.00    +0.123 A 
ATOM     26  C   UNL     1      -3.275  -1.440   1.207  0.00  0.00    +0.038 A 
ATOM     27  C   UNL     1      -1.976  -0.966   1.195  0.00  0.00    +0.008 A 
ATOM     28  F   UNL     1      -5.273  -1.951   0.042  0.00  0.00    -0.205 F 
ENDBRANCH  21  22
ENDBRANCH  16  21
ENDBRANCH   1  17
TORSDOF 5
