REMARK  Name = ZINC44001812
REMARK  8 active torsions:
REMARK  status: ('A' for Active; 'I' for Inactive)
REMARK    1  A    between atoms: C_1  and  C_2
REMARK    2  A    between atoms: C_2  and  C_3
REMARK    3  A    between atoms: C_2  and  C_4
REMARK    4  A    between atoms: C_4  and  C_5
REMARK    5  A    between atoms: N_7  and  C_8
REMARK    6  A    between atoms: C_8  and  C_9
REMARK    7  A    between atoms: C_15  and  C_17
REMARK    8  A    between atoms: C_18  and  C_19
REMARK                            x       y       z     vdW  Elec       q    Type
REMARK                         _______ _______ _______ _____ _____    ______ ____
ROOT
ATOM      1  C   UNL     1      -5.511  -0.646  -2.710  0.00  0.00    +0.009 C 
ATOM      2  C   UNL     1      -5.495  -2.176  -2.713  0.00  0.00    +0.024 C 
ATOM      3  C   UNL     1      -6.935  -2.698  -2.669  0.00  0.00    +0.108 C 
ATOM      4  N   UNL     1      -7.688  -2.100  -3.780  0.00  0.00    -0.298 N 
ATOM      5  C   UNL     1      -7.694  -0.638  -3.924  0.00  0.00    +0.108 C 
ATOM      6  C   UNL     1      -6.246  -0.140  -3.953  0.00  0.00    +0.024 C 
ATOM      7  C   UNL     1      -8.360  -2.879  -4.651  0.00  0.00    +0.240 C 
ATOM      8  O   UNL     1      -8.270  -4.091  -4.580  0.00  0.00    -0.271 OA
ENDROOT
BRANCH   7   9
ATOM      9  C   UNL     1      -9.172  -2.287  -5.649  0.00  0.00    +0.071 C 
ATOM     10  C   UNL     1      -9.927  -3.069  -6.460  0.00  0.00    +0.051 C 
BRANCH  10  11
ATOM     11  C   UNL     1     -10.739  -2.477  -7.458  0.00  0.00    +0.128 A 
ATOM     12  C   UNL     1     -11.556  -3.147  -8.344  0.00  0.00    +0.049 A 
ATOM     13  C   UNL     1     -12.166  -2.168  -9.143  0.00  0.00    +0.042 A 
ATOM     14  C   UNL     1     -11.708  -0.968  -8.725  0.00  0.00    +0.195 A 
ATOM     15  O   UNL     1     -10.855  -1.156  -7.709  0.00  0.00    -0.464 OA
ENDBRANCH  10  11
ENDBRANCH   7   9
BRANCH   1  16
ATOM     16  C   UNL     1      -4.074  -0.121  -2.719  0.00  0.00    +0.107 C 
BRANCH  16  19
ATOM     17  C   UNL     1      -2.124  -0.150  -1.257  0.00  0.00    +0.213 C 
ATOM     18  O   UNL     1      -1.523   0.489  -2.095  0.00  0.00    -0.276 OA
ATOM     19  N   UNL     1      -3.406  -0.506  -1.472  0.00  0.00    -0.315 N 
ATOM     20  H   UNL     1      -3.887  -1.016  -0.802  0.00  0.00    +0.149 HD
BRANCH  17  21
ATOM     21  C   UNL     1      -1.438  -0.545   0.025  0.00  0.00    +0.098 C 
BRANCH  21  23
ATOM     22  C   UNL     1      -0.016   1.509   0.021  0.00  0.00    +0.008 C 
ATOM     23  C   UNL     1      -0.000  -0.021   0.016  0.00  0.00    -0.008 C 
ATOM     24  C   UNL     1       0.735  -0.527   1.259  0.00  0.00    +0.008 C 
ENDBRANCH  21  23
ENDBRANCH  17  21
ENDBRANCH  16  19
ENDBRANCH   1  16
TORSDOF 6
