REMARK  Name = ZINC02157423
REMARK  9 active torsions:
REMARK  status: ('A' for Active; 'I' for Inactive)
REMARK    1  A    between atoms: C_1  and  N_63
REMARK    2  A    between atoms: C_2  and  N_63
REMARK    3  A    between atoms: C_3  and  C_4
REMARK    4  A    between atoms: C_3  and  N_63
REMARK    5  A    between atoms: C_4  and  C_5
REMARK    6  A    between atoms: C_5  and  N_6
REMARK    7  A    between atoms: C_26  and  C_28
REMARK    8  A    between atoms: C_32  and  O_34
REMARK    9  A    between atoms: O_34  and  C_35
REMARK                            x       y       z     vdW  Elec       q    Type
REMARK                         _______ _______ _______ _____ _____    ______ ____
ROOT
ATOM      1  N   UNL     1       0.236  -2.359   4.138  0.00  0.00    -0.291 N 
ATOM      2  C   UNL     1      -0.880  -3.030   4.782  0.00  0.00    +0.203 C 
ATOM      3  C   UNL     1      -0.734  -4.516   4.755  0.00  0.00    +0.234 C 
ATOM      4  O   UNL     1      -1.602  -5.179   5.282  0.00  0.00    -0.274 OA
ATOM      5  N   UNL     1       0.289  -5.163   4.194  0.00  0.00    -0.276 N 
ATOM      6  C   UNL     1       1.358  -4.487   3.461  0.00  0.00    +0.167 C 
ATOM      7  C   UNL     1       1.244  -2.999   3.548  0.00  0.00    +0.237 C 
ATOM      8  O   UNL     1       2.127  -2.332   3.050  0.00  0.00    -0.274 OA
ATOM      9  C   UNL     1       1.313  -4.922   1.989  0.00  0.00    +0.069 C 
ATOM     10  C   UNL     1       1.143  -6.419   1.929  0.00  0.00    -0.015 A 
ATOM     11  C   UNL     1       1.385  -7.306   0.810  0.00  0.00    +0.003 A 
ATOM     12  C   UNL     1       1.831  -7.083  -0.496  0.00  0.00    +0.010 A 
ATOM     13  C   UNL     1       1.946  -8.184  -1.309  0.00  0.00    +0.001 A 
ATOM     14  C   UNL     1       1.638  -9.461  -0.867  0.00  0.00    +0.002 A 
ATOM     15  C   UNL     1       1.196  -9.710   0.421  0.00  0.00    +0.026 A 
ATOM     16  C   UNL     1       1.070  -8.611   1.269  0.00  0.00    +0.047 A 
ATOM     17  N   UNL     1       0.671  -8.499   2.569  0.00  0.00    -0.356 N 
ATOM     18  H   UNL     1       0.395  -9.238   3.134  0.00  0.00    +0.166 HD
ATOM     19  C   UNL     1       0.718  -7.186   2.957  0.00  0.00    +0.046 A 
ATOM     20  C   UNL     1       0.362  -6.635   4.319  0.00  0.00    +0.154 C 
ENDROOT
BRANCH  20  21
ATOM     21  C   UNL     1       1.424  -7.014   5.318  0.00  0.00    -0.018 A 
ATOM     22  C   UNL     1       1.552  -8.330   5.724  0.00  0.00    +0.006 A 
ATOM     23  C   UNL     1       2.529  -8.682   6.637  0.00  0.00    +0.004 A 
ATOM     24  C   UNL     1       3.373  -7.718   7.154  0.00  0.00    +0.045 A 
ATOM     25  C   UNL     1       3.242  -6.397   6.753  0.00  0.00    +0.120 A 
ATOM     26  C   UNL     1       2.265  -6.047   5.833  0.00  0.00    +0.051 A 
BRANCH  25  27
ATOM     27  O   UNL     1       4.071  -5.446   7.261  0.00  0.00    -0.495 OA
ATOM     28  C   UNL     1       5.053  -5.879   8.204  0.00  0.00    +0.277 C 
ENDBRANCH  25  27
ENDBRANCH  20  21
BRANCH   1  29
ATOM     29  C   UNL     1       0.258  -0.894   4.142  0.00  0.00    +0.106 C 
BRANCH  29  30
ATOM     30  C   UNL     1      -0.457  -0.370   2.895  0.00  0.00    +0.000 C 
BRANCH  30  31
ATOM     31  C   UNL     1      -0.435   1.160   2.900  0.00  0.00    -0.078 C 
BRANCH  31  34
ATOM     32  C   UNL     1      -0.382   1.307   0.484  0.00  0.00    -0.097 C 
ATOM     33  C   UNL     1      -1.329   3.115   1.786  0.00  0.00    -0.097 C 
ATOM     34  N   UNL     1      -1.146   1.651   1.701  0.00  0.00    +0.376 N 
ATOM     35  H   UNL     1      -2.068   1.202   1.653  0.00  0.00    -0.083 HD
ENDBRANCH  31  34
ENDBRANCH  30  31
ENDBRANCH  29  30
ENDBRANCH   1  29
TORSDOF 6
