REMARK  Name = ZINC05956265
REMARK  13 active torsions:
REMARK  status: ('A' for Active; 'I' for Inactive)
REMARK    1  A    between atoms: C_1  and  C_2
REMARK    2  A    between atoms: C_3  and  C_35
REMARK    3  A    between atoms: C_4  and  C_27
REMARK    4  A    between atoms: C_5  and  C_25
REMARK    5  A    between atoms: N_8  and  C_9
REMARK    6  A    between atoms: C_11  and  O_24
REMARK    7  A    between atoms: C_13  and  O_23
REMARK    8  A    between atoms: C_15  and  O_22
REMARK    9  A    between atoms: C_17  and  C_20
REMARK   10  A    between atoms: C_20  and  O_21
REMARK   11  A    between atoms: C_30  and  O_33
REMARK   12  A    between atoms: O_33  and  C_34
REMARK   13  A    between atoms: C_35  and  C_37
REMARK                            x       y       z     vdW  Elec       q    Type
REMARK                         _______ _______ _______ _____ _____    ______ ____
ROOT
ATOM      1  C   UNL     1      -3.570  -0.594  -2.668  0.00  0.00    +0.064 C 
ATOM      2  C   UNL     1      -3.388   0.815  -3.171  0.00  0.00    +0.030 A 
ATOM      3  C   UNL     1      -3.793   1.140  -4.454  0.00  0.00    +0.045 A 
ATOM      4  C   UNL     1      -3.609   2.519  -4.928  0.00  0.00    +0.014 A 
ATOM      5  C   UNL     1      -3.025   3.443  -4.048  0.00  0.00    +0.091 A 
ATOM      6  C   UNL     1      -2.649   3.010  -2.753  0.00  0.00    +0.107 A 
ATOM      7  S   UNL     1      -1.942   4.127  -1.665  0.00  0.00    -0.031 S 
ATOM      8  N   UNL     1      -2.833   1.738  -2.367  0.00  0.00    -0.309 N 
ENDROOT
BRANCH   8   9
ATOM      9  C   UNL     1      -2.421   1.342  -1.018  0.00  0.00    +0.252 C 
ATOM     10  C   UNL     1      -3.408   1.910   0.005  0.00  0.00    +0.195 C 
ATOM     11  C   UNL     1      -2.936   1.544   1.416  0.00  0.00    +0.178 C 
ATOM     12  C   UNL     1      -1.515   2.076   1.622  0.00  0.00    +0.177 C 
ATOM     13  C   UNL     1      -0.601   1.502   0.536  0.00  0.00    +0.177 C 
ATOM     14  O   UNL     1      -1.113   1.853  -0.751  0.00  0.00    -0.346 OA
BRANCH  12  15
ATOM     15  O   UNL     1      -1.522   3.502   1.535  0.00  0.00    -0.386 OA
ATOM     16  H   UNL     1      -2.082   3.934   2.195  0.00  0.00    +0.210 HD
ENDBRANCH  12  15
BRANCH  11  17
ATOM     17  O   UNL     1      -3.812   2.131   2.380  0.00  0.00    -0.386 OA
ATOM     18  H   UNL     1      -3.572   1.940   3.297  0.00  0.00    +0.210 HD
ENDBRANCH  11  17
BRANCH  10  19
ATOM     19  O   UNL     1      -4.705   1.357  -0.225  0.00  0.00    -0.385 OA
ATOM     20  H   UNL     1      -5.382   1.673   0.389  0.00  0.00    +0.210 HD
ENDBRANCH  10  19
BRANCH  13  21
ATOM     21  C   UNL     1       0.808   2.076   0.699  0.00  0.00    +0.190 C 
BRANCH  21  22
ATOM     22  O   UNL     1       1.687   1.454  -0.240  0.00  0.00    -0.392 OA
ATOM     23  H   UNL     1       2.600   1.770  -0.194  0.00  0.00    +0.210 HD
ENDBRANCH  21  22
ENDBRANCH  13  21
ENDBRANCH   8   9
BRANCH   4  24
ATOM     24  C   UNL     1      -4.024   2.919  -6.286  0.00  0.00    -0.016 A 
ATOM     25  C   UNL     1      -3.340   2.427  -7.402  0.00  0.00    +0.012 A 
ATOM     26  C   UNL     1      -3.734   2.798  -8.668  0.00  0.00    +0.046 A 
ATOM     27  C   UNL     1      -4.803   3.670  -8.837  0.00  0.00    +0.120 A 
ATOM     28  C   UNL     1      -5.483   4.165  -7.731  0.00  0.00    +0.046 A 
ATOM     29  C   UNL     1      -5.099   3.795  -6.461  0.00  0.00    +0.012 A 
BRANCH  27  30
ATOM     30  O   UNL     1      -5.185   4.038 -10.087  0.00  0.00    -0.495 OA
ATOM     31  C   UNL     1      -4.443   3.492 -11.179  0.00  0.00    +0.277 C 
ENDBRANCH  27  30
ENDBRANCH   4  24
BRANCH   3  32
ATOM     32  C   UNL     1      -4.397   0.128  -5.324  0.00  0.00    +0.162 C 
ATOM     33  O   UNL     1      -3.689  -0.605  -5.984  0.00  0.00    -0.292 OA
ATOM     34  C   UNL     1      -5.896  -0.005  -5.398  0.00  0.00    +0.091 C 
ENDBRANCH   3  32
BRANCH   5  35
ATOM     35  C   UNL     1      -2.818   4.802  -4.451  0.00  0.00    +0.102 C 
ATOM     36  N   UNL     1      -2.654   5.879  -4.771  0.00  0.00    -0.191 NA
ENDBRANCH   5  35
TORSDOF 10
