REMARK  Name = ZINC54735204
REMARK  8 active torsions:
REMARK  status: ('A' for Active; 'I' for Inactive)
REMARK    1  A    between atoms: C_1  and  C_2
REMARK    2  A    between atoms: C_5  and  C_7
REMARK    3  A    between atoms: C_7  and  C_9
REMARK    4  A    between atoms: C_7  and  N_10
REMARK    5  A    between atoms: N_13  and  N_14
REMARK    6  A    between atoms: C_15  and  C_17
REMARK    7  A    between atoms: C_21  and  S_23
REMARK    8  A    between atoms: S_23  and  C_26
REMARK                            x       y       z     vdW  Elec       q    Type
REMARK                         _______ _______ _______ _____ _____    ______ ____
ROOT
ATOM      1  N   UNL     1       2.210  -4.147   0.855  0.00  0.00    -0.291 N 
ATOM      2  C   UNL     1       2.553  -5.328   1.406  0.00  0.00    +0.316 C 
ATOM      3  O   UNL     1       1.894  -6.323   1.171  0.00  0.00    -0.251 OA
ATOM      4  N   UNL     1       3.626  -5.407   2.217  0.00  0.00    -0.218 N 
ATOM      5  H   UNL     1       2.735  -3.354   1.042  0.00  0.00    +0.151 HD
ATOM      6  H   UNL     1       3.873  -6.257   2.614  0.00  0.00    +0.174 HD
ENDROOT
BRANCH   4   7
ATOM      7  N   UNL     1       4.385  -4.261   2.488  0.00  0.00    -0.229 N 
ATOM      8  C   UNL     1       5.458  -4.340   3.299  0.00  0.00    +0.260 C 
ATOM      9  O   UNL     1       5.768  -5.405   3.796  0.00  0.00    -0.269 OA
ATOM     10  H   UNL     1       4.138  -3.411   2.091  0.00  0.00    +0.173 HD
BRANCH   8  11
ATOM     11  C   UNL     1       6.260  -3.131   3.585  0.00  0.00    +0.040 A 
ATOM     12  C   UNL     1       5.904  -1.904   3.020  0.00  0.00    +0.013 A 
ATOM     13  C   UNL     1       6.655  -0.780   3.291  0.00  0.00    +0.003 A 
ATOM     14  C   UNL     1       7.760  -0.865   4.120  0.00  0.00    +0.027 A 
ATOM     15  C   UNL     1       8.118  -2.077   4.682  0.00  0.00    +0.089 A 
ATOM     16  C   UNL     1       7.372  -3.209   4.425  0.00  0.00    +0.040 A 
BRANCH  15  17
ATOM     17  S   UNL     1       9.528  -2.175   5.735  0.00  0.00    -0.006 S 
ATOM     18  O   UNL     1       9.967  -3.522   5.629  0.00  0.00    -0.170 OA
ATOM     19  O   UNL     1      10.365  -1.105   5.321  0.00  0.00    -0.170 OA
ATOM     20  C   UNL     1       8.887  -1.857   7.402  0.00  0.00    +0.200 C 
ENDBRANCH  15  17
ENDBRANCH   8  11
ENDBRANCH   4   7
BRANCH   1  21
ATOM     21  C   UNL     1       1.043  -4.062  -0.027  0.00  0.00    +0.108 C 
ATOM     22  C   UNL     1       1.452  -4.441  -1.452  0.00  0.00    +0.033 C 
BRANCH  21  27
ATOM     23  C   UNL     1      -0.018   1.503   0.010  0.00  0.00    +0.051 C 
ATOM     24  C   UNL     1       0.002  -0.004   0.002  0.00  0.00    -0.013 A 
ATOM     25  C   UNL     1      -1.039  -0.872   0.002  0.00  0.00    +0.011 A 
ATOM     26  C   UNL     1      -0.780  -2.230  -0.007  0.00  0.00    +0.013 A 
ATOM     27  C   UNL     1       0.507  -2.653  -0.016  0.00  0.00    +0.010 A 
ATOM     28  S   UNL     1       1.404  -1.109  -0.018  0.00  0.00    -0.097 S 
ENDBRANCH  21  27
ENDBRANCH   1  21
TORSDOF 5
