REMARK  Name = ZINC18197086
REMARK  7 active torsions:
REMARK  status: ('A' for Active; 'I' for Inactive)
REMARK    1  A    between atoms: C_1  and  O_2
REMARK    2  A    between atoms: O_2  and  C_3
REMARK    3  A    between atoms: C_6  and  C_11
REMARK    4  A    between atoms: C_8  and  O_9
REMARK    5  A    between atoms: O_9  and  C_10
REMARK    6  A    between atoms: C_16  and  C_26
REMARK    7  A    between atoms: C_23  and  O_24
REMARK                            x       y       z     vdW  Elec       q    Type
REMARK                         _______ _______ _______ _____ _____    ______ ____
ROOT
ATOM      1  C   UNL     1      -1.720   7.360  -3.393  0.00  0.00    +0.032 C 
ATOM      2  C   UNL     1      -2.749   6.839  -2.389  0.00  0.00    +0.059 C 
ATOM      3  C   UNL     1      -2.046   6.369  -1.136  0.00  0.00    +0.017 C 
ATOM      4  C   UNL     1      -0.800   5.850  -1.195  0.00  0.00    +0.024 C 
ATOM      5  C   UNL     1      -0.070   5.349   0.033  0.00  0.00    +0.095 C 
ATOM      6  C   UNL     1      -0.772   5.832   1.270  0.00  0.00    +0.067 A 
ATOM      7  C   UNL     1      -2.031   6.369   1.239  0.00  0.00    +0.126 A 
ATOM      8  N   UNL     1      -2.371   6.695   2.500  0.00  0.00    -0.260 N 
ATOM      9  H   UNL     1      -3.236   7.106   2.790  0.00  0.00    +0.190 HD
ATOM     10  N   UNL     1      -1.294   6.356   3.335  0.00  0.00    -0.134 NA
ATOM     11  C   UNL     1      -0.339   5.839   2.593  0.00  0.00    +0.237 A 
ATOM     12  N   UNL     1      -2.732   6.500   0.046  0.00  0.00    -0.303 N 
ATOM     13  C   UNL     1      -0.117   5.754  -2.420  0.00  0.00    +0.162 C 
ATOM     14  O   UNL     1       1.001   5.277  -2.440  0.00  0.00    -0.292 OA
ATOM     15  C   UNL     1      -0.735   6.227  -3.705  0.00  0.00    +0.088 C 
ATOM     16  H   UNL     1      -3.685   6.681   0.048  0.00  0.00    +0.153 HD
ENDROOT
BRANCH   5  17
ATOM     17  C   UNL     1      -0.050   3.842   0.024  0.00  0.00    +0.001 A 
ATOM     18  C   UNL     1       1.157   3.166   0.009  0.00  0.00    +0.046 A 
ATOM     19  C   UNL     1       1.175   1.783   0.000  0.00  0.00    +0.020 A 
ATOM     20  C   UNL     1      -0.013   1.076   0.008  0.00  0.00    +0.003 A 
ATOM     21  C   UNL     1      -1.219   1.750   0.017  0.00  0.00    +0.020 A 
ATOM     22  C   UNL     1      -1.238   3.134   0.031  0.00  0.00    +0.046 A 
ATOM     23 CL   UNL     1      -2.754   3.981   0.050  0.00  0.00    -0.083 Cl
ATOM     24 CL   UNL     1       2.649   4.054   0.000  0.00  0.00    -0.083 Cl
ENDBRANCH   5  17
BRANCH   1  28
ATOM     25  C   UNL     1      -3.701   8.573  -6.984  0.00  0.00    +0.161 A 
ATOM     26  C   UNL     1      -3.816   7.268  -6.533  0.00  0.00    +0.049 A 
ATOM     27  C   UNL     1      -3.170   6.877  -5.375  0.00  0.00    +0.008 A 
ATOM     28  C   UNL     1      -2.417   7.789  -4.658  0.00  0.00    -0.040 A 
ATOM     29  C   UNL     1      -2.298   9.093  -5.103  0.00  0.00    +0.053 A 
ATOM     30  C   UNL     1      -2.938   9.489  -6.266  0.00  0.00    +0.162 A 
BRANCH  25  32
ATOM     31  C   UNL     1      -5.096   7.963  -8.811  0.00  0.00    +0.277 C 
ATOM     32  O   UNL     1      -4.331   8.957  -8.126  0.00  0.00    -0.491 OA
ENDBRANCH  25  32
BRANCH  30  33
ATOM     33  O   UNL     1      -2.822  10.771  -6.705  0.00  0.00    -0.491 OA
ATOM     34  C   UNL     1      -2.023  11.657  -5.917  0.00  0.00    +0.277 C 
ENDBRANCH  30  33
ENDBRANCH   1  28
BRANCH  11  35
ATOM     35  O   UNL     1       0.864   5.389   3.042  0.00  0.00    -0.491 OA
ATOM     36  H   UNL     1       0.917   5.512   4.033  0.00  0.00    +0.294 HD
ENDBRANCH  11  35
TORSDOF 5
