REMARK  Name = ZINC61626862
REMARK  7 active torsions:
REMARK  status: ('A' for Active; 'I' for Inactive)
REMARK    1  A    between atoms: C_1  and  C_2
REMARK    2  A    between atoms: C_5  and  C_9
REMARK    3  A    between atoms: C_6  and  C_8
REMARK    4  A    between atoms: C_12  and  C_14
REMARK    5  A    between atoms: N_16  and  N_17
REMARK    6  A    between atoms: N_20  and  C_21
REMARK    7  A    between atoms: C_21  and  C_22
REMARK                            x       y       z     vdW  Elec       q    Type
REMARK                         _______ _______ _______ _____ _____    ______ ____
ROOT
ATOM      1  C   UNL     1       0.111  -8.207  -0.968  0.00  0.00    +0.271 C 
ATOM      2  O   UNL     1       0.123  -9.145  -0.191  0.00  0.00    -0.268 OA
ATOM      3  N   UNL     1       0.114  -8.432  -2.297  0.00  0.00    -0.200 N 
ATOM      4  H   UNL     1       0.104  -7.686  -2.916  0.00  0.00    +0.178 HD
ENDROOT
BRANCH   1   8
ATOM      5  C   UNL     1       0.060  -4.251  -0.021  0.00  0.00    +0.109 A 
ATOM      6  N   UNL     1       0.070  -5.074   1.013  0.00  0.00    -0.247 NA
ATOM      7  C   UNL     1       0.087  -6.372   0.853  0.00  0.00    +0.132 A 
ATOM      8  C   UNL     1       0.093  -6.832  -0.458  0.00  0.00    +0.095 A 
ATOM      9  S   UNL     1       0.066  -5.285  -1.349  0.00  0.00    -0.063 S 
BRANCH   5  14
ATOM     10  C   UNL     1      -0.018   1.503   0.010  0.00  0.00    +0.044 C 
ATOM     11  C   UNL     1       0.002  -0.004   0.002  0.00  0.00    -0.050 A 
ATOM     12  C   UNL     1       0.006  -0.686  -1.202  0.00  0.00    +0.004 A 
ATOM     13  C   UNL     1       0.024  -2.065  -1.217  0.00  0.00    +0.011 A 
ATOM     14  C   UNL     1       0.040  -2.773  -0.013  0.00  0.00    +0.010 A 
ATOM     15  C   UNL     1       0.037  -2.079   1.198  0.00  0.00    -0.041 A 
ATOM     16  C   UNL     1       0.023  -0.699   1.198  0.00  0.00    +0.007 A 
ATOM     17  C   UNL     1       0.053  -2.834   2.501  0.00  0.00    +0.044 C 
ENDBRANCH   5  14
ENDBRANCH   1   8
BRANCH   3  18
ATOM     18  N   UNL     1       0.131  -9.746  -2.784  0.00  0.00    -0.157 NA
ATOM     19  C   UNL     1       0.134  -9.964  -4.069  0.00  0.00    +0.182 C 
ATOM     20  S   UNL     1       0.156 -11.616  -4.682  0.00  0.00    -0.013 SA
ATOM     21  N   UNL     1       0.120  -8.898  -4.952  0.00  0.00    -0.313 N 
ATOM     22  H   UNL     1       0.109  -7.989  -4.614  0.00  0.00    +0.148 HD
BRANCH  21  23
ATOM     23  C   UNL     1       0.124  -9.144  -6.396  0.00  0.00    +0.216 C 
BRANCH  23  24
ATOM     24  C   UNL     1       0.107  -7.807  -7.141  0.00  0.00    +0.405 C 
ATOM     25  F   UNL     1       1.239  -7.064  -6.791  0.00  0.00    -0.169 F 
ATOM     26  F   UNL     1       0.110  -8.041  -8.520  0.00  0.00    -0.169 F 
ATOM     27  F   UNL     1      -1.045  -7.094  -6.792  0.00  0.00    -0.169 F 
ENDBRANCH  23  24
ENDBRANCH  21  23
ENDBRANCH   3  18
TORSDOF 5
