REMARK  Name = ZINC31635350
REMARK  6 active torsions:
REMARK  status: ('A' for Active; 'I' for Inactive)
REMARK    1  A    between atoms: C_1  and  C_2
REMARK    2  A    between atoms: C_2  and  C_3
REMARK    3  A    between atoms: C_3  and  C_23
REMARK    4  A    between atoms: N_6  and  C_10
REMARK    5  A    between atoms: C_10  and  C_11
REMARK    6  A    between atoms: C_18  and  C_22
REMARK                            x       y       z     vdW  Elec       q    Type
REMARK                         _______ _______ _______ _____ _____    ______ ____
ROOT
ATOM      1  C   UNL     1      -0.074   5.619   0.032  0.00  0.00    +0.138 C 
ATOM      2  C   UNL     1      -0.025   6.160  -1.383  0.00  0.00    +0.251 C 
ATOM      3  O   UNL     1      -0.837   5.980  -2.265  0.00  0.00    -0.272 OA
ATOM      4  N   UNL     1       1.110   6.884  -1.457  0.00  0.00    -0.218 N 
ATOM      5  C   UNL     1       1.777   6.876  -0.297  0.00  0.00    +0.310 C 
ATOM      6  O   UNL     1       2.828   7.458  -0.119  0.00  0.00    -0.252 OA
ATOM      7  N   UNL     1       1.151   6.151   0.652  0.00  0.00    -0.281 N 
ATOM      8  H   UNL     1       1.382   5.917   1.702  0.00  0.00    +0.152 HD
ENDROOT
BRANCH   1   9
ATOM      9  C   UNL     1      -0.054   4.112   0.024  0.00  0.00    -0.015 A 
ATOM     10  C   UNL     1       1.153   3.438   0.009  0.00  0.00    +0.009 A 
ATOM     11  C   UNL     1       1.173   2.056   0.002  0.00  0.00    +0.039 A 
ATOM     12  C   UNL     1      -0.016   1.347   0.009  0.00  0.00    +0.123 A 
ATOM     13  C   UNL     1      -1.224   2.023   0.019  0.00  0.00    +0.039 A 
ATOM     14  C   UNL     1      -1.242   3.405   0.031  0.00  0.00    +0.009 A 
ATOM     15  F   UNL     1       0.002  -0.004   0.002  0.00  0.00    -0.205 F 
ENDBRANCH   1   9
BRANCH   1  17
ATOM     16  C   UNL     1      -1.312   7.665   0.755  0.00  0.00    +0.007 C 
ATOM     17  C   UNL     1      -1.315   6.135   0.762  0.00  0.00    +0.037 C 
ENDBRANCH   1  17
BRANCH   4  18
ATOM     18  C   UNL     1       1.557   7.593  -2.659  0.00  0.00    +0.173 C 
BRANCH  18  19
ATOM     19  C   UNL     1       0.999   8.992  -2.654  0.00  0.00    +0.067 A 
ATOM     20  C   UNL     1       1.852  10.075  -2.554  0.00  0.00    +0.095 A 
ATOM     21  C   UNL     1       1.310  11.365  -2.558  0.00  0.00    +0.259 A 
ATOM     22  O   UNL     1       2.037  12.343  -2.476  0.00  0.00    -0.267 OA
ATOM     23  N   UNL     1      -0.029  11.512  -2.648  0.00  0.00    -0.268 N 
ATOM     24  C   UNL     1      -0.571  12.761  -2.646  0.00  0.00    +0.096 A 
ATOM     25  C   UNL     1      -1.909  12.934  -2.735  0.00  0.00    +0.021 A 
ATOM     26  C   UNL     1      -2.758  11.822  -2.830  0.00  0.00    -0.046 A 
ATOM     27  C   UNL     1      -2.225  10.568  -2.832  0.00  0.00    +0.050 A 
ATOM     28  C   UNL     1      -0.830  10.409  -2.738  0.00  0.00    +0.141 A 
ATOM     29  N   UNL     1      -0.308   9.184  -2.740  0.00  0.00    -0.232 NA
ATOM     30  C   UNL     1      -4.250  12.012  -2.929  0.00  0.00    +0.044 C 
ENDBRANCH  18  19
ENDBRANCH   4  18
TORSDOF 4
