REMARK  Name = ZINC33321259
REMARK  6 active torsions:
REMARK  status: ('A' for Active; 'I' for Inactive)
REMARK    1  A    between atoms: C_1  and  C_2
REMARK    2  A    between atoms: C_9  and  C_13
REMARK    3  A    between atoms: N_15  and  C_16
REMARK    4  A    between atoms: C_21  and  C_22
REMARK    5  A    between atoms: C_22  and  O_24
REMARK    6  A    between atoms: O_24  and  C_25
REMARK                            x       y       z     vdW  Elec       q    Type
REMARK                         _______ _______ _______ _____ _____    ______ ____
ROOT
ATOM      1  C   UNL     1       1.294   1.381   0.126  0.00  0.00    +0.248 C 
ATOM      2  O   UNL     1       1.336   2.593   0.081  0.00  0.00    -0.270 OA
ATOM      3  N   UNL     1       0.108   0.745   0.059  0.00  0.00    -0.281 N 
ATOM      4  H   UNL     1       0.075  -0.354   0.030  0.00  0.00    +0.155 HD
ENDROOT
BRANCH   1  13
ATOM      5  C   UNL     1       8.495   1.440  -0.851  0.00  0.00    +0.044 C 
ATOM      6  C   UNL     1       7.341   0.808  -0.117  0.00  0.00    -0.050 A 
ATOM      7  C   UNL     1       7.574  -0.341   0.775  0.00  0.00    +0.007 A 
ATOM      8  C   UNL     1       6.563  -0.898   1.402  0.00  0.00    +0.047 A 
ATOM      9  C   UNL     1       5.195  -0.377   1.216  0.00  0.00    +0.135 A 
ATOM     10  C   UNL     1       4.989   0.667   0.446  0.00  0.00    +0.018 A 
ATOM     11  C   UNL     1       6.125   1.282  -0.271  0.00  0.00    +0.015 A 
ATOM     12  C   UNL     1       3.656   1.264   0.309  0.00  0.00    +0.024 C 
ATOM     13  C   UNL     1       2.540   0.606   0.254  0.00  0.00    +0.041 C 
ATOM     14  C   UNL     1       2.432  -0.854   0.304  0.00  0.00    +0.051 C 
ATOM     15  C   UNL     1       3.197  -1.566   1.092  0.00  0.00    +0.196 C 
ATOM     16  O   UNL     1       4.162  -0.993   1.851  0.00  0.00    -0.463 OA
ENDBRANCH   1  13
BRANCH   3  17
ATOM     17  C   UNL     1      -1.075   1.478   0.026  0.00  0.00    +0.048 A 
ATOM     18  C   UNL     1      -1.122   2.696  -0.639  0.00  0.00    +0.024 A 
ATOM     19  C   UNL     1      -2.297   3.419  -0.675  0.00  0.00    +0.002 A 
ATOM     20  C   UNL     1      -3.434   2.943  -0.041  0.00  0.00    +0.001 A 
ATOM     21  C   UNL     1      -3.405   1.739   0.629  0.00  0.00    +0.017 A 
ATOM     22  C   UNL     1      -2.224   0.993   0.669  0.00  0.00    +0.080 A 
BRANCH  22  23
ATOM     23  C   UNL     1      -2.185  -0.295   1.384  0.00  0.00    +0.341 C 
ATOM     24  O   UNL     1      -1.134  -0.894   1.500  0.00  0.00    -0.245 OA
BRANCH  23  25
ATOM     25  O   UNL     1      -3.315  -0.810   1.907  0.00  0.00    -0.464 OA
ATOM     26  C   UNL     1      -3.202  -2.082   2.597  0.00  0.00    +0.280 C 
ENDBRANCH  23  25
ENDBRANCH  22  23
ENDBRANCH   3  17
TORSDOF 4
