REMARK  Name = ZINC66084933
REMARK  9 active torsions:
REMARK  status: ('A' for Active; 'I' for Inactive)
REMARK    1  A    between atoms: C_1  and  N_2
REMARK    2  A    between atoms: C_4  and  C_7
REMARK    3  A    between atoms: C_7  and  N_8
REMARK    4  A    between atoms: N_8  and  C_9
REMARK    5  A    between atoms: C_10  and  C_12
REMARK    6  A    between atoms: C_12  and  N_13
REMARK    7  A    between atoms: N_13  and  C_14
REMARK    8  A    between atoms: C_17  and  S_20
REMARK    9  A    between atoms: S_20  and  C_21
REMARK                            x       y       z     vdW  Elec       q    Type
REMARK                         _______ _______ _______ _____ _____    ______ ____
ROOT
ATOM      1  N   UNL     1       3.917  -2.864  -4.453  0.00  0.00    -0.335 N 
ATOM      2  H   UNL     1       3.312  -2.269  -4.923  0.00  0.00    +0.147 HD
ENDROOT
BRANCH   1   3
ATOM      3  C   UNL     1       5.215  -3.068  -4.936  0.00  0.00    +0.028 A 
ATOM      4  C   UNL     1       6.079  -3.924  -4.266  0.00  0.00    +0.024 A 
ATOM      5  C   UNL     1       7.359  -4.126  -4.743  0.00  0.00    +0.017 A 
ATOM      6  C   UNL     1       7.782  -3.471  -5.893  0.00  0.00    +0.016 A 
ATOM      7  C   UNL     1       6.918  -2.614  -6.563  0.00  0.00    +0.017 A 
ATOM      8  C   UNL     1       5.636  -2.417  -6.089  0.00  0.00    +0.024 A 
BRANCH   6   9
ATOM      9  S   UNL     1       9.416  -3.727  -6.501  0.00  0.00    -0.016 S 
BRANCH   9  10
ATOM     10  C   UNL     1       9.501  -2.686  -7.984  0.00  0.00    +0.448 C 
ATOM     11  F   UNL     1       9.273  -1.352  -7.630  0.00  0.00    -0.160 F 
ATOM     12  F   UNL     1      10.768  -2.805  -8.565  0.00  0.00    -0.160 F 
ATOM     13  F   UNL     1       8.527  -3.098  -8.899  0.00  0.00    -0.160 F 
ENDBRANCH   9  10
ENDBRANCH   6   9
ENDBRANCH   1   3
BRANCH   1  14
ATOM     14  C   UNL     1       3.471  -3.550  -3.237  0.00  0.00    +0.197 C 
BRANCH  14  17
ATOM     15  N   UNL     1       1.424  -3.675  -1.855  0.00  0.00    -0.299 N 
ATOM     16  C   UNL     1       2.132  -4.609  -0.976  0.00  0.00    +0.132 C 
ATOM     17  C   UNL     1       2.047  -3.163  -2.935  0.00  0.00    +0.233 C 
ATOM     18  O   UNL     1       1.461  -2.390  -3.663  0.00  0.00    -0.274 OA
BRANCH  15  19
ATOM     19  C   UNL     1       0.039  -3.298  -1.561  0.00  0.00    +0.145 C 
BRANCH  19  23
ATOM     20  C   UNL     1      -0.018   1.461   0.010  0.00  0.00    +0.172 C 
ATOM     21  N   UNL     1       0.002  -0.004   0.002  0.00  0.00    -0.274 N 
ATOM     22  C   UNL     1       0.008  -0.792  -1.094  0.00  0.00    +0.113 A 
ATOM     23  C   UNL     1       0.027  -2.079  -0.676  0.00  0.00    +0.007 A 
ATOM     24  C   UNL     1       0.034  -2.078   0.723  0.00  0.00    +0.139 A 
ATOM     25  N   UNL     1       0.025  -0.834   1.130  0.00  0.00    -0.180 NA
ENDBRANCH  19  23
ENDBRANCH  15  19
ENDBRANCH  14  17
ENDBRANCH   1  14
TORSDOF 7
