REMARK  Name = ZINC06325588
REMARK  11 active torsions:
REMARK  status: ('A' for Active; 'I' for Inactive)
REMARK    1  A    between atoms: C_1  and  C_2
REMARK    2  A    between atoms: C_2  and  N_3
REMARK    3  A    between atoms: N_3  and  C_4
REMARK    4  A    between atoms: N_3  and  C_6
REMARK    5  A    between atoms: C_4  and  C_5
REMARK    6  A    between atoms: C_9  and  C_12
REMARK    7  A    between atoms: C_25  and  C_33
REMARK    8  A    between atoms: C_26  and  C_27
REMARK    9  A    between atoms: C_27  and  O_29
REMARK   10  A    between atoms: O_29  and  C_30
REMARK   11  A    between atoms: C_30  and  C_31
REMARK                            x       y       z     vdW  Elec       q    Type
REMARK                         _______ _______ _______ _____ _____    ______ ____
ROOT
ATOM      1  C   UNL     1      -2.554   3.866   0.047  0.00  0.00    +0.096 C 
ATOM      2  C   UNL     1      -3.311   3.493   1.290  0.00  0.00    +0.067 A 
ATOM      3  C   UNL     1      -4.362   2.628   1.240  0.00  0.00    +0.113 A 
ATOM      4  N   UNL     1      -5.029   2.304   2.397  0.00  0.00    -0.295 N 
ATOM      5  H   UNL     1      -5.800   1.667   2.366  0.00  0.00    +0.172 HD
ATOM      6  C   UNL     1      -4.651   2.839   3.573  0.00  0.00    +0.328 A 
ATOM      7  O   UNL     1      -5.252   2.542   4.587  0.00  0.00    -0.247 OA
ATOM      8  N   UNL     1      -3.617   3.697   3.642  0.00  0.00    -0.275 N 
ATOM      9  H   UNL     1      -3.353   4.085   4.525  0.00  0.00    +0.173 HD
ATOM     10  C   UNL     1      -2.935   4.040   2.531  0.00  0.00    +0.260 A 
ATOM     11  O   UNL     1      -2.000   4.818   2.600  0.00  0.00    -0.267 OA
ATOM     12  N   UNL     1      -4.761   2.084   0.043  0.00  0.00    -0.304 N 
ATOM     13  C   UNL     1      -4.372   2.655  -1.138  0.00  0.00    +0.017 C 
ATOM     14  C   UNL     1      -3.335   3.507  -1.183  0.00  0.00    +0.065 C 
ATOM     15  C   UNL     1      -5.116   2.321  -2.405  0.00  0.00    +0.061 C 
ATOM     16  H   UNL     1      -5.321   1.292   0.035  0.00  0.00    +0.153 HD
ENDROOT
BRANCH   1  20
ATOM     17  C   UNL     1       1.180   1.788   0.000  0.00  0.00    +0.030 A 
ATOM     18  C   UNL     1      -0.013   1.076   0.008  0.00  0.00    +0.023 A 
ATOM     19  C   UNL     1      -1.217   1.751   0.017  0.00  0.00    +0.006 A 
ATOM     20  C   UNL     1      -1.237   3.134   0.030  0.00  0.00    -0.035 A 
ATOM     21  C   UNL     1      -0.051   3.845   0.022  0.00  0.00    +0.006 A 
ATOM     22  C   UNL     1       1.157   3.176   0.008  0.00  0.00    +0.023 A 
BRANCH  17  23
ATOM     23  N   UNL     1       2.401   1.108  -0.015  0.00  0.00    -0.330 N 
BRANCH  23  25
ATOM     24  C   UNL     1       4.109   2.114   1.417  0.00  0.00    +0.024 C 
ATOM     25  C   UNL     1       3.658   1.860  -0.023  0.00  0.00    +0.102 C 
ENDBRANCH  23  25
BRANCH  23  26
ATOM     26  C   UNL     1       2.423  -0.357  -0.023  0.00  0.00    +0.102 C 
ATOM     27  C   UNL     1       2.417  -0.859  -1.468  0.00  0.00    +0.024 C 
ENDBRANCH  23  26
ENDBRANCH  17  23
ENDBRANCH   1  20
BRANCH  14  28
ATOM     28  C   UNL     1      -2.970   4.080  -2.423  0.00  0.00    +0.338 C 
ATOM     29  O   UNL     1      -3.593   3.799  -3.430  0.00  0.00    -0.245 OA
BRANCH  28  30
ATOM     30  O   UNL     1      -1.931   4.939  -2.490  0.00  0.00    -0.457 OA
BRANCH  30  31
ATOM     31  C   UNL     1      -1.618   5.480  -3.775  0.00  0.00    +0.259 C 
BRANCH  31  32
ATOM     32  C   UNL     1      -0.439   6.411  -3.655  0.00  0.00    +0.006 C 
ATOM     33  C   UNL     1       0.536   6.349  -4.527  0.00  0.00    +0.007 C 
ENDBRANCH  31  32
ENDBRANCH  30  31
ENDBRANCH  28  30
ENDBRANCH  14  28
TORSDOF 8
