REMARK  Name = ZINC64890953
REMARK  8 active torsions:
REMARK  status: ('A' for Active; 'I' for Inactive)
REMARK    1  A    between atoms: C_1  and  C_2
REMARK    2  A    between atoms: C_5  and  C_9
REMARK    3  A    between atoms: C_7  and  C_8
REMARK    4  A    between atoms: C_11  and  C_14
REMARK    5  A    between atoms: N_26  and  C_27
REMARK    6  A    between atoms: C_27  and  C_28
REMARK    7  A    between atoms: C_28  and  C_29
REMARK    8  A    between atoms: C_28  and  C_30
REMARK                            x       y       z     vdW  Elec       q    Type
REMARK                         _______ _______ _______ _____ _____    ______ ____
ROOT
ATOM      1  C   UNL     1       0.101  -7.463  -1.657  0.00  0.00    +0.025 A 
ATOM      2  C   UNL     1       0.104  -7.250  -3.036  0.00  0.00    +0.014 A 
ATOM      3  C   UNL     1       0.118  -8.322  -3.901  0.00  0.00    +0.028 A 
ATOM      4  C   UNL     1       0.130  -9.622  -3.404  0.00  0.00    +0.068 A 
ATOM      5  C   UNL     1       0.127  -9.841  -2.025  0.00  0.00    +0.067 A 
ATOM      6  C   UNL     1       0.118  -8.760  -1.154  0.00  0.00    +0.039 A 
ATOM      7  N   UNL     1       0.139 -11.136  -1.513  0.00  0.00    -0.316 N 
ATOM      8  H   UNL     1       0.137 -11.278  -0.553  0.00  0.00    +0.169 HD
ATOM      9  C   UNL     1       0.153 -12.194  -2.349  0.00  0.00    +0.314 A 
ATOM     10  O   UNL     1       0.162 -13.325  -1.908  0.00  0.00    -0.262 OA
ATOM     11  C   UNL     1       0.156 -11.959  -3.822  0.00  0.00    +0.316 A 
ATOM     12  O   UNL     1       0.168 -12.898  -4.593  0.00  0.00    -0.262 OA
ATOM     13  N   UNL     1       0.144 -10.695  -4.290  0.00  0.00    -0.302 N 
ENDROOT
BRANCH   1  16
ATOM     14  C   UNL     1       0.059  -4.251  -0.021  0.00  0.00    +0.259 A 
ATOM     15  N   UNL     1       0.069  -5.014  -1.089  0.00  0.00    -0.187 NA
ATOM     16  C   UNL     1       0.086  -6.307  -0.727  0.00  0.00    +0.202 A 
ATOM     17  N   UNL     1       0.087  -6.380   0.582  0.00  0.00    -0.056 NA
ATOM     18  O   UNL     1       0.075  -5.045   1.064  0.00  0.00    -0.332 OA
BRANCH  14  23
ATOM     19  C   UNL     1      -0.018   1.503   0.010  0.00  0.00    +0.044 C 
ATOM     20  C   UNL     1       0.002  -0.004   0.002  0.00  0.00    -0.047 A 
ATOM     21  C   UNL     1       0.006  -0.686  -1.202  0.00  0.00    +0.004 A 
ATOM     22  C   UNL     1       0.024  -2.066  -1.216  0.00  0.00    +0.013 A 
ATOM     23  C   UNL     1       0.040  -2.773  -0.013  0.00  0.00    +0.040 A 
ATOM     24  C   UNL     1       0.036  -2.079   1.197  0.00  0.00    +0.017 A 
ATOM     25  C   UNL     1       0.023  -0.699   1.198  0.00  0.00    -0.047 A 
ATOM     26  C   UNL     1       0.025   0.052   2.504  0.00  0.00    +0.044 C 
ENDBRANCH  14  23
ENDBRANCH   1  16
BRANCH  13  27
ATOM     27  C   UNL     1       0.146 -10.450  -5.734  0.00  0.00    +0.128 C 
BRANCH  27  28
ATOM     28  C   UNL     1       1.589 -10.349  -6.233  0.00  0.00    +0.003 C 
ATOM     29  C   UNL     1       1.595 -10.218  -7.757  0.00  0.00    +0.009 C 
ATOM     30  C   UNL     1       2.258  -9.120  -5.613  0.00  0.00    +0.009 C 
ENDBRANCH  27  28
ENDBRANCH  13  27
TORSDOF 4
