REMARK  Name = ZINC48978314
REMARK  5 active torsions:
REMARK  status: ('A' for Active; 'I' for Inactive)
REMARK    1  A    between atoms: C_1  and  C_2
REMARK    2  A    between atoms: C_7  and  N_10
REMARK    3  A    between atoms: N_13  and  C_14
REMARK    4  A    between atoms: C_14  and  C_15
REMARK    5  A    between atoms: C_19  and  C_21
REMARK                            x       y       z     vdW  Elec       q    Type
REMARK                         _______ _______ _______ _____ _____    ______ ____
ROOT
ATOM      1  N   UNL     1       1.448  -2.513   0.028  0.00  0.00    -0.297 N 
ATOM      2  C   UNL     1       2.034  -3.727   0.018  0.00  0.00    +0.300 C 
ATOM      3  O   UNL     1       1.992  -4.431   1.008  0.00  0.00    -0.253 OA
ATOM      4  N   UNL     1       2.664  -4.162  -1.091  0.00  0.00    -0.295 N 
ATOM      5  H   UNL     1       1.482  -1.952  -0.763  0.00  0.00    +0.151 HD
ATOM      6  H   UNL     1       2.697  -3.601  -1.882  0.00  0.00    +0.151 HD
ENDROOT
BRANCH   1  12
ATOM      7  C   UNL     1      -0.019   1.526   0.010  0.00  0.00    +0.007 C 
ATOM      8  C   UNL     1       0.002  -0.004   0.002  0.00  0.00    -0.012 C 
ATOM      9  C   UNL     1      -1.433  -0.534   0.013  0.00  0.00    +0.003 C 
ATOM     10  C   UNL     1      -1.413  -2.063   0.004  0.00  0.00    +0.002 C 
ATOM     11  C   UNL     1      -0.673  -2.570   1.244  0.00  0.00    +0.022 C 
ATOM     12  C   UNL     1       0.763  -2.041   1.233  0.00  0.00    +0.075 C 
ATOM     13  C   UNL     1       0.742  -0.511   1.242  0.00  0.00    +0.025 C 
ENDBRANCH   1  12
BRANCH   4  14
ATOM     14  C   UNL     1       3.300  -5.482  -1.103  0.00  0.00    +0.141 C 
BRANCH  14  15
ATOM     15  C   UNL     1       3.930  -5.724  -2.450  0.00  0.00    -0.029 A 
ATOM     16  C   UNL     1       3.194  -6.320  -3.459  0.00  0.00    +0.005 A 
ATOM     17  C   UNL     1       3.764  -6.546  -4.699  0.00  0.00    +0.002 A 
ATOM     18  C   UNL     1       5.073  -6.179  -4.937  0.00  0.00    +0.019 A 
ATOM     19  C   UNL     1       5.821  -5.577  -3.924  0.00  0.00    +0.052 A 
ATOM     20  C   UNL     1       5.237  -5.347  -2.676  0.00  0.00    +0.024 A 
BRANCH  19  21
ATOM     21  C   UNL     1       7.179  -5.193  -4.165  0.00  0.00    +0.099 C 
ATOM     22  N   UNL     1       8.257  -4.888  -4.355  0.00  0.00    -0.191 NA
ENDBRANCH  19  21
ENDBRANCH  14  15
ENDBRANCH   4  14
TORSDOF 4
