REMARK  Name = ZINC04593014
REMARK  4 active torsions:
REMARK  status: ('A' for Active; 'I' for Inactive)
REMARK    1  A    between atoms: C_1  and  C_2
REMARK    2  A    between atoms: N_13  and  C_16
REMARK    3  A    between atoms: C_16  and  N_17
REMARK    4  A    between atoms: N_17  and  C_18
REMARK                            x       y       z     vdW  Elec       q    Type
REMARK                         _______ _______ _______ _____ _____    ______ ____
ROOT
ATOM      1  C   UNL     1      -0.019   1.526   0.010  0.00  0.00    +0.007 C 
ATOM      2  C   UNL     1       0.002  -0.004   0.002  0.00  0.00    -0.013 C 
ATOM      3  C   UNL     1      -1.434  -0.539   0.023  0.00  0.00    +0.004 C 
ATOM      4  C   UNL     1      -1.379  -2.055  -0.129  0.00  0.00    +0.014 C 
ATOM      5  C   UNL     1      -0.538  -2.718   0.922  0.00  0.00    +0.087 C 
ATOM      6  C   UNL     1       0.749  -2.015   1.331  0.00  0.00    +0.088 C 
ATOM      7  C   UNL     1       0.729  -0.513   1.239  0.00  0.00    +0.016 C 
ATOM      8  C   UNL     1       0.866  -2.426   2.797  0.00  0.00    +0.227 C 
ATOM      9  O   UNL     1       1.880  -2.418   3.462  0.00  0.00    -0.275 OA
ATOM     10  N   UNL     1      -0.355  -2.798   3.220  0.00  0.00    -0.225 N 
ATOM     11  C   UNL     1      -1.262  -2.867   2.243  0.00  0.00    +0.227 C 
ATOM     12  O   UNL     1      -2.453  -3.034   2.394  0.00  0.00    -0.275 OA
ENDROOT
BRANCH  10  13
ATOM     13  C   UNL     1      -0.662  -3.080   4.624  0.00  0.00    +0.221 C 
BRANCH  13  14
ATOM     14  N   UNL     1      -1.102  -1.849   5.284  0.00  0.00    -0.328 N 
ATOM     15  H   UNL     1      -0.447  -1.233   5.648  0.00  0.00    +0.148 HD
BRANCH  14  16
ATOM     16  C   UNL     1      -2.466  -1.561   5.390  0.00  0.00    +0.028 A 
ATOM     17  C   UNL     1      -3.405  -2.445   4.875  0.00  0.00    +0.024 A 
ATOM     18  C   UNL     1      -4.752  -2.159   4.981  0.00  0.00    +0.022 A 
ATOM     19  C   UNL     1      -5.166  -0.992   5.600  0.00  0.00    +0.041 A 
ATOM     20  C   UNL     1      -4.232  -0.110   6.114  0.00  0.00    +0.022 A 
ATOM     21  C   UNL     1      -2.884  -0.394   6.016  0.00  0.00    +0.024 A 
ATOM     22 CL   UNL     1      -6.860  -0.635   5.731  0.00  0.00    -0.084 Cl
ENDBRANCH  14  16
ENDBRANCH  13  14
ENDBRANCH  10  13
TORSDOF 3
