REMARK  Name = ZINC44137345
REMARK  4 active torsions:
REMARK  status: ('A' for Active; 'I' for Inactive)
REMARK    1  A    between atoms: C_1  and  C_2
REMARK    2  A    between atoms: N_4  and  C_5
REMARK    3  A    between atoms: C_10  and  C_13
REMARK    4  A    between atoms: C_16  and  N_19
REMARK                            x       y       z     vdW  Elec       q    Type
REMARK                         _______ _______ _______ _____ _____    ______ ____
ROOT
ATOM      1  C   UNL     1      -1.136  -2.159   0.001  0.00  0.00    +0.078 C 
ATOM      2  C   UNL     1      -1.021  -2.662  -1.441  0.00  0.00    +0.050 C 
ATOM      3  C   UNL     1      -2.259  -2.221  -2.227  0.00  0.00    +0.162 C 
ATOM      4  O   UNL     1      -3.433  -2.725  -1.586  0.00  0.00    -0.372 OA
ATOM      5  C   UNL     1      -3.618  -2.250  -0.250  0.00  0.00    +0.150 C 
ATOM      6  C   UNL     1      -2.433  -2.692   0.617  0.00  0.00    +0.058 C 
ENDROOT
BRANCH   5   7
ATOM      7  C   UNL     1      -4.893  -2.821   0.314  0.00  0.00    -0.019 A 
ATOM      8  C   UNL     1      -5.234  -4.136   0.059  0.00  0.00    +0.008 A 
ATOM      9  C   UNL     1      -6.405  -4.659   0.576  0.00  0.00    +0.033 A 
ATOM     10  C   UNL     1      -7.234  -3.867   1.349  0.00  0.00    +0.126 A 
ATOM     11  C   UNL     1      -6.892  -2.552   1.605  0.00  0.00    +0.033 A 
ATOM     12  C   UNL     1      -5.719  -2.030   1.091  0.00  0.00    +0.008 A 
BRANCH  10  13
ATOM     13  N   UNL     1      -8.487  -4.427   1.902  0.00  0.00    +0.056 N 
ATOM     14  O   UNL     1      -8.786  -5.577   1.678  0.00  0.00    -0.126 OA
ATOM     15  O   UNL     1      -9.212  -3.734   2.578  0.00  0.00    -0.126 OA
ENDBRANCH  10  13
ENDBRANCH   5   7
BRANCH   1  19
ATOM     16  C   UNL     1      -0.018   1.503   0.010  0.00  0.00    +0.109 C 
ATOM     17  C   UNL     1       0.002  -0.004   0.002  0.00  0.00    +0.210 C 
ATOM     18  O   UNL     1       1.060  -0.596  -0.011  0.00  0.00    -0.276 OA
ATOM     19  N   UNL     1      -1.156  -0.694   0.009  0.00  0.00    -0.313 N 
ATOM     20  H   UNL     1      -2.002  -0.220   0.020  0.00  0.00    +0.149 HD
ENDBRANCH   1  19
TORSDOF 3
