REMARK  Name = ZINC16847894
REMARK  10 active torsions:
REMARK  status: ('A' for Active; 'I' for Inactive)
REMARK    1  A    between atoms: C_1  and  C_2
REMARK    2  A    between atoms: C_2  and  C_3
REMARK    3  A    between atoms: C_2  and  N_4
REMARK    4  A    between atoms: C_7  and  C_15
REMARK    5  A    between atoms: N_11  and  C_12
REMARK    6  A    between atoms: C_12  and  C_13
REMARK    7  A    between atoms: C_12  and  C_14
REMARK    8  A    between atoms: N_17  and  C_18
REMARK    9  A    between atoms: C_18  and  C_20
REMARK   10  A    between atoms: C_18  and  O_24
REMARK                            x       y       z     vdW  Elec       q    Type
REMARK                         _______ _______ _______ _____ _____    ______ ____
ROOT
ATOM      1  N   UNL     1      -0.017   1.376   0.010  0.00  0.00    -0.311 N 
ATOM      2  C   UNL     1       0.002  -0.004   0.002  0.00  0.00    +0.220 A 
ATOM      3  N   UNL     1       1.163  -0.654  -0.013  0.00  0.00    -0.190 NA
ATOM      4  C   UNL     1       1.181  -1.981  -0.020  0.00  0.00    +0.222 A 
ATOM      5  N   UNL     1       0.041  -2.661  -0.013  0.00  0.00    -0.190 NA
ATOM      6  C   UNL     1      -1.120  -2.012   0.002  0.00  0.00    +0.220 A 
ATOM      7  N   UNL     1      -1.139  -0.684   0.015  0.00  0.00    -0.181 NA
ATOM      8  N   UNL     1      -2.305  -2.720   0.009  0.00  0.00    -0.311 N 
ATOM      9  H   UNL     1      -0.863   1.849   0.016  0.00  0.00    +0.149 HD
ATOM     10  H   UNL     1      -3.152  -2.247   0.020  0.00  0.00    +0.149 HD
ENDROOT
BRANCH   4  11
ATOM     11  C   UNL     1       2.480  -2.707  -0.036  0.00  0.00    +0.283 C 
ATOM     12  O   UNL     1       3.523  -2.085  -0.042  0.00  0.00    -0.267 OA
ATOM     13  N   UNL     1       2.499  -4.054  -0.043  0.00  0.00    -0.280 N 
ATOM     14  H   UNL     1       1.666  -4.551  -0.038  0.00  0.00    +0.152 HD
BRANCH  13  15
ATOM     15  C   UNL     1       3.778  -4.769  -0.059  0.00  0.00    +0.254 C 
BRANCH  15  16
ATOM     16  C   UNL     1       3.676  -5.977  -0.992  0.00  0.00    +0.232 C 
ATOM     17 CL   UNL     1       2.377  -7.082  -0.404  0.00  0.00    -0.079 Cl
ATOM     18 CL   UNL     1       3.280  -5.417  -2.659  0.00  0.00    -0.079 Cl
ATOM     19 CL   UNL     1       5.249  -6.857  -1.011  0.00  0.00    -0.079 Cl
ENDBRANCH  15  16
BRANCH  15  20
ATOM     20  O   UNL     1       4.092  -5.213   1.263  0.00  0.00    -0.370 OA
ATOM     21  H   UNL     1       3.435  -5.812   1.643  0.00  0.00    +0.212 HD
ENDBRANCH  15  20
ENDBRANCH  13  15
ENDBRANCH   4  11
BRANCH   1  23
ATOM     22  C   UNL     1       1.731   2.286  -1.439  0.00  0.00    +0.027 C 
ATOM     23  C   UNL     1       1.242   2.126   0.002  0.00  0.00    +0.067 C 
ATOM     24  C   UNL     1       1.017   3.507   0.621  0.00  0.00    +0.027 C 
ENDBRANCH   1  23
BRANCH   8  25
ATOM     25  C   UNL     1      -2.284  -4.184   0.001  0.00  0.00    +0.067 C 
ATOM     26  C   UNL     1      -2.138  -4.700   1.434  0.00  0.00    +0.027 C 
ATOM     27  C   UNL     1      -3.590  -4.710  -0.599  0.00  0.00    +0.027 C 
ENDBRANCH   8  25
TORSDOF 6
