REMARK  Name = ZINC00717426
REMARK  7 active torsions:
REMARK  status: ('A' for Active; 'I' for Inactive)
REMARK    1  A    between atoms: C_1  and  O_2
REMARK    2  A    between atoms: O_2  and  C_3
REMARK    3  A    between atoms: C_3  and  C_5
REMARK    4  A    between atoms: C_5  and  N_6
REMARK    5  A    between atoms: C_17  and  C_28
REMARK    6  A    between atoms: C_23  and  N_27
REMARK    7  A    between atoms: C_24  and  C_25
REMARK                            x       y       z     vdW  Elec       q    Type
REMARK                         _______ _______ _______ _____ _____    ______ ____
ROOT
ATOM      1  N   UNL     1       1.879  -2.240  -1.627  0.00  0.00    -0.259 N 
ATOM      2  C   UNL     1       1.109  -2.818  -2.622  0.00  0.00    +0.042 A 
ATOM      3  C   UNL     1      -0.277  -2.956  -2.702  0.00  0.00    +0.024 A 
ATOM      4  C   UNL     1      -0.788  -3.584  -3.827  0.00  0.00    +0.002 A 
ATOM      5  C   UNL     1       0.029  -4.058  -4.833  0.00  0.00    +0.000 A 
ATOM      6  C   UNL     1       1.411  -3.927  -4.766  0.00  0.00    +0.007 A 
ATOM      7  C   UNL     1       1.927  -3.304  -3.650  0.00  0.00    -0.001 A 
ATOM      8  C   UNL     1       3.333  -2.995  -3.246  0.00  0.00    +0.145 C 
ATOM      9  C   UNL     1       3.197  -2.293  -1.913  0.00  0.00    +0.241 C 
ATOM     10  O   UNL     1       4.101  -1.861  -1.229  0.00  0.00    -0.274 OA
ATOM     11  C   UNL     1       4.006  -2.093  -4.241  0.00  0.00    +0.066 A 
ATOM     12  C   UNL     1       3.753  -0.752  -4.544  0.00  0.00    +0.101 A 
ATOM     13  N   UNL     1       4.599  -0.381  -5.486  0.00  0.00    -0.171 NA
ATOM     14  N   UNL     1       5.412  -1.479  -5.807  0.00  0.00    -0.246 N 
ATOM     15  H   UNL     1       6.122  -1.489  -6.468  0.00  0.00    +0.192 HD
ATOM     16  C   UNL     1       5.034  -2.518  -5.035  0.00  0.00    +0.224 A 
ATOM     17  O   UNL     1       5.521  -3.783  -4.983  0.00  0.00    -0.423 OA
ATOM     18  C   UNL     1       5.154  -4.560  -3.944  0.00  0.00    +0.201 C 
ATOM     19  C   UNL     1       4.146  -4.252  -3.096  0.00  0.00    +0.110 C 
ENDROOT
BRANCH  12  20
ATOM     20  C   UNL     1       2.716   0.104  -3.916  0.00  0.00    +0.003 A 
ATOM     21  C   UNL     1       3.047   1.373  -3.446  0.00  0.00    +0.011 A 
ATOM     22  C   UNL     1       2.079   2.165  -2.864  0.00  0.00    +0.020 A 
ATOM     23  C   UNL     1       0.781   1.701  -2.745  0.00  0.00    +0.041 A 
ATOM     24  C   UNL     1       0.446   0.441  -3.210  0.00  0.00    +0.020 A 
ATOM     25  C   UNL     1       1.406  -0.357  -3.800  0.00  0.00    +0.011 A 
ATOM     26 CL   UNL     1      -0.432   2.702  -2.010  0.00  0.00    -0.084 Cl
ENDBRANCH  12  20
BRANCH  18  27
ATOM     27  N   UNL     1       5.843  -5.729  -3.735  0.00  0.00    -0.328 N 
ATOM     28  H   UNL     1       6.571  -5.976  -4.326  0.00  0.00    +0.145 HD
ATOM     29  H   UNL     1       5.601  -6.309  -2.995  0.00  0.00    +0.145 HD
ENDBRANCH  18  27
BRANCH  19  30
ATOM     30  C   UNL     1       3.843  -5.151  -2.023  0.00  0.00    +0.102 C 
ATOM     31  N   UNL     1       3.602  -5.863  -1.171  0.00  0.00    -0.191 NA
ENDBRANCH  19  30
BRANCH   1  32
ATOM     32  C   UNL     1       1.327  -1.638  -0.411  0.00  0.00    +0.234 C 
BRANCH  32  33
ATOM     33  C   UNL     1       1.736  -0.189  -0.339  0.00  0.00    +0.325 C 
ATOM     34  O   UNL     1       2.530   0.255  -1.134  0.00  0.00    -0.249 OA
BRANCH  33  36
ATOM     35  C   UNL     1       1.619   1.979   0.594  0.00  0.00    +0.280 C 
ATOM     36  O   UNL     1       1.219   0.608   0.610  0.00  0.00    -0.467 OA
ENDBRANCH  33  36
ENDBRANCH  32  33
ENDBRANCH   1  32
TORSDOF 6
