REMARK  Name = ZINC13147143
REMARK  7 active torsions:
REMARK  status: ('A' for Active; 'I' for Inactive)
REMARK    1  A    between atoms: C_1  and  C_2
REMARK    2  A    between atoms: C_2  and  S_3
REMARK    3  A    between atoms: S_3  and  C_4
REMARK    4  A    between atoms: C_11  and  C_21
REMARK    5  A    between atoms: C_14  and  O_16
REMARK    6  A    between atoms: O_16  and  C_17
REMARK    7  A    between atoms: C_18  and  C_20
REMARK                            x       y       z     vdW  Elec       q    Type
REMARK                         _______ _______ _______ _____ _____    ______ ____
ROOT
ATOM      1  C   UNL     1      -1.646  -2.458   0.108  0.00  0.00    +0.171 A 
ATOM      2  N   UNL     1      -0.413  -2.916   0.107  0.00  0.00    -0.204 NA
ATOM      3  C   UNL     1      -0.163  -4.237   0.044  0.00  0.00    +0.165 A 
ATOM      4  C   UNL     1      -1.244  -5.120  -0.020  0.00  0.00    +0.073 A 
ATOM      5  C   UNL     1      -2.542  -4.629  -0.019  0.00  0.00    +0.258 A 
ATOM      6  N   UNL     1      -2.724  -3.291   0.051  0.00  0.00    -0.302 N 
ATOM      7  O   UNL     1      -3.498  -5.387  -0.075  0.00  0.00    -0.267 OA
ATOM      8  C   UNL     1      -0.957  -6.603  -0.091  0.00  0.00    +0.103 C 
ATOM      9  C   UNL     1       0.513  -6.989  -0.084  0.00  0.00    +0.070 C 
ATOM     10  C   UNL     1       0.904  -8.294  -0.144  0.00  0.00    +0.338 C 
ATOM     11  O   UNL     1       2.212  -8.601  -0.258  0.00  0.00    -0.245 OA
ATOM     12  C   UNL     1       1.449  -5.950  -0.015  0.00  0.00    +0.051 C 
ATOM     13  N   UNL     1       1.101  -4.692   0.043  0.00  0.00    -0.232 NA
ATOM     14  C   UNL     1       2.915  -6.297  -0.006  0.00  0.00    +0.066 C 
ATOM     15  H   UNL     1      -3.621  -2.923   0.058  0.00  0.00    +0.171 HD
ENDROOT
BRANCH   8  16
ATOM     16  C   UNL     1      -1.578  -7.144  -1.353  0.00  0.00    +0.002 A 
ATOM     17  C   UNL     1      -2.529  -8.099  -1.494  0.00  0.00    +0.012 A 
ATOM     18  C   UNL     1      -2.954  -8.439  -2.765  0.00  0.00    +0.008 A 
ATOM     19  C   UNL     1      -2.405  -7.808  -3.832  0.00  0.00    +0.045 A 
ATOM     20  S   UNL     1      -1.256  -6.689  -3.049  0.00  0.00    -0.101 S 
ENDBRANCH   8  16
BRANCH  10  21
ATOM     21  O   UNL     1      -0.017  -9.277  -0.089  0.00  0.00    -0.465 OA
ATOM     22  C   UNL     1       0.464 -10.621  -0.158  0.00  0.00    +0.280 C 
ENDBRANCH  10  21
BRANCH   1  23
ATOM     23  S   UNL     1      -1.913  -0.719   0.192  0.00  0.00    -0.088 S 
BRANCH  23  25
ATOM     24  C   UNL     1      -0.326   1.505   0.326  0.00  0.00    +0.016 C 
ATOM     25  C   UNL     1      -0.239  -0.020   0.250  0.00  0.00    +0.074 C 
ENDBRANCH  23  25
ENDBRANCH   1  23
TORSDOF 4
