REMARK  Name = ZINC08994797
REMARK  6 active torsions:
REMARK  status: ('A' for Active; 'I' for Inactive)
REMARK    1  A    between atoms: C_1  and  C_2
REMARK    2  A    between atoms: C_2  and  O_3
REMARK    3  A    between atoms: O_3  and  C_4
REMARK    4  A    between atoms: C_14  and  C_16
REMARK    5  A    between atoms: C_16  and  O_17
REMARK    6  A    between atoms: O_17  and  C_18
REMARK                            x       y       z     vdW  Elec       q    Type
REMARK                         _______ _______ _______ _____ _____    ______ ____
ROOT
ATOM      1  C   UNL     1       0.802  -1.825   1.306  0.00  0.00    +0.122 A 
ATOM      2  C   UNL     1       0.261  -2.683   0.353  0.00  0.00    +0.048 A 
ATOM      3  C   UNL     1       0.358  -4.043   0.478  0.00  0.00    +0.032 A 
ATOM      4  C   UNL     1       1.015  -4.623   1.588  0.00  0.00    +0.081 A 
ATOM      5  C   UNL     1       1.553  -3.724   2.536  0.00  0.00    +0.044 A 
ATOM      6  C   UNL     1       1.459  -2.361   2.403  0.00  0.00    +0.063 A 
ATOM      7  S   UNL     1       2.271  -4.823   3.734  0.00  0.00    -0.052 S 
ATOM      8  C   UNL     1       1.827  -6.355   2.928  0.00  0.00    +0.166 A 
ATOM      9  N   UNL     1       1.195  -5.936   1.858  0.00  0.00    -0.225 NA
ATOM     10  N   UNL     1       2.086  -7.656   3.331  0.00  0.00    -0.262 N 
ATOM     11  C   UNL     1       1.664  -8.691   2.578  0.00  0.00    +0.256 C 
ATOM     12  O   UNL     1       1.059  -8.484   1.548  0.00  0.00    -0.272 OA
ATOM     13  H   UNL     1       2.570  -7.821   4.155  0.00  0.00    +0.157 HD
ENDROOT
BRANCH   1  14
ATOM     14  O   UNL     1       0.693  -0.477   1.160  0.00  0.00    -0.492 OA
BRANCH  14  16
ATOM     15  C   UNL     1      -0.019   1.526   0.010  0.00  0.00    +0.048 C 
ATOM     16  C   UNL     1       0.002  -0.004   0.002  0.00  0.00    +0.225 C 
ENDBRANCH  14  16
ENDBRANCH   1  14
BRANCH  11  17
ATOM     17  C   UNL     1       1.944 -10.105   3.017  0.00  0.00    +0.324 C 
BRANCH  17  18
ATOM     18  O   UNL     1       1.402 -11.017   2.060  0.00  0.00    -0.483 OA
BRANCH  18  19
ATOM     19  C   UNL     1       1.569 -12.343   2.307  0.00  0.00    +0.121 A 
ATOM     20  C   UNL     1       2.237 -12.758   3.450  0.00  0.00    +0.045 A 
ATOM     21  C   UNL     1       2.405 -14.106   3.699  0.00  0.00    +0.004 A 
ATOM     22  C   UNL     1       1.909 -15.042   2.810  0.00  0.00    +0.000 A 
ATOM     23  C   UNL     1       1.244 -14.631   1.670  0.00  0.00    +0.004 A 
ATOM     24  C   UNL     1       1.068 -13.284   1.419  0.00  0.00    +0.045 A 
ENDBRANCH  18  19
ENDBRANCH  17  18
ENDBRANCH  11  17
TORSDOF 5
