REMARK  Name = ZINC19907735
REMARK  8 active torsions:
REMARK  status: ('A' for Active; 'I' for Inactive)
REMARK    1  A    between atoms: C_1  and  C_2
REMARK    2  A    between atoms: C_3  and  C_9
REMARK    3  A    between atoms: C_4  and  O_8
REMARK    4  A    between atoms: C_9  and  C_10
REMARK    5  A    between atoms: C_9  and  C_18
REMARK    6  A    between atoms: C_13  and  C_16
REMARK    7  A    between atoms: C_19  and  C_25
REMARK    8  A    between atoms: C_23  and  O_24
REMARK                            x       y       z     vdW  Elec       q    Type
REMARK                         _______ _______ _______ _____ _____    ______ ____
ROOT
ATOM      1  C   UNL     1      -0.119  -0.321  -2.553  0.00  0.00    +0.093 C 
ENDROOT
BRANCH   1   4
ATOM      2  C   UNL     1       2.596  -1.262  -1.217  0.00  0.00    +0.068 C 
ATOM      3  C   UNL     1       1.212  -1.701  -0.812  0.00  0.00    +0.068 A 
ATOM      4  C   UNL     1       0.015  -1.285  -1.403  0.00  0.00    +0.048 A 
ATOM      5  C   UNL     1      -1.007  -1.905  -0.754  0.00  0.00    +0.213 A 
ATOM      6  N   UNL     1      -0.467  -2.683   0.210  0.00  0.00    -0.247 N 
ATOM      7  H   UNL     1      -0.957  -3.243   0.832  0.00  0.00    +0.192 HD
ATOM      8  N   UNL     1       0.925  -2.542   0.149  0.00  0.00    -0.176 NA
BRANCH   5   9
ATOM      9  O   UNL     1      -2.329  -1.767  -1.026  0.00  0.00    -0.492 OA
ATOM     10  H   UNL     1      -2.685  -2.453  -1.608  0.00  0.00    +0.294 HD
ENDBRANCH   5   9
ENDBRANCH   1   4
BRANCH   1  11
ATOM     11  C   UNL     1      -1.413  -0.582  -3.279  0.00  0.00    +0.048 A 
ATOM     12  C   UNL     1      -2.379   0.330  -3.538  0.00  0.00    +0.041 A 
ATOM     13  N   UNL     1      -3.371  -0.297  -4.204  0.00  0.00    -0.278 N 
ATOM     14  N   UNL     1      -3.006  -1.640  -4.362  0.00  0.00    -0.136 NA
ATOM     15  H   UNL     1      -4.193   0.111  -4.519  0.00  0.00    +0.189 HD
ATOM     16  C   UNL     1      -1.828  -1.811  -3.811  0.00  0.00    +0.236 A 
ATOM     17  C   UNL     1      -2.351   1.786  -3.151  0.00  0.00    +0.065 C 
BRANCH  16  18
ATOM     18  O   UNL     1      -1.132  -2.978  -3.763  0.00  0.00    -0.491 OA
ATOM     19  H   UNL     1      -1.377  -3.552  -3.024  0.00  0.00    +0.294 HD
ENDBRANCH  16  18
ENDBRANCH   1  11
BRANCH   1  20
ATOM     20  C   UNL     1       1.036  -0.508  -3.502  0.00  0.00    -0.035 A 
ATOM     21  C   UNL     1       1.360  -1.776  -3.952  0.00  0.00    +0.006 A 
ATOM     22  C   UNL     1       2.416  -1.954  -4.821  0.00  0.00    +0.019 A 
ATOM     23  C   UNL     1       3.159  -0.852  -5.248  0.00  0.00    +0.052 A 
ATOM     24  C   UNL     1       2.827   0.425  -4.790  0.00  0.00    +0.019 A 
ATOM     25  C   UNL     1       1.765   0.590  -3.925  0.00  0.00    +0.006 A 
BRANCH  23  26
ATOM     26  C   UNL     1       4.257  -1.030  -6.149  0.00  0.00    +0.099 C 
ATOM     27  N   UNL     1       5.128  -1.171  -6.865  0.00  0.00    -0.191 NA
ENDBRANCH  23  26
ENDBRANCH   1  20
TORSDOF 6
