REMARK  Name = ZINC02737241
REMARK  9 active torsions:
REMARK  status: ('A' for Active; 'I' for Inactive)
REMARK    1  A    between atoms: C_1  and  C_2
REMARK    2  A    between atoms: C_2  and  C_3
REMARK    3  A    between atoms: C_3  and  O_4
REMARK    4  A    between atoms: O_4  and  C_5
REMARK    5  A    between atoms: C_5  and  C_7
REMARK    6  A    between atoms: C_11  and  N_12
REMARK    7  A    between atoms: C_13  and  C_15
REMARK    8  A    between atoms: C_16  and  C_17
REMARK    9  A    between atoms: C_24  and  C_28
REMARK                            x       y       z     vdW  Elec       q    Type
REMARK                         _______ _______ _______ _____ _____    ______ ____
ROOT
ATOM      1  C   UNL     1      -2.664  -4.077   0.006  0.00  0.00    +0.091 A 
ATOM      2  C   UNL     1      -2.676  -4.838   1.244  0.00  0.00    -0.021 A 
ATOM      3  C   UNL     1      -2.736  -6.178   1.095  0.00  0.00    -0.004 A 
ATOM      4  S   UNL     1      -2.762  -6.440  -0.655  0.00  0.00    -0.077 S 
ATOM      5  C   UNL     1      -2.703  -4.791  -1.185  0.00  0.00    +0.087 A 
ATOM      6  C   UNL     1      -2.767  -7.207   2.183  0.00  0.00    +0.046 C 
ATOM      7  C   UNL     1      -3.105  -6.504   3.505  0.00  0.00    -0.009 C 
ATOM      8  C   UNL     1      -2.218  -5.264   3.645  0.00  0.00    +0.008 C 
ATOM      9  C   UNL     1      -2.643  -4.202   2.629  0.00  0.00    +0.037 C 
ATOM     10  C   UNL     1      -2.848  -7.457   4.674  0.00  0.00    +0.008 C 
ENDROOT
BRANCH   5  11
ATOM     11  N   UNL     1      -2.696  -4.304  -2.481  0.00  0.00    -0.276 N 
ATOM     12  C   UNL     1      -2.739  -5.158  -3.523  0.00  0.00    +0.241 C 
ATOM     13  O   UNL     1      -2.783  -6.358  -3.324  0.00  0.00    -0.270 OA
ATOM     14  H   UNL     1      -2.660  -3.348  -2.640  0.00  0.00    +0.156 HD
BRANCH  12  15
ATOM     15  C   UNL     1      -2.732  -4.643  -4.893  0.00  0.00    +0.068 C 
ATOM     16  C   UNL     1      -2.775  -5.498  -5.935  0.00  0.00    +0.013 C 
BRANCH  16  17
ATOM     17  C   UNL     1      -2.768  -4.980  -7.312  0.00  0.00    -0.025 A 
ATOM     18  C   UNL     1      -2.722  -3.601  -7.545  0.00  0.00    +0.008 A 
ATOM     19  C   UNL     1      -2.710  -3.124  -8.838  0.00  0.00    +0.001 A 
ATOM     20  C   UNL     1      -2.754  -4.005  -9.905  0.00  0.00    +0.000 A 
ATOM     21  C   UNL     1      -2.805  -5.370  -9.683  0.00  0.00    +0.001 A 
ATOM     22  C   UNL     1      -2.812  -5.863  -8.396  0.00  0.00    +0.008 A 
ENDBRANCH  16  17
ENDBRANCH  12  15
ENDBRANCH   5  11
BRANCH   1  23
ATOM     23  C   UNL     1      -2.607  -2.614   0.013  0.00  0.00    +0.342 C 
ATOM     24  O   UNL     1      -3.636  -1.966   0.026  0.00  0.00    -0.245 OA
BRANCH  23  25
ATOM     25  O   UNL     1      -1.414  -1.986   0.005  0.00  0.00    -0.461 OA
BRANCH  25  26
ATOM     26  C   UNL     1      -1.433  -0.534   0.013  0.00  0.00    +0.232 C 
BRANCH  26  28
ATOM     27  C   UNL     1      -0.019   1.526   0.010  0.00  0.00    +0.007 C 
ATOM     28  C   UNL     1       0.002  -0.004   0.002  0.00  0.00    +0.038 C 
ENDBRANCH  26  28
ENDBRANCH  25  26
ENDBRANCH  23  25
ENDBRANCH   1  23
TORSDOF 7
