REMARK  Name = ZINC65482401
REMARK  11 active torsions:
REMARK  status: ('A' for Active; 'I' for Inactive)
REMARK    1  A    between atoms: C_1  and  C_2
REMARK    2  A    between atoms: C_2  and  N_3
REMARK    3  A    between atoms: N_3  and  C_4
REMARK    4  A    between atoms: N_3  and  C_6
REMARK    5  A    between atoms: C_4  and  C_5
REMARK    6  A    between atoms: C_6  and  C_7
REMARK    7  A    between atoms: C_6  and  C_25
REMARK    8  A    between atoms: C_7  and  N_8
REMARK    9  A    between atoms: N_11  and  C_12
REMARK   10  A    between atoms: C_12  and  C_13
REMARK   11  A    between atoms: C_23  and  C_24
REMARK                            x       y       z     vdW  Elec       q    Type
REMARK                         _______ _______ _______ _____ _____    ______ ____
ROOT
ATOM      1  N   UNL     1       2.659  -1.309  -2.816  0.00  0.00    -0.301 N 
ATOM      2  C   UNL     1       3.308  -1.210  -3.993  0.00  0.00    +0.300 C 
ATOM      3  O   UNL     1       2.856  -1.752  -4.984  0.00  0.00    -0.253 OA
ATOM      4  N   UNL     1       4.458  -0.512  -4.072  0.00  0.00    -0.295 N 
ATOM      5  H   UNL     1       3.019  -0.877  -2.026  0.00  0.00    +0.150 HD
ATOM      6  H   UNL     1       4.819  -0.080  -3.282  0.00  0.00    +0.151 HD
ENDROOT
BRANCH   1   7
ATOM      7  C   UNL     1       1.409  -2.068  -2.730  0.00  0.00    +0.098 C 
BRANCH   7   8
ATOM      8  C   UNL     1       0.815  -1.915  -1.328  0.00  0.00    +0.016 C 
BRANCH   8   9
ATOM      9  C   UNL     1      -0.525  -2.601  -1.273  0.00  0.00    +0.093 A 
ATOM     10  C   UNL     1      -0.797  -3.746  -0.621  0.00  0.00    +0.043 A 
ATOM     11  C   UNL     1      -2.167  -4.024  -0.835  0.00  0.00    +0.041 A 
ATOM     12  C   UNL     1      -2.650  -3.032  -1.605  0.00  0.00    +0.195 A 
ATOM     13  O   UNL     1      -1.653  -2.171  -1.862  0.00  0.00    -0.469 OA
ENDBRANCH   8   9
BRANCH   8  14
ATOM     14  N   UNL     1       0.648  -0.489  -1.020  0.00  0.00    +0.387 N 
ATOM     15  H   UNL     1       1.552  -0.040  -1.006  0.00  0.00    -0.081 HD
BRANCH  14  17
ATOM     16  C   UNL     1      -0.240   1.650  -1.814  0.00  0.00    -0.017 C 
ATOM     17  C   UNL     1      -0.195   0.139  -2.045  0.00  0.00    -0.081 C 
ENDBRANCH  14  17
BRANCH  14  18
ATOM     18  C   UNL     1       0.010  -0.344   0.295  0.00  0.00    -0.081 C 
ATOM     19  C   UNL     1       0.952  -0.868   1.381  0.00  0.00    -0.017 C 
ENDBRANCH  14  18
ENDBRANCH   8  14
ENDBRANCH   7   8
ENDBRANCH   1   7
BRANCH   4  20
ATOM     20  C   UNL     1       5.164  -0.405  -5.352  0.00  0.00    +0.141 C 
BRANCH  20  21
ATOM     21  C   UNL     1       6.410   0.422  -5.170  0.00  0.00    -0.025 A 
ATOM     22  C   UNL     1       6.379   1.800  -5.337  0.00  0.00    +0.025 A 
ATOM     23  C   UNL     1       7.540   2.528  -5.163  0.00  0.00    +0.113 A 
ATOM     24  N   UNL     1       8.671   1.931  -4.842  0.00  0.00    -0.238 NA
ATOM     25  C   UNL     1       8.741   0.620  -4.675  0.00  0.00    +0.139 A 
ATOM     26  C   UNL     1       7.612  -0.174  -4.828  0.00  0.00    +0.052 A 
ATOM     27  N   UNL     1       9.962   0.030  -4.334  0.00  0.00    -0.288 N 
ATOM     28  C   UNL     1      10.194  -1.307  -4.134  0.00  0.00    +0.114 A 
ATOM     29  C   UNL     1      11.498  -1.434  -3.826  0.00  0.00    +0.131 A 
ATOM     30  N   UNL     1      12.053  -0.213  -3.837  0.00  0.00    -0.241 NA
ATOM     31  C   UNL     1      11.145   0.672  -4.146  0.00  0.00    +0.112 A 
ATOM     32  C   UNL     1      11.370   2.157  -4.268  0.00  0.00    +0.086 C 
ENDBRANCH  20  21
ENDBRANCH   4  20
TORSDOF 8
