REMARK  Name = ZINC13425181
REMARK  10 active torsions:
REMARK  status: ('A' for Active; 'I' for Inactive)
REMARK    1  A    between atoms: C_1  and  N_2
REMARK    2  A    between atoms: N_2  and  C_3
REMARK    3  A    between atoms: N_2  and  C_4
REMARK    4  A    between atoms: C_7  and  C_10
REMARK    5  A    between atoms: N_11  and  N_12
REMARK    6  A    between atoms: N_23  and  C1*_24
REMARK    7  A    between atoms: C2*_26  and  O2*_36
REMARK    8  A    between atoms: C3*_28  and  O3*_35
REMARK    9  A    between atoms: C4*_30  and  C5*_33
REMARK   10  A    between atoms: C5*_33  and  O5*_34
REMARK                            x       y       z     vdW  Elec       q    Type
REMARK                         _______ _______ _______ _____ _____    ______ ____
ROOT
ATOM      1  N   UNL     1      -0.433   0.207   3.869  0.00  0.00    -0.206 N 
ATOM      2  C   UNL     1      -0.151  -1.139   4.010  0.00  0.00    +0.220 A 
ATOM      3  N   UNL     1       0.020  -1.759   5.150  0.00  0.00    -0.206 NA
ATOM      4  C   UNL     1       0.280  -3.071   4.912  0.00  0.00    +0.174 A 
ATOM      5  C   UNL     1       0.540  -4.186   5.740  0.00  0.00    +0.280 A 
ATOM      6  O   UNL     1       0.563  -4.071   6.954  0.00  0.00    -0.265 OA
ATOM      7  N   UNL     1       0.764  -5.383   5.154  0.00  0.00    -0.293 N 
ATOM      8  H   UNL     1       0.951  -6.186   5.719  0.00  0.00    +0.172 HD
ATOM      9  C   UNL     1       0.735  -5.500   3.796  0.00  0.00    +0.195 A 
ATOM     10  N   UNL     1       0.495  -4.471   3.016  0.00  0.00    -0.196 NA
ATOM     11  C   UNL     1       0.260  -3.256   3.526  0.00  0.00    +0.173 A 
ATOM     12  N   UNL     1      -0.008  -2.027   2.977  0.00  0.00    -0.266 N 
ATOM     13  N   UNL     1       0.965  -6.729   3.228  0.00  0.00    -0.329 N 
ATOM     14  H   UNL     1      -0.546   0.590   2.985  0.00  0.00    +0.177 HD
ATOM     15  H   UNL     1       1.875  -7.051   3.488  0.00  0.00    +0.145 HD
ATOM     16  H   UNL     1       0.948  -6.828   2.263  0.00  0.00    +0.145 HD
ENDROOT
BRANCH  12  17
ATOM     17  C1* UNL     1      -0.126  -1.722   1.549  0.00  0.00    +0.255 C 
ATOM     18  C2* UNL     1      -1.599  -1.422   1.171  0.00  0.00    +0.195 C 
ATOM     19  C3* UNL     1      -1.437  -0.547  -0.096  0.00  0.00    +0.178 C 
ATOM     20  C4* UNL     1       0.002  -0.004   0.002  0.00  0.00    +0.177 C 
ATOM     21  O4* UNL     1       0.560  -0.492   1.233  0.00  0.00    -0.346 OA
BRANCH  19  22
ATOM     22  O3* UNL     1      -1.593  -1.340  -1.274  0.00  0.00    -0.386 OA
ATOM     23  H3* UNL     1      -1.445  -0.855  -2.097  0.00  0.00    +0.210 HD
ENDBRANCH  19  22
BRANCH  18  24
ATOM     24  O2* UNL     1      -2.254  -0.696   2.213  0.00  0.00    -0.385 OA
ATOM     25  H2* UNL     1      -3.179  -0.484   2.023  0.00  0.00    +0.210 HD
ENDBRANCH  18  24
BRANCH  20  26
ATOM     26  C5* UNL     1      -0.019   1.526   0.010  0.00  0.00    +0.190 C 
BRANCH  26  27
ATOM     27  O5* UNL     1       1.322   2.020   0.000  0.00  0.00    -0.392 OA
ATOM     28  H5* UNL     1       1.385   2.985   0.005  0.00  0.00    +0.210 HD
ENDBRANCH  26  27
ENDBRANCH  20  26
ENDBRANCH  12  17
BRANCH   1  30
ATOM     29  C   UNL     1      -0.821   2.283   4.873  0.00  0.00    +0.138 C 
ATOM     30  N   UNL     1      -0.556   1.019   5.005  0.00  0.00    -0.188 NA
BRANCH  29  34
ATOM     31  C   UNL     1      -1.193   4.744   8.313  0.00  0.00    +0.029 A 
ATOM     32  C   UNL     1      -1.355   5.294   7.046  0.00  0.00    +0.024 A 
ATOM     33  C   UNL     1      -1.235   4.499   5.927  0.00  0.00    +0.011 A 
ATOM     34  C   UNL     1      -0.950   3.138   6.067  0.00  0.00    -0.005 A 
ATOM     35  C   UNL     1      -0.793   2.587   7.342  0.00  0.00    +0.011 A 
ATOM     36  C   UNL     1      -0.909   3.390   8.456  0.00  0.00    +0.024 A 
BRANCH  31  38
ATOM     37  C   UNL     1      -1.615   6.979   9.295  0.00  0.00    +0.129 C 
ATOM     38  N   UNL     1      -1.316   5.553   9.443  0.00  0.00    -0.336 N 
ATOM     39  C   UNL     1      -1.146   4.975  10.779  0.00  0.00    +0.129 C 
ENDBRANCH  31  38
ENDBRANCH  29  34
ENDBRANCH   1  30
TORSDOF 8
