REMARK  Name = ZINC46961332
REMARK  9 active torsions:
REMARK  status: ('A' for Active; 'I' for Inactive)
REMARK    1  A    between atoms: C_1  and  C_2
REMARK    2  A    between atoms: C_4  and  C_28
REMARK    3  A    between atoms: N_5  and  C_7
REMARK    4  A    between atoms: C_7  and  C_8
REMARK    5  A    between atoms: N_10  and  N_11
REMARK    6  A    between atoms: N_14  and  C_15
REMARK    7  A    between atoms: C_18  and  C_26
REMARK    8  A    between atoms: C_18  and  C_27
REMARK    9  A    between atoms: C_23  and  C_25
REMARK                            x       y       z     vdW  Elec       q    Type
REMARK                         _______ _______ _______ _____ _____    ______ ____
ROOT
ATOM      1  N   UNL     1       3.075  -5.110   2.818  0.00  0.00    -0.218 N 
ATOM      2  C   UNL     1       3.339  -6.179   3.595  0.00  0.00    +0.316 C 
ATOM      3  O   UNL     1       4.491  -6.492   3.827  0.00  0.00    -0.251 OA
ATOM      4  N   UNL     1       2.327  -6.902   4.114  0.00  0.00    -0.291 N 
ATOM      5  H   UNL     1       3.803  -4.590   2.444  0.00  0.00    +0.174 HD
ATOM      6  H   UNL     1       1.408  -6.653   3.928  0.00  0.00    +0.151 HD
ENDROOT
BRANCH   4   7
ATOM      7  C   UNL     1       2.615  -8.065   4.958  0.00  0.00    +0.109 C 
ATOM      8  C   UNL     1       1.431  -9.038   4.918  0.00  0.00    +0.034 C 
ATOM      9  C   UNL     1       1.615 -10.109   5.997  0.00  0.00    -0.026 C 
ATOM     10  C   UNL     1       1.433  -9.477   7.383  0.00  0.00    +0.081 C 
ATOM     11  C   UNL     1       2.294  -8.240   7.460  0.00  0.00    +0.111 A 
ATOM     12  C   UNL     1       2.818  -7.619   6.383  0.00  0.00    +0.014 A 
ATOM     13  C   UNL     1       3.555  -6.519   6.855  0.00  0.00    +0.050 A 
ATOM     14  C   UNL     1       3.443  -6.526   8.198  0.00  0.00    +0.103 A 
ATOM     15  O   UNL     1       2.674  -7.573   8.556  0.00  0.00    -0.464 OA
ATOM     16  C   UNL     1       4.070  -5.531   9.140  0.00  0.00    +0.086 C 
ATOM     17  C   UNL     1       0.576 -11.215   5.801  0.00  0.00    +0.011 C 
ATOM     18  C   UNL     1       3.020 -10.705   5.889  0.00  0.00    +0.011 C 
ENDBRANCH   4   7
BRANCH   1  21
ATOM     19  C   UNL     1       1.482  -3.682   1.773  0.00  0.00    +0.251 C 
ATOM     20  O   UNL     1       2.393  -3.031   1.306  0.00  0.00    -0.272 OA
ATOM     21  N   UNL     1       1.747  -4.751   2.550  0.00  0.00    -0.232 N 
ATOM     22  H   UNL     1       1.019  -5.271   2.923  0.00  0.00    +0.173 HD
BRANCH  19  23
ATOM     23  C   UNL     1       0.055  -3.295   1.485  0.00  0.00    +0.240 C 
BRANCH  23  28
ATOM     24  C   UNL     1      -0.018   1.503   0.010  0.00  0.00    +0.067 C 
ATOM     25  C   UNL     1       0.002  -0.004   0.002  0.00  0.00    +0.060 A 
ATOM     26  C   UNL     1       0.008  -0.818  -1.135  0.00  0.00    +0.047 A 
ATOM     27  C   UNL     1       0.028  -2.107  -0.725  0.00  0.00    +0.037 A 
ATOM     28  N   UNL     1       0.034  -2.109   0.625  0.00  0.00    -0.259 N 
ATOM     29  N   UNL     1       0.023  -0.777   1.058  0.00  0.00    -0.176 NA
ATOM     30  C   UNL     1       0.040  -3.323  -1.615  0.00  0.00    +0.065 C 
ENDBRANCH  23  28
ENDBRANCH  19  23
ENDBRANCH   1  21
TORSDOF 4
