REMARK  Name = ZINC58912583
REMARK  9 active torsions:
REMARK  status: ('A' for Active; 'I' for Inactive)
REMARK    1  A    between atoms: C_1  and  C_2
REMARK    2  A    between atoms: C_5  and  N_9
REMARK    3  A    between atoms: C_13  and  S_14
REMARK    4  A    between atoms: S_14  and  C_15
REMARK    5  A    between atoms: C_15  and  C_16
REMARK    6  A    between atoms: N_18  and  C_19
REMARK    7  A    between atoms: C_19  and  C_21
REMARK    8  A    between atoms: C_19  and  C_22
REMARK    9  A    between atoms: C_25  and  N_28
REMARK                            x       y       z     vdW  Elec       q    Type
REMARK                         _______ _______ _______ _____ _____    ______ ____
ROOT
ATOM      1  C   UNL     1       3.890  -5.895   3.455  0.00  0.00    +0.224 C 
ATOM      2  O   UNL     1       4.201  -4.729   3.575  0.00  0.00    -0.275 OA
ATOM      3  N   UNL     1       4.649  -6.856   4.018  0.00  0.00    -0.308 N 
ATOM      4  H   UNL     1       4.401  -7.789   3.922  0.00  0.00    +0.149 HD
ENDROOT
BRANCH   3   5
ATOM      5  C   UNL     1       5.849  -6.492   4.775  0.00  0.00    +0.100 C 
ATOM      6  C   UNL     1       5.461  -6.159   6.217  0.00  0.00    +0.033 C 
BRANCH   5   7
ATOM      7  C   UNL     1       6.817  -7.648   4.770  0.00  0.00    -0.027 A 
ATOM      8  C   UNL     1       6.346  -8.941   4.900  0.00  0.00    +0.007 A 
ATOM      9  C   UNL     1       7.230 -10.003   4.896  0.00  0.00    +0.023 A 
ATOM     10  C   UNL     1       8.592  -9.769   4.759  0.00  0.00    +0.035 A 
ATOM     11  C   UNL     1       9.061  -8.469   4.628  0.00  0.00    +0.023 A 
ATOM     12  C   UNL     1       8.172  -7.412   4.628  0.00  0.00    +0.007 A 
BRANCH  10  13
ATOM     13  N   UNL     1       9.491 -10.843   4.755  0.00  0.00    -0.270 N 
ATOM     14  C   UNL     1       9.124 -12.026   4.225  0.00  0.00    +0.301 C 
ATOM     15  O   UNL     1       8.050 -12.135   3.665  0.00  0.00    -0.253 OA
ATOM     16  N   UNL     1       9.947 -13.089   4.315  0.00  0.00    -0.313 N 
ATOM     17  H   UNL     1      10.377 -10.735   5.133  0.00  0.00    +0.156 HD
ATOM     18  H   UNL     1      10.803 -13.003   4.762  0.00  0.00    +0.146 HD
ATOM     19  H   UNL     1       9.683 -13.941   3.934  0.00  0.00    +0.146 HD
ENDBRANCH  10  13
ENDBRANCH   5   7
ENDBRANCH   3   5
BRANCH   1  20
ATOM     20  C   UNL     1       2.656  -6.269   2.676  0.00  0.00    +0.173 C 
BRANCH  20  21
ATOM     21  S   UNL     1       1.858  -4.766   2.049  0.00  0.00    -0.076 S 
BRANCH  21  26
ATOM     22  N   UNL     1      -0.479  -4.608   0.513  0.00  0.00    -0.277 N 
ATOM     23  C   UNL     1      -1.373  -5.500  -0.015  0.00  0.00    +0.230 A 
ATOM     24  N   UNL     1      -0.979  -6.694   0.329  0.00  0.00    -0.137 NA
ATOM     25  N   UNL     1       0.094  -6.620   1.032  0.00  0.00    -0.122 NA
ATOM     26  C   UNL     1       0.451  -5.364   1.173  0.00  0.00    +0.196 A 
BRANCH  22  31
ATOM     27  C   UNL     1      -0.595   1.048   0.040  0.00  0.00    +0.045 C 
ATOM     28  C   UNL     1      -0.564  -0.453   0.166  0.00  0.00    -0.032 A 
ATOM     29  C   UNL     1      -0.693  -1.243  -0.962  0.00  0.00    +0.007 A 
ATOM     30  C   UNL     1      -0.666  -2.619  -0.849  0.00  0.00    +0.026 A 
ATOM     31  C   UNL     1      -0.507  -3.210   0.397  0.00  0.00    +0.051 A 
ATOM     32  C   UNL     1      -0.377  -2.416   1.527  0.00  0.00    +0.046 A 
ATOM     33  C   UNL     1      -0.400  -1.039   1.409  0.00  0.00    +0.046 A 
ATOM     34 CL   UNL     1      -0.231  -0.043   2.821  0.00  0.00    -0.083 Cl
ENDBRANCH  22  31
ENDBRANCH  21  26
ENDBRANCH  20  21
ENDBRANCH   1  20
TORSDOF 7
