REMARK  Name = ZINC16855301
REMARK  6 active torsions:
REMARK  status: ('A' for Active; 'I' for Inactive)
REMARK    1  A    between atoms: C_1  and  C_2
REMARK    2  A    between atoms: C_3  and  C_22
REMARK    3  A    between atoms: C_22  and  C_23
REMARK    4  A    between atoms: C_23  and  C_24
REMARK    5  A    between atoms: C_24  and  C_25
REMARK    6  A    between atoms: C_24  and  C_26
REMARK                            x       y       z     vdW  Elec       q    Type
REMARK                         _______ _______ _______ _____ _____    ______ ____
ROOT
ATOM      1  C   UNL     1       1.254  -2.153  -0.021  0.00  0.00    +0.066 C 
ATOM      2  C   UNL     1       1.206  -0.646  -0.013  0.00  0.00    +0.050 A 
ATOM      3  C   UNL     1       0.002  -0.004   0.002  0.00  0.00    +0.038 A 
ATOM      4  C   UNL     1      -0.017   1.403   0.010  0.00  0.00    +0.256 A 
ATOM      5  O   UNL     1      -1.075   2.010   0.018  0.00  0.00    -0.267 OA
ATOM      6  N   UNL     1       1.158   2.067   0.002  0.00  0.00    -0.295 N 
ATOM      7  H   UNL     1       1.169   3.037   0.007  0.00  0.00    +0.172 HD
ATOM      8  C   UNL     1       2.327   1.372  -0.013  0.00  0.00    +0.202 A 
ATOM      9  N   UNL     1       2.337   0.055  -0.020  0.00  0.00    -0.221 NA
ATOM     10  N   UNL     1       3.519   2.056  -0.021  0.00  0.00    -0.255 N 
ATOM     11  C   UNL     1       4.707   1.366  -0.036  0.00  0.00    +0.202 A 
ATOM     12  N   UNL     1       5.880   2.055  -0.050  0.00  0.00    -0.295 N 
ATOM     13  H   UNL     1       5.875   3.025  -0.048  0.00  0.00    +0.172 HD
ATOM     14  C   UNL     1       7.050   1.382  -0.061  0.00  0.00    +0.256 A 
ATOM     15  O   UNL     1       8.112   1.983  -0.068  0.00  0.00    -0.267 OA
ATOM     16  C   UNL     1       7.022  -0.025  -0.068  0.00  0.00    +0.038 A 
ATOM     17  C   UNL     1       5.818  -0.664  -0.059  0.00  0.00    +0.053 A 
ATOM     18  N   UNL     1       4.690   0.050  -0.043  0.00  0.00    -0.220 NA
ATOM     19  C   UNL     1       6.028  -2.163  -0.069  0.00  0.00    +0.056 C 
ATOM     20  C   UNL     1       7.491  -2.361  -0.522  0.00  0.00    +0.011 C 
ATOM     21  C   UNL     1       8.149  -1.034  -0.086  0.00  0.00    +0.043 C 
ATOM     22  H   UNL     1       3.522   3.026  -0.016  0.00  0.00    +0.158 HD
ENDROOT
BRANCH   3  23
ATOM     23  C   UNL     1      -1.285  -0.788   0.011  0.00  0.00    +0.042 C 
BRANCH  23  24
ATOM     24  C   UNL     1      -1.772  -0.954   1.452  0.00  0.00    +0.008 C 
BRANCH  24  25
ATOM     25  C   UNL     1      -3.078  -1.749   1.460  0.00  0.00    -0.017 C 
ATOM     26  C   UNL     1      -2.814  -3.170   0.957  0.00  0.00    +0.007 C 
ATOM     27  C   UNL     1      -3.630  -1.808   2.886  0.00  0.00    +0.007 C 
ENDBRANCH  24  25
ENDBRANCH  23  24
ENDBRANCH   3  23
TORSDOF 3
