REMARK  Name = ZINC00090523
REMARK  6 active torsions:
REMARK  status: ('A' for Active; 'I' for Inactive)
REMARK    1  A    between atoms: C_3  and  O_28
REMARK    2  A    between atoms: C_4  and  O_27
REMARK    3  A    between atoms: C_6  and  C_7
REMARK    4  A    between atoms: C_10  and  C_21
REMARK    5  A    between atoms: C_16  and  N_20
REMARK    6  A    between atoms: C_17  and  C_18
REMARK                            x       y       z     vdW  Elec       q    Type
REMARK                         _______ _______ _______ _____ _____    ______ ____
ROOT
ATOM      1  C   UNL     1      -1.373  -0.890   0.019  0.00  0.00    +0.102 C 
ATOM      2  C   UNL     1      -2.198  -0.368  -1.129  0.00  0.00    +0.054 A 
ATOM      3  C   UNL     1      -2.020  -0.554  -2.503  0.00  0.00    +0.100 A 
ATOM      4  N   UNL     1      -2.987   0.091  -3.128  0.00  0.00    -0.171 NA
ATOM      5  N   UNL     1      -3.804   0.705  -2.166  0.00  0.00    -0.246 N 
ATOM      6  H   UNL     1      -4.589   1.244  -2.345  0.00  0.00    +0.192 HD
ATOM      7  C   UNL     1      -3.304   0.411  -0.947  0.00  0.00    +0.223 A 
ATOM      8  O   UNL     1      -3.751   0.774   0.281  0.00  0.00    -0.423 OA
ATOM      9  C   UNL     1      -3.240   0.127   1.348  0.00  0.00    +0.200 C 
ATOM     10  C   UNL     1      -2.142  -0.662   1.296  0.00  0.00    +0.098 C 
ENDROOT
BRANCH   1  16
ATOM     11  C   UNL     1      -0.048   1.227   0.173  0.00  0.00    +0.008 A 
ATOM     12  C   UNL     1       1.154   1.909   0.228  0.00  0.00    +0.049 A 
ATOM     13  C   UNL     1       2.349   1.210   0.187  0.00  0.00    +0.158 A 
ATOM     14  C   UNL     1       2.337  -0.179   0.092  0.00  0.00    +0.159 A 
ATOM     15  C   UNL     1       1.130  -0.856   0.037  0.00  0.00    +0.053 A 
ATOM     16  C   UNL     1      -0.060  -0.152   0.078  0.00  0.00    -0.031 A 
BRANCH  14  17
ATOM     17  O   UNL     1       3.508  -0.870   0.051  0.00  0.00    -0.503 OA
ATOM     18  H   UNL     1       3.841  -1.130   0.921  0.00  0.00    +0.292 HD
ENDBRANCH  14  17
BRANCH  13  19
ATOM     19  O   UNL     1       3.532   1.879   0.240  0.00  0.00    -0.503 OA
ATOM     20  H   UNL     1       3.869   2.012   1.137  0.00  0.00    +0.292 HD
ENDBRANCH  13  19
ENDBRANCH   1  16
BRANCH   3  21
ATOM     21  C   UNL     1      -0.937  -1.339  -3.144  0.00  0.00    +0.005 A 
ATOM     22  C   UNL     1      -0.541  -2.574  -2.624  0.00  0.00    +0.030 A 
ATOM     23  C   UNL     1       0.470  -3.272  -3.252  0.00  0.00    +0.111 A 
ATOM     24  N   UNL     1       1.060  -2.787  -4.328  0.00  0.00    -0.263 NA
ATOM     25  C   UNL     1       0.717  -1.626  -4.851  0.00  0.00    +0.111 A 
ATOM     26  C   UNL     1      -0.289  -0.866  -4.289  0.00  0.00    +0.030 A 
ENDBRANCH   3  21
BRANCH   9  27
ATOM     27  N   UNL     1      -3.870   0.278   2.558  0.00  0.00    -0.328 N 
ATOM     28  H   UNL     1      -4.660   0.837   2.627  0.00  0.00    +0.145 HD
ATOM     29  H   UNL     1      -3.526  -0.175   3.344  0.00  0.00    +0.145 HD
ENDBRANCH   9  27
BRANCH  10  30
ATOM     30  C   UNL     1      -1.695  -1.304   2.495  0.00  0.00    +0.101 C 
ATOM     31  N   UNL     1      -1.339  -1.813   3.447  0.00  0.00    -0.191 NA
ENDBRANCH  10  30
TORSDOF 6
