REMARK  Name = ZINC62718318
REMARK  2 active torsions:
REMARK  status: ('A' for Active; 'I' for Inactive)
REMARK    1  A    between atoms: C_3  and  N_8
REMARK    2  A    between atoms: C_6  and  N_7
REMARK                            x       y       z     vdW  Elec       q    Type
REMARK                         _______ _______ _______ _____ _____    ______ ____
ROOT
ATOM      1  C   UNL     1      -0.017   1.415   0.010  0.00  0.00    +0.146 A 
ATOM      2  C   UNL     1      -1.308   1.998   0.018  0.00  0.00    +0.104 A 
ATOM      3  C   UNL     1      -2.438   1.201   0.019  0.00  0.00    +0.156 A 
ATOM      4  N   UNL     1      -2.291  -0.117   0.010  0.00  0.00    -0.131 NA
ATOM      5  N   UNL     1      -1.134  -0.670   0.003  0.00  0.00    -0.130 NA
ATOM      6  C   UNL     1       0.002  -0.004   0.002  0.00  0.00    +0.167 A 
ATOM      7  S   UNL     1      -0.915   3.723   0.026  0.00  0.00    +0.040 S 
ATOM      8  N   UNL     1       0.703   3.594   0.019  0.00  0.00    -0.109 NA
ATOM      9  N   UNL     1       0.950   2.333   0.005  0.00  0.00    -0.137 NA
ENDROOT
BRANCH   6  10
ATOM     10  N   UNL     1       1.213  -0.687  -0.014  0.00  0.00    -0.340 N 
ATOM     11  H   UNL     1       2.049  -0.194  -0.019  0.00  0.00    +0.144 HD
ATOM     12  H   UNL     1       1.223  -1.657  -0.019  0.00  0.00    +0.144 HD
ENDBRANCH   6  10
BRANCH   3  13
ATOM     13  N   UNL     1      -3.709   1.773   0.028  0.00  0.00    -0.341 N 
ATOM     14  H   UNL     1      -3.806   2.738   0.034  0.00  0.00    +0.144 HD
ATOM     15  H   UNL     1      -4.495   1.206   0.028  0.00  0.00    +0.144 HD
ENDBRANCH   3  13
TORSDOF 2
