REMARK  Name = ZINC25530146
REMARK  12 active torsions:
REMARK  status: ('A' for Active; 'I' for Inactive)
REMARK    1  A    between atoms: C_1  and  C_2
REMARK    2  A    between atoms: C_2  and  C_3
REMARK    3  A    between atoms: C_3  and  C_4
REMARK    4  A    between atoms: C_4  and  C_6
REMARK    5  A    between atoms: C_4  and  N_22
REMARK    6  A    between atoms: N_8  and  N_9
REMARK    7  A    between atoms: C_10  and  C_12
REMARK    8  A    between atoms: C_12  and  O_13
REMARK    9  A    between atoms: O_13  and  C_14
REMARK   10  A    between atoms: C_18  and  C_20
REMARK   11  A    between atoms: N_25  and  C_26
REMARK   12  A    between atoms: C_26  and  C_27
REMARK                            x       y       z     vdW  Elec       q    Type
REMARK                         _______ _______ _______ _____ _____    ______ ____
ROOT
ATOM      1  C   UNL     1       3.582   1.747  -0.023  0.00  0.00    +0.162 C 
ENDROOT
BRANCH   1   2
ATOM      2  N   UNL     1       2.323   0.998  -0.015  0.00  0.00    -0.288 N 
ATOM      3  C   UNL     1       1.147   1.655   0.000  0.00  0.00    +0.300 C 
ATOM      4  O   UNL     1       1.130   2.871   0.007  0.00  0.00    -0.253 OA
ATOM      5  N   UNL     1      -0.011   0.966   0.007  0.00  0.00    -0.295 N 
ATOM      6  H   UNL     1       2.338  -0.102  -0.021  0.00  0.00    +0.151 HD
ATOM      7  H   UNL     1       0.004  -0.134   0.006  0.00  0.00    +0.151 HD
BRANCH   5   8
ATOM      8  C   UNL     1      -1.290   1.681   0.017  0.00  0.00    +0.141 C 
BRANCH   8   9
ATOM      9  C   UNL     1      -2.422   0.686   0.017  0.00  0.00    -0.030 A 
ATOM     10  C   UNL     1      -2.950   0.241  -1.180  0.00  0.00    +0.008 A 
ATOM     11  C   UNL     1      -3.985  -0.675  -1.181  0.00  0.00    +0.038 A 
ATOM     12  C   UNL     1      -4.500  -1.139   0.017  0.00  0.00    +0.123 A 
ATOM     13  C   UNL     1      -3.973  -0.688   1.216  0.00  0.00    +0.038 A 
ATOM     14  C   UNL     1      -2.935   0.224   1.215  0.00  0.00    +0.008 A 
ATOM     15  F   UNL     1      -5.514  -2.030   0.017  0.00  0.00    -0.205 F 
ENDBRANCH   8   9
ENDBRANCH   5   8
ENDBRANCH   1   2
BRANCH   1  16
ATOM     16  C   UNL     1       4.666   0.901  -0.638  0.00  0.00    +0.249 C 
ATOM     17  O   UNL     1       4.413  -0.218  -1.031  0.00  0.00    -0.272 OA
ATOM     18  N   UNL     1       5.918   1.388  -0.752  0.00  0.00    -0.233 N 
ATOM     19  H   UNL     1       6.148   2.403  -0.395  0.00  0.00    +0.173 HD
BRANCH  18  20
ATOM     20  N   UNL     1       6.926   0.602  -1.324  0.00  0.00    -0.232 N 
ATOM     21  C   UNL     1       8.178   1.089  -1.437  0.00  0.00    +0.267 C 
ATOM     22  O   UNL     1       8.431   2.208  -1.044  0.00  0.00    -0.271 OA
ATOM     23  H   UNL     1       6.697  -0.413  -1.680  0.00  0.00    +0.173 HD
BRANCH  21  24
ATOM     24  C   UNL     1       9.263   0.243  -2.053  0.00  0.00    +0.326 C 
BRANCH  24  25
ATOM     25  O   UNL     1      10.490   0.974  -2.060  0.00  0.00    -0.483 OA
BRANCH  25  26
ATOM     26  C   UNL     1      11.577   0.349  -2.586  0.00  0.00    +0.122 A 
ATOM     27  C   UNL     1      11.465  -0.943  -3.079  0.00  0.00    +0.047 A 
ATOM     28  C   UNL     1      12.570  -1.574  -3.617  0.00  0.00    +0.024 A 
ATOM     29  C   UNL     1      13.790  -0.922  -3.655  0.00  0.00    +0.044 A 
ATOM     30  C   UNL     1      13.905   0.364  -3.159  0.00  0.00    -0.029 A 
ATOM     31  C   UNL     1      12.801   1.001  -2.625  0.00  0.00    +0.050 A 
ATOM     32  C   UNL     1      15.235   1.072  -3.203  0.00  0.00    +0.045 C 
ATOM     33 CL   UNL     1      15.178  -1.720  -4.326  0.00  0.00    -0.083 Cl
ENDBRANCH  25  26
ENDBRANCH  24  25
ENDBRANCH  21  24
ENDBRANCH  18  20
ENDBRANCH   1  16
BRANCH   1  34
ATOM     34  C   UNL     1       3.969   2.109   1.413  0.00  0.00    +0.031 C 
BRANCH  34  36
ATOM     35  C   UNL     1       3.317   3.430   3.430  0.00  0.00    +0.004 C 
ATOM     36  C   UNL     1       2.930   3.068   1.995  0.00  0.00    -0.001 C 
ENDBRANCH  34  36
ENDBRANCH   1  34
TORSDOF 10
