REMARK  Name = ZINC66717065
REMARK  8 active torsions:
REMARK  status: ('A' for Active; 'I' for Inactive)
REMARK    1  A    between atoms: C_1  and  C_2
REMARK    2  A    between atoms: C_5  and  C_9
REMARK    3  A    between atoms: C_6  and  C_8
REMARK    4  A    between atoms: C_9  and  C_10
REMARK    5  A    between atoms: C_10  and  C_12
REMARK    6  A    between atoms: C_10  and  N_13
REMARK    7  A    between atoms: N_16  and  C_17
REMARK    8  A    between atoms: N_16  and  C_18
REMARK                            x       y       z     vdW  Elec       q    Type
REMARK                         _______ _______ _______ _____ _____    ______ ____
ROOT
ATOM      1  N   UNL     1      -1.462  -4.113   1.915  0.00  0.00    -0.296 N 
ATOM      2  C   UNL     1      -2.735  -3.788   2.213  0.00  0.00    +0.302 C 
ATOM      3  O   UNL     1      -3.623  -4.010   1.413  0.00  0.00    -0.253 OA
ATOM      4  N   UNL     1      -3.025  -3.215   3.398  0.00  0.00    -0.286 N 
ATOM      5  C   UNL     1      -1.956  -2.947   4.363  0.00  0.00    +0.134 C 
ATOM      6  H   UNL     1      -0.754  -3.936   2.554  0.00  0.00    +0.151 HD
ENDROOT
BRANCH   4   7
ATOM      7  C   UNL     1      -4.409  -2.861   3.722  0.00  0.00    +0.080 C 
ATOM      8  C   UNL     1      -4.506  -1.354   3.970  0.00  0.00    +0.041 C 
ATOM      9  C   UNL     1      -5.960  -0.983   4.274  0.00  0.00    +0.108 C 
ATOM     10  N   UNL     1      -6.436  -1.809   5.391  0.00  0.00    -0.317 N 
ATOM     11  C   UNL     1      -6.306  -3.270   5.295  0.00  0.00    +0.108 C 
ATOM     12  C   UNL     1      -4.848  -3.615   4.980  0.00  0.00    +0.041 C 
ATOM     13  C   UNL     1      -6.997  -1.221   6.519  0.00  0.00    +0.099 A 
ATOM     14  C   UNL     1      -7.324  -2.009   7.618  0.00  0.00    +0.042 A 
ATOM     15  C   UNL     1      -7.881  -1.411   8.733  0.00  0.00    +0.005 A 
ATOM     16  C   UNL     1      -8.095  -0.038   8.712  0.00  0.00    +0.018 A 
ATOM     17  C   UNL     1      -7.747   0.683   7.587  0.00  0.00    +0.084 A 
ATOM     18  N   UNL     1      -7.211   0.086   6.539  0.00  0.00    -0.350 N 
ATOM     19  H   UNL     1      -6.972   0.616   5.763  0.00  0.00    +0.166 HD
ENDBRANCH   4   7
BRANCH   1  20
ATOM     20  C   UNL     1      -1.147  -4.736   0.627  0.00  0.00    +0.076 C 
ATOM     21  C   UNL     1      -1.273  -6.255   0.750  0.00  0.00    +0.028 C 
BRANCH  20  22
ATOM     22  C   UNL     1       0.283  -4.374   0.222  0.00  0.00    +0.057 C 
BRANCH  22  27
ATOM     23  C   UNL     1       0.636   1.313  -0.743  0.00  0.00    +0.044 C 
ATOM     24  C   UNL     1       0.544  -0.170  -0.492  0.00  0.00    -0.050 A 
ATOM     25  C   UNL     1       0.913  -0.687   0.736  0.00  0.00    +0.003 A 
ATOM     26  C   UNL     1       0.829  -2.047   0.967  0.00  0.00    +0.004 A 
ATOM     27  C   UNL     1       0.374  -2.891  -0.030  0.00  0.00    -0.043 A 
ATOM     28  C   UNL     1       0.004  -2.374  -1.257  0.00  0.00    -0.047 A 
ATOM     29  C   UNL     1       0.085  -1.013  -1.486  0.00  0.00    +0.007 A 
ATOM     30  C   UNL     1      -0.490  -3.293  -2.344  0.00  0.00    +0.044 C 
ENDBRANCH  22  27
ENDBRANCH  20  22
ENDBRANCH   1  20
TORSDOF 4
