REMARK  Name = ZINC50309507
REMARK  4 active torsions:
REMARK  status: ('A' for Active; 'I' for Inactive)
REMARK    1  A    between atoms: C_1  and  C_2
REMARK    2  A    between atoms: C_5  and  N_19
REMARK    3  A    between atoms: C_7  and  N_8
REMARK    4  A    between atoms: C_9  and  C_13
REMARK                            x       y       z     vdW  Elec       q    Type
REMARK                         _______ _______ _______ _____ _____    ______ ____
ROOT
ATOM      1  N   UNL     1       0.359   0.145   2.328  0.00  0.00    -0.197 N 
ATOM      2  C   UNL     1       0.376  -0.329   3.592  0.00  0.00    +0.160 A 
ATOM      3  N   UNL     1       0.188   0.688   4.391  0.00  0.00    -0.113 NA
ATOM      4  N   UNL     1       0.053   1.774   3.718  0.00  0.00    -0.023 NA
ATOM      5  N   UNL     1       0.150   1.530   2.456  0.00  0.00    -0.039 NA
ENDROOT
BRANCH   1  12
ATOM      6  C   UNL     1      -1.502   0.576   0.220  0.00  0.00    +0.046 C 
ATOM      7  C   UNL     1      -0.366  -0.405   0.088  0.00  0.00    -0.025 A 
ATOM      8  C   UNL     1      -0.204  -1.120  -1.084  0.00  0.00    +0.007 A 
ATOM      9  C   UNL     1       0.836  -2.021  -1.209  0.00  0.00    +0.023 A 
ATOM     10  C   UNL     1       1.724  -2.209  -0.156  0.00  0.00    +0.027 A 
ATOM     11  C   UNL     1       1.563  -1.492   1.021  0.00  0.00    +0.051 A 
ATOM     12  C   UNL     1       0.521  -0.585   1.141  0.00  0.00    +0.074 A 
BRANCH  10  13
ATOM     13  N   UNL     1       2.775  -3.120  -0.282  0.00  0.00    -0.358 N 
ATOM     14  H   UNL     1       2.886  -3.621  -1.105  0.00  0.00    +0.142 HD
ATOM     15  H   UNL     1       3.394  -3.251   0.453  0.00  0.00    +0.142 HD
ENDBRANCH  10  13
ENDBRANCH   1  12
BRANCH   2  16
ATOM     16  C   UNL     1       0.575  -1.765   4.005  0.00  0.00    +0.059 C 
ATOM     17  C   UNL     1      -0.591  -2.206   4.892  0.00  0.00    +0.011 C 
ATOM     18  C   UNL     1      -0.389  -3.664   5.311  0.00  0.00    +0.001 C 
ATOM     19  C   UNL     1       0.922  -3.794   6.089  0.00  0.00    +0.000 C 
ATOM     20  C   UNL     1       2.087  -3.353   5.202  0.00  0.00    +0.001 C 
ATOM     21  C   UNL     1       1.886  -1.895   4.783  0.00  0.00    +0.011 C 
ENDBRANCH   2  16
TORSDOF 3
