REMARK  Name = ZINC67396090
REMARK  9 active torsions:
REMARK  status: ('A' for Active; 'I' for Inactive)
REMARK    1  A    between atoms: C_1  and  C_2
REMARK    2  A    between atoms: C_2  and  C_4
REMARK    3  A    between atoms: C_2  and  N_12
REMARK    4  A    between atoms: C_4  and  C_5
REMARK    5  A    between atoms: C_8  and  O_11
REMARK    6  A    between atoms: C_13  and  C_15
REMARK    7  A    between atoms: N_17  and  C_18
REMARK    8  A    between atoms: C_23  and  S_24
REMARK    9  A    between atoms: S_24  and  C_25
REMARK                            x       y       z     vdW  Elec       q    Type
REMARK                         _______ _______ _______ _____ _____    ______ ____
ROOT
ATOM      1  N   UNL     1       0.689  -0.455  -1.212  0.00  0.00    -0.305 N 
ATOM      2  C   UNL     1       2.032  -0.571  -1.222  0.00  0.00    +0.300 C 
ATOM      3  O   UNL     1       2.673  -0.275  -0.234  0.00  0.00    -0.265 OA
ATOM      4  H   UNL     1       0.176  -0.691  -2.001  0.00  0.00    +0.149 HD
ENDROOT
BRANCH   2   5
ATOM      5  C   UNL     1       2.730  -1.063  -2.446  0.00  0.00    +0.303 C 
ATOM      6  O   UNL     1       2.089  -1.359  -3.433  0.00  0.00    -0.265 OA
ATOM      7  N   UNL     1       4.073  -1.179  -2.455  0.00  0.00    -0.277 N 
ATOM      8  H   UNL     1       4.591  -0.882  -1.690  0.00  0.00    +0.155 HD
BRANCH   7   9
ATOM      9  C   UNL     1       4.720  -1.728  -3.567  0.00  0.00    +0.048 A 
ATOM     10  C   UNL     1       4.222  -1.504  -4.842  0.00  0.00    +0.024 A 
ATOM     11  C   UNL     1       4.863  -2.048  -5.940  0.00  0.00    +0.002 A 
ATOM     12  C   UNL     1       6.001  -2.816  -5.771  0.00  0.00    +0.001 A 
ATOM     13  C   UNL     1       6.505  -3.044  -4.505  0.00  0.00    +0.017 A 
ATOM     14  C   UNL     1       5.872  -2.498  -3.397  0.00  0.00    +0.037 A 
BRANCH  14  15
ATOM     15  S   UNL     1       6.516  -2.781  -1.782  0.00  0.00    -0.014 S 
BRANCH  15  16
ATOM     16  C   UNL     1       7.982  -3.810  -2.068  0.00  0.00    +0.448 C 
ATOM     17  F   UNL     1       8.886  -3.118  -2.882  0.00  0.00    -0.160 F 
ATOM     18  F   UNL     1       8.591  -4.106  -0.844  0.00  0.00    -0.160 F 
ATOM     19  F   UNL     1       7.602  -4.999  -2.700  0.00  0.00    -0.160 F 
ENDBRANCH  15  16
ENDBRANCH  14  15
ENDBRANCH   7   9
ENDBRANCH   2   5
BRANCH   1  21
ATOM     20  C   UNL     1      -0.011   1.558  -0.012  0.00  0.00    +0.028 C 
ATOM     21  C   UNL     1       0.004   0.028  -0.011  0.00  0.00    +0.075 C 
BRANCH  21  22
ATOM     22  C   UNL     1      -1.434  -0.495   0.001  0.00  0.00    +0.057 C 
BRANCH  22  23
ATOM     23  C   UNL     1      -1.420  -1.997   0.127  0.00  0.00    -0.045 A 
ATOM     24  C   UNL     1      -1.383  -2.784  -1.010  0.00  0.00    +0.007 A 
ATOM     25  C   UNL     1      -1.371  -4.161  -0.897  0.00  0.00    +0.045 A 
ATOM     26  C   UNL     1      -1.396  -4.754   0.357  0.00  0.00    +0.117 A 
ATOM     27  C   UNL     1      -1.433  -3.962   1.495  0.00  0.00    +0.045 A 
ATOM     28  C   UNL     1      -1.440  -2.586   1.378  0.00  0.00    +0.007 A 
BRANCH  26  29
ATOM     29  O   UNL     1      -1.385  -6.108   0.470  0.00  0.00    -0.507 OA
ATOM     30  H   UNL     1      -0.498  -6.491   0.524  0.00  0.00    +0.292 HD
ENDBRANCH  26  29
ENDBRANCH  22  23
ENDBRANCH  21  22
ENDBRANCH   1  21
TORSDOF 8
