REMARK  Name = ZINC12660895
REMARK  6 active torsions:
REMARK  status: ('A' for Active; 'I' for Inactive)
REMARK    1  A    between atoms: C_1  and  C_2
REMARK    2  A    between atoms: C_4  and  O_38
REMARK    3  A    between atoms: C_14  and  C_16
REMARK    4  A    between atoms: C_16  and  C_21
REMARK    5  A    between atoms: C_26  and  C_37
REMARK    6  A    between atoms: N_28  and  O_29
REMARK                            x       y       z     vdW  Elec       q    Type
REMARK                         _______ _______ _______ _____ _____    ______ ____
ROOT
ATOM      1  C   UNL     1       1.981   2.350  -2.474  0.00  0.00    +0.012 C 
ATOM      2  C   UNL     1       0.659   2.169  -3.243  0.00  0.00    -0.019 C 
ATOM      3  C   UNL     1       0.256   3.480  -3.857  0.00  0.00    +0.039 C 
ATOM      4  C   UNL     1      -0.782   4.210  -2.976  0.00  0.00    +0.119 C 
ATOM      5  C   UNL     1      -0.496   3.922  -1.516  0.00  0.00    +0.033 C 
ATOM      6  C   UNL     1      -0.805   2.460  -1.189  0.00  0.00    -0.001 C 
ATOM      7  C   UNL     1      -0.432   1.572  -2.335  0.00  0.00    -0.001 C 
ATOM      8  C   UNL     1       0.159   0.199  -1.980  0.00  0.00    +0.005 C 
ATOM      9  C   UNL     1       0.865  -0.247  -3.288  0.00  0.00    +0.009 C 
ATOM     10  C   UNL     1       0.903   0.999  -4.213  0.00  0.00    +0.054 C 
ATOM     11  C   UNL     1      -0.148   2.118   0.145  0.00  0.00    +0.004 C 
ATOM     12  C   UNL     1      -0.813   3.003   1.211  0.00  0.00    +0.005 C 
ATOM     13  C   UNL     1      -0.587   4.481   0.896  0.00  0.00    +0.006 C 
ATOM     14  C   UNL     1      -1.137   4.843  -0.495  0.00  0.00    +0.018 C 
ATOM     15  C   UNL     1      -2.637   4.752  -0.441  0.00  0.00    +0.069 C 
ATOM     16  N   UNL     1      -3.327   4.024  -1.229  0.00  0.00    -0.096 NA
ATOM     17  C   UNL     1      -3.344   5.576   0.620  0.00  0.00    +0.119 C 
ATOM     18  C   UNL     1      -2.751   5.236   1.988  0.00  0.00    +0.176 C 
ATOM     19  C   UNL     1      -1.230   5.345   1.974  0.00  0.00    +0.069 C 
ATOM     20  O   UNL     1      -3.267   6.174   2.956  0.00  0.00    -0.346 OA
ATOM     21  C   UNL     1      -4.399   5.506   3.560  0.00  0.00    +0.191 C 
ATOM     22  C   UNL     1      -3.913   4.036   3.595  0.00  0.00    +0.191 C 
ATOM     23  O   UNL     1      -3.152   3.918   2.377  0.00  0.00    -0.346 OA
ATOM     24  C   UNL     1      -0.728   6.292  -0.807  0.00  0.00    +0.018 C 
ENDROOT
BRANCH  10  25
ATOM     25  C   UNL     1      -0.191   0.895  -5.278  0.00  0.00    +0.171 C 
ATOM     26  O   UNL     1      -0.351   2.165  -5.931  0.00  0.00    -0.346 OA
ATOM     27  C   UNL     1      -1.770   2.269  -6.198  0.00  0.00    +0.191 C 
ATOM     28  C   UNL     1      -2.376   1.587  -4.946  0.00  0.00    +0.191 C 
ATOM     29  O   UNL     1      -1.433   0.535  -4.658  0.00  0.00    -0.346 OA
ATOM     30  C   UNL     1       0.195  -0.166  -6.310  0.00  0.00    +0.074 C 
ENDBRANCH  10  25
BRANCH  16  31
ATOM     31  O   UNL     1      -4.738   3.994  -1.111  0.00  0.00    -0.409 OA
ATOM     32  H   UNL     1      -5.174   3.414  -1.750  0.00  0.00    +0.328 HD
ENDBRANCH  16  31
BRANCH   4  33
ATOM     33  O   UNL     1      -2.088   3.762  -3.349  0.00  0.00    -0.391 OA
ATOM     34  H   UNL     1      -2.317   3.942  -4.271  0.00  0.00    +0.210 HD
ENDBRANCH   4  33
TORSDOF 3
