REMARK  Name = ZINC16935262
REMARK  8 active torsions:
REMARK  status: ('A' for Active; 'I' for Inactive)
REMARK    1  A    between atoms: C_1  and  C_2
REMARK    2  A    between atoms: C_2  and  C_3
REMARK    3  A    between atoms: C_3  and  C_5
REMARK    4  A    between atoms: C_3  and  C_6
REMARK    5  A    between atoms: C_6  and  C_8
REMARK    6  A    between atoms: C_6  and  N_10
REMARK    7  A    between atoms: C_14  and  C_15
REMARK    8  A    between atoms: C_20  and  O_21
REMARK                            x       y       z     vdW  Elec       q    Type
REMARK                         _______ _______ _______ _____ _____    ______ ____
ROOT
ATOM      1  N   UNL     1       1.524   2.311  -5.918  0.00  0.00    -0.241 N 
ATOM      2  C   UNL     1       0.387   1.908  -5.376  0.00  0.00    +0.259 C 
ATOM      3  O   UNL     1      -0.569   1.588  -6.058  0.00  0.00    -0.269 OA
ATOM      4  C   UNL     1       0.337   1.864  -3.901  0.00  0.00    +0.077 C 
ATOM      5  C   UNL     1      -0.681   1.496  -3.080  0.00  0.00    +0.031 C 
ATOM      6  S   UNL     1       1.980   2.435  -3.492  0.00  0.00    -0.061 S 
ATOM      7  C   UNL     1       2.581   2.665  -5.158  0.00  0.00    +0.121 C 
ATOM      8  S   UNL     1       4.122   3.208  -5.668  0.00  0.00    -0.027 S 
ENDROOT
BRANCH   5   9
ATOM      9  C   UNL     1      -0.436   1.313  -1.645  0.00  0.00    +0.018 A 
ATOM     10  C   UNL     1       0.867   1.121  -1.171  0.00  0.00    +0.011 A 
ATOM     11  C   UNL     1       1.089   0.950   0.178  0.00  0.00    +0.001 A 
ATOM     12  C   UNL     1       0.028   0.967   1.069  0.00  0.00    +0.004 A 
ATOM     13  C   UNL     1      -1.264   1.160   0.616  0.00  0.00    +0.046 A 
ATOM     14  C   UNL     1      -1.508   1.328  -0.737  0.00  0.00    +0.124 A 
BRANCH  14  15
ATOM     15  O   UNL     1      -2.776   1.514  -1.183  0.00  0.00    -0.506 OA
ATOM     16  H   UNL     1      -3.238   0.694  -1.408  0.00  0.00    +0.292 HD
ENDBRANCH  14  15
ENDBRANCH   5   9
BRANCH   1  17
ATOM     17  C   UNL     1       1.638   2.376  -7.377  0.00  0.00    +0.198 C 
BRANCH  17  18
ATOM     18  C   UNL     1       1.942   3.792  -7.795  0.00  0.00    +0.377 C 
ATOM     19  O   UNL     1       2.296   4.602  -6.971  0.00  0.00    -0.244 OA
ATOM     20  O   UNL     1       1.821   4.153  -9.082  0.00  0.00    -0.244 OA
ENDBRANCH  17  18
BRANCH  17  21
ATOM     21  C   UNL     1       2.766   1.453  -7.842  0.00  0.00    +0.018 C 
ATOM     22  C   UNL     1       2.501   0.032  -7.342  0.00  0.00    +0.010 C 
BRANCH  21  24
ATOM     23  C   UNL     1       4.069   0.686  -9.831  0.00  0.00    +0.004 C 
ATOM     24  C   UNL     1       2.828   1.453  -9.371  0.00  0.00    +0.002 C 
ENDBRANCH  21  24
ENDBRANCH  17  21
ENDBRANCH   1  17
TORSDOF 6
