REMARK  Name = ZINC00342080
REMARK  6 active torsions:
REMARK  status: ('A' for Active; 'I' for Inactive)
REMARK    1  A    between atoms: C_1  and  C_2
REMARK    2  A    between atoms: C_4  and  C_25
REMARK    3  A    between atoms: C_6  and  O_8
REMARK    4  A    between atoms: O_8  and  C_9
REMARK    5  A    between atoms: C_9  and  C_10
REMARK    6  A    between atoms: N_12  and  C_13
REMARK                            x       y       z     vdW  Elec       q    Type
REMARK                         _______ _______ _______ _____ _____    ______ ____
ROOT
ATOM      1  C   UNL     1       0.060  -2.931   4.751  0.00  0.00    +0.255 C 
ATOM      2  O   UNL     1       0.082  -4.132   4.583  0.00  0.00    -0.272 OA
ATOM      3  N   UNL     1       0.063  -2.425   6.000  0.00  0.00    -0.282 N 
ATOM      4  H   UNL     1       0.127  -1.467   6.135  0.00  0.00    +0.155 HD
ENDROOT
BRANCH   3   5
ATOM      5  C   UNL     1      -0.025  -3.280   7.100  0.00  0.00    +0.041 A 
ATOM      6  C   UNL     1      -0.609  -4.527   6.980  0.00  0.00    +0.024 A 
ATOM      7  C   UNL     1      -0.713  -5.404   8.059  0.00  0.00    +0.006 A 
ATOM      8  C   UNL     1      -0.234  -5.050   9.285  0.00  0.00    -0.039 A 
ATOM      9  C   UNL     1       0.358  -3.799   9.424  0.00  0.00    -0.010 A 
ATOM     10  C   UNL     1       0.484  -2.893   8.357  0.00  0.00    +0.004 A 
ATOM     11  C   UNL     1       1.106  -1.661   8.611  0.00  0.00    +0.010 A 
ATOM     12  C   UNL     1       1.561  -1.400   9.871  0.00  0.00    +0.001 A 
ATOM     13  C   UNL     1       1.430  -2.318  10.916  0.00  0.00    +0.004 A 
ATOM     14  C   UNL     1       0.821  -3.517  10.706  0.00  0.00    -0.039 A 
ATOM     15  C   UNL     1       0.516  -4.717  11.570  0.00  0.00    +0.040 C 
ATOM     16  C   UNL     1      -0.179  -5.728  10.633  0.00  0.00    +0.040 C 
ENDBRANCH   3   5
BRANCH   1  17
ATOM     17  C   UNL     1       0.030  -2.005   3.563  0.00  0.00    +0.324 C 
BRANCH  17  18
ATOM     18  O   UNL     1       0.033  -2.775   2.359  0.00  0.00    -0.483 OA
BRANCH  18  24
ATOM     19  C   UNL     1      -0.075   1.503   0.012  0.00  0.00    +0.044 C 
ATOM     20  C   UNL     1      -0.045  -0.003   0.003  0.00  0.00    -0.047 A 
ATOM     21  C   UNL     1      -0.044  -0.687  -1.199  0.00  0.00    +0.007 A 
ATOM     22  C   UNL     1      -0.017  -2.070  -1.210  0.00  0.00    -0.047 A 
ATOM     23  C   UNL     1       0.009  -2.771  -0.020  0.00  0.00    +0.049 A 
ATOM     24  C   UNL     1       0.008  -2.087   1.187  0.00  0.00    +0.122 A 
ATOM     25  C   UNL     1      -0.014  -0.700   1.196  0.00  0.00    +0.049 A 
ATOM     26  C   UNL     1      -0.016  -2.812  -2.522  0.00  0.00    +0.044 C 
ENDBRANCH  18  24
ENDBRANCH  17  18
ENDBRANCH   1  17
TORSDOF 4
