REMARK  Name = ZINC39375465
REMARK  8 active torsions:
REMARK  status: ('A' for Active; 'I' for Inactive)
REMARK    1  A    between atoms: C_1  and  C_2
REMARK    2  A    between atoms: C_7  and  C_14
REMARK    3  A    between atoms: C_14  and  C_15
REMARK    4  A    between atoms: C_15  and  N_16
REMARK    5  A    between atoms: C_17  and  C_19
REMARK    6  A    between atoms: C_19  and  C_21
REMARK    7  A    between atoms: N_24  and  C_31
REMARK    8  A    between atoms: C_31  and  C_32
REMARK                            x       y       z     vdW  Elec       q    Type
REMARK                         _______ _______ _______ _____ _____    ______ ____
ROOT
ATOM      1  C   UNL     1       4.175  -8.758   3.914  0.00  0.00    +0.226 C 
ATOM      2  O   UNL     1       4.969  -8.719   3.005  0.00  0.00    -0.286 OA
ENDROOT
BRANCH   1   3
ATOM      3  C   UNL     1       4.473  -9.581   5.141  0.00  0.00    +0.114 C 
ATOM      4  C   UNL     1       5.482 -10.692   4.809  0.00  0.00    +0.122 C 
ATOM      5  N   UNL     1       6.646 -10.420   5.656  0.00  0.00    -0.320 N 
ATOM      6  C   UNL     1       6.419  -9.283   6.432  0.00  0.00    +0.034 A 
ATOM      7  C   UNL     1       5.166  -8.736   6.187  0.00  0.00    -0.014 A 
ATOM      8  C   UNL     1       4.749  -7.604   6.859  0.00  0.00    +0.006 A 
ATOM      9  C   UNL     1       5.579  -7.002   7.787  0.00  0.00    +0.000 A 
ATOM     10  C   UNL     1       6.828  -7.536   8.041  0.00  0.00    +0.002 A 
ATOM     11  C   UNL     1       7.253  -8.670   7.369  0.00  0.00    +0.023 A 
BRANCH   5  12
ATOM     12  C   UNL     1       7.870 -11.225   5.684  0.00  0.00    +0.201 C 
BRANCH  12  13
ATOM     13  C   UNL     1       8.847 -10.690   4.668  0.00  0.00    +0.233 C 
ATOM     14  O   UNL     1       8.549  -9.731   3.987  0.00  0.00    -0.274 OA
ATOM     15  N   UNL     1      10.050 -11.277   4.515  0.00  0.00    -0.296 N 
ATOM     16  C   UNL     1      10.431 -12.445   5.325  0.00  0.00    +0.136 C 
ATOM     17  C   UNL     1      10.943 -13.540   4.382  0.00  0.00    +0.179 C 
ATOM     18  O   UNL     1      11.959 -12.995   3.536  0.00  0.00    -0.377 OA
ATOM     19  C   UNL     1      11.505 -11.945   2.679  0.00  0.00    +0.179 C 
ATOM     20  C   UNL     1      11.020 -10.772   3.530  0.00  0.00    +0.136 C 
ENDBRANCH  12  13
ENDBRANCH   5  12
ENDBRANCH   1   3
BRANCH   1  22
ATOM     21  N   UNL     1       2.632  -7.256   2.726  0.00  0.00    -0.309 N 
ATOM     22  C   UNL     1       2.899  -7.992   3.823  0.00  0.00    +0.280 C 
ATOM     23  O   UNL     1       2.101  -8.030   4.737  0.00  0.00    -0.267 OA
ATOM     24  H   UNL     1       3.270  -7.225   1.996  0.00  0.00    +0.149 HD
BRANCH  21  25
ATOM     25  C   UNL     1       1.379  -6.503   2.636  0.00  0.00    +0.105 C 
BRANCH  25  26
ATOM     26  C   UNL     1       1.325  -5.759   1.300  0.00  0.00    +0.035 C 
BRANCH  26  33
ATOM     27  C   UNL     1      -4.760  -5.317  -3.058  0.00  0.00    +0.044 C 
ATOM     28  C   UNL     1      -3.787  -5.429  -1.912  0.00  0.00    -0.049 A 
ATOM     29  C   UNL     1      -4.047  -6.354  -0.901  0.00  0.00    +0.004 A 
ATOM     30  C   UNL     1      -3.208  -6.501   0.157  0.00  0.00    +0.010 A 
ATOM     31  C   UNL     1      -2.009  -5.665   0.227  0.00  0.00    -0.007 A 
ATOM     32  C   UNL     1      -1.137  -5.777   1.269  0.00  0.00    -0.005 C 
ATOM     33  C   UNL     1       0.079  -4.872   1.260  0.00  0.00    +0.100 C 
ATOM     34  C   UNL     1       0.226  -3.919   0.096  0.00  0.00    +0.224 C 
ATOM     35  O   UNL     1       1.183  -3.170   0.037  0.00  0.00    -0.275 OA
ATOM     36  N   UNL     1      -0.689  -3.902  -0.859  0.00  0.00    -0.284 N 
ATOM     37  C   UNL     1      -1.759  -4.696  -0.855  0.00  0.00    +0.041 A 
ATOM     38  C   UNL     1      -2.690  -4.628  -1.908  0.00  0.00    +0.027 A 
ATOM     39  H   UNL     1      -0.575  -3.283  -1.597  0.00  0.00    +0.155 HD
ENDBRANCH  26  33
ENDBRANCH  25  26
ENDBRANCH  21  25
ENDBRANCH   1  22
TORSDOF 7
