REMARK  Name = ZINC05308704
REMARK  7 active torsions:
REMARK  status: ('A' for Active; 'I' for Inactive)
REMARK    1  A    between atoms: C_1  and  C_2
REMARK    2  A    between atoms: C_8  and  N_10
REMARK    3  A    between atoms: C_14  and  C_16
REMARK    4  A    between atoms: C_16  and  O_17
REMARK    5  A    between atoms: O_17  and  C_18
REMARK    6  A    between atoms: C_18  and  C_20
REMARK    7  A    between atoms: C_21  and  C_22
REMARK                            x       y       z     vdW  Elec       q    Type
REMARK                         _______ _______ _______ _____ _____    ______ ____
ROOT
ATOM      1  C   UNL     1       0.083   1.145   7.106  0.00  0.00    +0.328 C 
ENDROOT
BRANCH   1   6
ATOM      2  N   UNL     1       0.056  -0.038   2.447  0.00  0.00    -0.296 N 
ATOM      3  C   UNL     1       0.738   0.093   3.602  0.00  0.00    +0.306 C 
ATOM      4  O   UNL     1       1.921  -0.180   3.644  0.00  0.00    -0.252 OA
ATOM      5  N   UNL     1       0.107   0.528   4.711  0.00  0.00    -0.237 N 
ATOM      6  C   UNL     1       0.789   0.659   5.866  0.00  0.00    +0.258 C 
ATOM      7  O   UNL     1       1.969   0.387   5.908  0.00  0.00    -0.272 OA
ATOM      8  H   UNL     1      -0.888   0.180   2.413  0.00  0.00    +0.151 HD
ATOM      9  H   UNL     1      -0.838   0.746   4.678  0.00  0.00    +0.159 HD
BRANCH   2  16
ATOM     10  C   UNL     1      -0.019   1.526   0.010  0.00  0.00    +0.009 C 
ATOM     11  C   UNL     1       0.002  -0.004   0.002  0.00  0.00    +0.006 C 
ATOM     12  C   UNL     1       0.718  -0.497  -1.257  0.00  0.00    +0.005 C 
ATOM     13  C   UNL     1       0.739  -2.027  -1.265  0.00  0.00    +0.000 C 
ATOM     14  C   UNL     1       1.479  -2.534  -0.026  0.00  0.00    +0.002 C 
ATOM     15  C   UNL     1       0.763  -2.041   1.233  0.00  0.00    +0.022 C 
ATOM     16  C   UNL     1       0.742  -0.511   1.242  0.00  0.00    +0.077 C 
ENDBRANCH   2  16
ENDBRANCH   1   6
BRANCH   1  17
ATOM     17  O   UNL     1       1.011   1.200   8.191  0.00  0.00    -0.452 OA
BRANCH  17  18
ATOM     18  C   UNL     1       0.536   1.619   9.383  0.00  0.00    +0.332 C 
ATOM     19  O   UNL     1      -0.635   1.928   9.496  0.00  0.00    -0.246 OA
BRANCH  18  20
ATOM     20  C   UNL     1       1.402   1.697  10.503  0.00  0.00    +0.092 C 
ATOM     21  C   UNL     1       0.926   2.116  11.696  0.00  0.00    +0.015 C 
BRANCH  21  22
ATOM     22  C   UNL     1       1.823   2.197  12.857  0.00  0.00    -0.021 A 
ATOM     23  C   UNL     1       3.172   1.847  12.729  0.00  0.00    +0.012 A 
ATOM     24  C   UNL     1       4.009   1.923  13.819  0.00  0.00    +0.050 A 
ATOM     25  C   UNL     1       3.520   2.348  15.050  0.00  0.00    +0.162 A 
ATOM     26  C   UNL     1       2.179   2.701  15.185  0.00  0.00    +0.163 A 
ATOM     27  C   UNL     1       1.333   2.631  14.094  0.00  0.00    +0.057 A 
ATOM     28  O   UNL     1       1.688   3.126  16.382  0.00  0.00    -0.485 OA
ATOM     29  C   UNL     1       2.477   2.836  17.541  0.00  0.00    +0.270 C 
ATOM     30  C   UNL     1       3.936   3.197  17.231  0.00  0.00    +0.270 C 
ATOM     31  O   UNL     1       4.365   2.412  16.114  0.00  0.00    -0.485 OA
ENDBRANCH  21  22
ENDBRANCH  18  20
ENDBRANCH  17  18
ENDBRANCH   1  17
TORSDOF 6
