REMARK  Name = ZINC16677053
REMARK  9 active torsions:
REMARK  status: ('A' for Active; 'I' for Inactive)
REMARK    1  A    between atoms: C_1  and  C_2
REMARK    2  A    between atoms: N_8  and  C_11
REMARK    3  A    between atoms: C_14  and  O_28
REMARK    4  A    between atoms: C_15  and  S_17
REMARK    5  A    between atoms: S_17  and  N_20
REMARK    6  A    between atoms: N_20  and  C_21
REMARK    7  A    between atoms: C_21  and  C_22
REMARK    8  A    between atoms: C_22  and  C_23
REMARK    9  A    between atoms: O_28  and  C_29
REMARK                            x       y       z     vdW  Elec       q    Type
REMARK                         _______ _______ _______ _____ _____    ______ ____
ROOT
ATOM      1  C   UNL     1       1.302  -2.012  -0.500  0.00  0.00    +0.061 A 
ATOM      2  C   UNL     1       2.578  -2.554  -0.420  0.00  0.00    +0.029 A 
ATOM      3  C   UNL     1       2.756  -3.920  -0.514  0.00  0.00    +0.049 A 
ATOM      4  C   UNL     1       1.660  -4.750  -0.701  0.00  0.00    +0.146 A 
ATOM      5  C   UNL     1       0.386  -4.210  -0.786  0.00  0.00    +0.148 A 
ATOM      6  C   UNL     1       0.206  -2.844  -0.686  0.00  0.00    +0.057 A 
ENDROOT
BRANCH   1  13
ATOM      7  C   UNL     1      -0.730   1.993   1.270  0.00  0.00    +0.019 C 
ATOM      8  C   UNL     1      -0.018   1.495   0.010  0.00  0.00    +0.097 C 
ATOM      9  C   UNL     1       1.445   2.011  -0.001  0.00  0.00    +0.201 C 
ATOM     10  S   UNL     1       2.263   0.545  -0.754  0.00  0.00    +0.053 S 
ATOM     11  O   UNL     1       3.427   0.182  -0.023  0.00  0.00    -0.155 OA
ATOM     12  O   UNL     1       2.282   0.646  -2.171  0.00  0.00    -0.155 OA
ATOM     13  N   UNL     1       1.121  -0.627  -0.398  0.00  0.00    -0.143 N 
ATOM     14  C   UNL     1       0.002  -0.004   0.002  0.00  0.00    +0.243 C 
ATOM     15  O   UNL     1      -0.971  -0.639   0.349  0.00  0.00    -0.273 OA
ENDBRANCH   1  13
BRANCH   5  16
ATOM     16  S   UNL     1      -1.005  -5.266  -1.023  0.00  0.00    +0.062 S 
ATOM     17  O   UNL     1      -0.889  -6.310  -0.067  0.00  0.00    -0.153 OA
ATOM     18  O   UNL     1      -2.147  -4.423  -1.095  0.00  0.00    -0.153 OA
BRANCH  16  19
ATOM     19  N   UNL     1      -0.839  -5.967  -2.514  0.00  0.00    -0.190 NA
ATOM     20  H   UNL     1      -1.480  -5.772  -3.216  0.00  0.00    +0.148 HD
BRANCH  19  21
ATOM     21  C   UNL     1       0.275  -6.883  -2.772  0.00  0.00    +0.111 C 
BRANCH  21  22
ATOM     22  C   UNL     1       0.001  -7.668  -4.057  0.00  0.00    +0.059 C 
BRANCH  22  23
ATOM     23  C   UNL     1       1.147  -8.611  -4.323  0.00  0.00    -0.009 A 
ATOM     24  C   UNL     1       1.311  -9.892  -3.913  0.00  0.00    +0.011 A 
ATOM     25  C   UNL     1       2.457 -10.572  -4.282  0.00  0.00    +0.008 A 
ATOM     26  C   UNL     1       3.382  -9.938  -5.043  0.00  0.00    +0.045 A 
ATOM     27  S   UNL     1       2.637  -8.331  -5.266  0.00  0.00    -0.102 S 
ENDBRANCH  22  23
ENDBRANCH  21  22
ENDBRANCH  19  21
ENDBRANCH  16  19
ENDBRANCH   5  16
BRANCH   4  28
ATOM     28  O   UNL     1       1.836  -6.095  -0.800  0.00  0.00    -0.493 OA
ATOM     29  C   UNL     1       3.175  -6.583  -0.703  0.00  0.00    +0.277 C 
ENDBRANCH   4  28
TORSDOF 7
