REMARK  Name = ZINC03878499
REMARK  6 active torsions:
REMARK  status: ('A' for Active; 'I' for Inactive)
REMARK    1  A    between atoms: C_3  and  N_11
REMARK    2  A    between atoms: C_4  and  O_10
REMARK    3  A    between atoms: C_6  and  N_7
REMARK    4  A    between atoms: N_11  and  C_12
REMARK    5  A    between atoms: C_12  and  N_14
REMARK    6  A    between atoms: C_15  and  C_17
REMARK                            x       y       z     vdW  Elec       q    Type
REMARK                         _______ _______ _______ _____ _____    ______ ____
ROOT
ATOM      1  C   UNL     1      -1.694   3.796   2.434  0.00  0.00    +0.141 C 
ATOM      2  S   UNL     1      -2.594   2.680   3.370  0.00  0.00    -0.018 S 
ENDROOT
BRANCH   1   3
ATOM      3  N   UNL     1      -1.046   3.379   1.328  0.00  0.00    -0.267 N 
ATOM      4  C   UNL     1      -1.106   2.084   0.960  0.00  0.00    +0.225 C 
ATOM      5  O   UNL     1      -1.744   1.294   1.623  0.00  0.00    -0.275 OA
ATOM      6  H   UNL     1      -0.536   4.011   0.797  0.00  0.00    +0.157 HD
BRANCH   4   7
ATOM      7  C   UNL     1      -0.382   1.618  -0.277  0.00  0.00    +0.048 C 
ATOM      8  C   UNL     1       1.116   1.889  -0.123  0.00  0.00    +0.019 C 
ATOM      9  C   UNL     1       1.851   1.415  -1.379  0.00  0.00    -0.009 C 
ATOM     10  C   UNL     1       1.621  -0.085  -1.569  0.00  0.00    +0.007 C 
ATOM     11  C   UNL     1       0.123  -0.356  -1.723  0.00  0.00    -0.009 C 
ATOM     12  C   UNL     1      -0.612   0.117  -0.468  0.00  0.00    +0.019 C 
ATOM     13  C   UNL     1      -0.409   0.401  -2.942  0.00  0.00    +0.007 C 
ATOM     14  C   UNL     1      -0.179   1.901  -2.751  0.00  0.00    -0.009 C 
ATOM     15  C   UNL     1       1.319   2.172  -2.597  0.00  0.00    +0.007 C 
ATOM     16  C   UNL     1      -0.914   2.374  -1.496  0.00  0.00    +0.019 C 
ENDBRANCH   4   7
ENDBRANCH   1   3
BRANCH   1  17
ATOM     17  N   UNL     1      -1.633   5.091   2.803  0.00  0.00    -0.294 N 
ATOM     18  H   UNL     1      -1.073   5.710   2.309  0.00  0.00    +0.154 HD
BRANCH  17  21
ATOM     19  C   UNL     1      -3.102   5.279   6.170  0.00  0.00    +0.035 A 
ATOM     20  C   UNL     1      -2.365   4.831   5.090  0.00  0.00    +0.029 A 
ATOM     21  C   UNL     1      -2.379   5.542   3.899  0.00  0.00    +0.075 A 
ATOM     22  C   UNL     1      -3.131   6.711   3.799  0.00  0.00    +0.140 A 
ATOM     23  C   UNL     1      -3.870   7.150   4.885  0.00  0.00    +0.080 A 
ATOM     24  C   UNL     1      -3.852   6.435   6.069  0.00  0.00    +0.130 A 
BRANCH  24  25
ATOM     25  N   UNL     1      -4.638   6.910   7.230  0.00  0.00    +0.057 N 
ATOM     26  O   UNL     1      -4.622   6.282   8.273  0.00  0.00    -0.126 OA
ATOM     27  O   UNL     1      -5.299   7.929   7.142  0.00  0.00    -0.126 OA
ENDBRANCH  24  25
BRANCH  22  28
ATOM     28  O   UNL     1      -3.143   7.416   2.636  0.00  0.00    -0.505 OA
ATOM     29  H   UNL     1      -3.841   7.149   2.022  0.00  0.00    +0.292 HD
ENDBRANCH  22  28
ENDBRANCH  17  21
ENDBRANCH   1  17
TORSDOF 6
