REMARK  Name = ZINC64492031
REMARK  12 active torsions:
REMARK  status: ('A' for Active; 'I' for Inactive)
REMARK    1  A    between atoms: C_1  and  C_2
REMARK    2  A    between atoms: C_2  and  N_3
REMARK    3  A    between atoms: N_6  and  C_9
REMARK    4  A    between atoms: C_9  and  C_10
REMARK    5  A    between atoms: C_10  and  N_11
REMARK    6  A    between atoms: C_12  and  C_14
REMARK    7  A    between atoms: C_21  and  C_23
REMARK    8  A    between atoms: C_25  and  C_34
REMARK    9  A    between atoms: C_26  and  C_30
REMARK   10  A    between atoms: C_27  and  C_29
REMARK   11  A    between atoms: C_30  and  O_32
REMARK   12  A    between atoms: O_32  and  C_33
REMARK                            x       y       z     vdW  Elec       q    Type
REMARK                         _______ _______ _______ _____ _____    ______ ____
ROOT
ATOM      1  C   UNL     1       2.483  -6.133  -7.839  0.00  0.00    +0.092 C 
ATOM      2  C   UNL     1       2.152  -7.610  -8.067  0.00  0.00    +0.016 C 
ATOM      3  C   UNL     1       2.806  -8.087  -9.366  0.00  0.00    +0.020 C 
ATOM      4  C   UNL     1       4.327  -7.945  -9.249  0.00  0.00    +0.108 C 
ATOM      5  N   UNL     1       4.646  -6.557  -8.887  0.00  0.00    -0.296 N 
ATOM      6  C   UNL     1       4.000  -5.968  -7.705  0.00  0.00    +0.120 C 
ATOM      7  C   UNL     1       5.515  -5.837  -9.624  0.00  0.00    +0.261 C 
ATOM      8  O   UNL     1       5.681  -4.657  -9.387  0.00  0.00    -0.269 OA
ENDROOT
BRANCH   7   9
ATOM      9  C   UNL     1       6.266  -6.483 -10.722  0.00  0.00    +0.111 C 
ATOM     10  N   UNL     1       6.287  -7.752 -11.009  0.00  0.00    -0.250 NA
ATOM     11  C   UNL     1       7.056  -8.052 -12.059  0.00  0.00    +0.049 C 
ATOM     12  C   UNL     1       7.646  -6.955 -12.591  0.00  0.00    +0.066 C 
ATOM     13  C   UNL     1       7.159  -5.798 -11.738  0.00  0.00    +0.078 C 
ATOM     14  C   UNL     1       8.335  -5.105 -11.046  0.00  0.00    +0.019 C 
ATOM     15  C   UNL     1       7.246  -9.450 -12.590  0.00  0.00    +0.066 C 
BRANCH  12  16
ATOM     16  C   UNL     1       8.552  -6.897 -13.741  0.00  0.00    +0.337 C 
ATOM     17  O   UNL     1       8.849  -7.917 -14.333  0.00  0.00    -0.245 OA
BRANCH  16  18
ATOM     18  O   UNL     1       9.056  -5.713 -14.144  0.00  0.00    -0.465 OA
ATOM     19  C   UNL     1       9.932  -5.731 -15.273  0.00  0.00    +0.280 C 
ENDBRANCH  16  18
ENDBRANCH  12  16
ENDBRANCH   7   9
BRANCH   1  21
ATOM     20  N   UNL     1       1.965  -4.379  -6.174  0.00  0.00    -0.314 N 
ATOM     21  C   UNL     1       1.812  -5.656  -6.577  0.00  0.00    +0.218 C 
ATOM     22  O   UNL     1       1.135  -6.421  -5.924  0.00  0.00    -0.275 OA
ATOM     23  H   UNL     1       2.507  -3.768  -6.696  0.00  0.00    +0.149 HD
BRANCH  20  24
ATOM     24  C   UNL     1       1.313  -3.916  -4.947  0.00  0.00    +0.119 C 
BRANCH  24  25
ATOM     25  C   UNL     1       1.646  -2.440  -4.719  0.00  0.00    +0.103 C 
BRANCH  25  29
ATOM     26  N   UNL     1       0.937  -0.718  -0.924  0.00  0.00    +0.381 N 
ATOM     27  C   UNL     1       0.346  -0.065  -2.099  0.00  0.00    -0.063 C 
ATOM     28  C   UNL     1       1.089  -0.514  -3.360  0.00  0.00    +0.066 C 
ATOM     29  N   UNL     1       0.992  -1.975  -3.488  0.00  0.00    -0.304 NA
ATOM     30  C   UNL     1       1.557  -2.642  -2.307  0.00  0.00    +0.066 C 
ATOM     31  C   UNL     1       0.810  -2.176  -1.055  0.00  0.00    -0.063 C 
ATOM     32  H   UNL     1       1.913  -0.471  -0.857  0.00  0.00    -0.082 HD
BRANCH  26  34
ATOM     33  C   UNL     1       0.471   1.224   0.493  0.00  0.00    -0.017 C 
ATOM     34  C   UNL     1       0.235  -0.273   0.287  0.00  0.00    -0.082 C 
ENDBRANCH  26  34
ENDBRANCH  25  29
ENDBRANCH  24  25
ENDBRANCH  20  24
ENDBRANCH   1  21
TORSDOF 8
