REMARK  Name = ZINC05643064
REMARK  7 active torsions:
REMARK  status: ('A' for Active; 'I' for Inactive)
REMARK    1  A    between atoms: C_1  and  C_2
REMARK    2  A    between atoms: C_2  and  C_3
REMARK    3  A    between atoms: C_3  and  C_4
REMARK    4  A    between atoms: C_4  and  C_6
REMARK    5  A    between atoms: C_4  and  N_7
REMARK    6  A    between atoms: C_14  and  C_21
REMARK    7  A    between atoms: C_18  and  O_20
REMARK                            x       y       z     vdW  Elec       q    Type
REMARK                         _______ _______ _______ _____ _____    ______ ____
ROOT
ATOM      1  N   UNL     1      -0.834  -2.537  -1.256  0.00  0.00    -0.264 N 
ATOM      2  C   UNL     1       0.305  -3.330  -1.382  0.00  0.00    +0.161 A 
ATOM      3  C   UNL     1       0.502  -3.541  -2.723  0.00  0.00    +0.079 A 
ATOM      4  C   UNL     1      -0.530  -2.874  -3.424  0.00  0.00    +0.271 A 
ATOM      5  O   UNL     1      -0.669  -2.851  -4.635  0.00  0.00    -0.266 OA
ATOM      6  N   UNL     1      -1.333  -2.276  -2.531  0.00  0.00    -0.261 N 
ATOM      7  H   UNL     1      -2.123  -1.752  -2.737  0.00  0.00    +0.190 HD
ATOM      8  C   UNL     1       1.578  -4.312  -3.425  0.00  0.00    +0.116 C 
ATOM      9  S   UNL     1       2.134  -5.742  -2.491  0.00  0.00    -0.138 S 
ATOM     10  C   UNL     1       2.939  -5.086  -1.022  0.00  0.00    +0.165 C 
ATOM     11  C   UNL     1       1.993  -4.446  -0.084  0.00  0.00    +0.199 C 
ATOM     12  N   UNL     1       0.980  -3.739  -0.314  0.00  0.00    -0.197 NA
ENDROOT
BRANCH   8  13
ATOM     13  C   UNL     1       1.050  -4.780  -4.757  0.00  0.00    -0.026 A 
ATOM     14  C   UNL     1      -0.060  -5.603  -4.809  0.00  0.00    +0.009 A 
ATOM     15  C   UNL     1      -0.548  -6.034  -6.028  0.00  0.00    +0.050 A 
ATOM     16  C   UNL     1       0.075  -5.643  -7.202  0.00  0.00    +0.166 A 
ATOM     17  C   UNL     1       1.193  -4.814  -7.150  0.00  0.00    +0.167 A 
ATOM     18  C   UNL     1       1.673  -4.381  -5.925  0.00  0.00    +0.054 A 
ATOM     19  O   UNL     1       1.618  -4.575  -8.425  0.00  0.00    -0.453 OA
ATOM     20  C   UNL     1       0.999  -5.592  -9.234  0.00  0.00    +0.466 C 
ATOM     21  O   UNL     1      -0.201  -5.922  -8.509  0.00  0.00    -0.453 OA
ENDBRANCH   8  13
BRANCH   1  22
ATOM     22  C   UNL     1      -1.413  -2.063   0.004  0.00  0.00    +0.104 C 
ATOM     23  C   UNL     1      -2.841  -2.594   0.141  0.00  0.00    +0.032 C 
BRANCH  22  24
ATOM     24  C   UNL     1      -1.433  -0.534   0.013  0.00  0.00    +0.026 C 
BRANCH  24  26
ATOM     25  C   UNL     1      -0.019   1.526   0.010  0.00  0.00    +0.004 C 
ATOM     26  C   UNL     1       0.002  -0.004   0.002  0.00  0.00    -0.001 C 
ENDBRANCH  24  26
ENDBRANCH  22  24
ENDBRANCH   1  22
BRANCH  11  27
ATOM     27  O   UNL     1       2.257  -4.653   1.218  0.00  0.00    -0.495 OA
ATOM     28  H   UNL     1       1.629  -4.229   1.819  0.00  0.00    +0.293 HD
ENDBRANCH  11  27
TORSDOF 5
