REMARK  Name = ZINC39467485
REMARK  7 active torsions:
REMARK  status: ('A' for Active; 'I' for Inactive)
REMARK    1  A    between atoms: C_1  and  C_2
REMARK    2  A    between atoms: C_2  and  O_3
REMARK    3  A    between atoms: O_3  and  C_4
REMARK    4  A    between atoms: P_13  and  C_24
REMARK    5  A    between atoms: C_21  and  O_22
REMARK    6  A    between atoms: O_22  and  C_23
REMARK    7  A    between atoms: C_29  and  O_30
REMARK                            x       y       z     vdW  Elec       q    Type
REMARK                         _______ _______ _______ _____ _____    ______ ____
ROOT
ATOM      1  C   UNL     1       0.777  -1.810  -1.336  0.00  0.00    +0.158 C 
ATOM      2  C   UNL     1       0.265  -2.642  -0.425  0.00  0.00    +0.026 C 
ATOM      3  C   UNL     1       0.403  -4.128  -0.618  0.00  0.00    +0.019 C 
ATOM      4  C   UNL     1       0.288  -4.854   0.716  0.00  0.00    -0.002 C 
ATOM      5  C   UNL     1       1.454  -4.482   1.640  0.00  0.00    -0.020 C 
ATOM      6  C   UNL     1       1.271  -5.279   2.939  0.00  0.00    +0.157 C 
ATOM      7  O   UNL     1       2.315  -4.933   3.867  0.00  0.00    -0.316 OA
ATOM      8  P   UNL     1       3.850  -4.981   3.329  0.00  0.00    +0.291 P 
ATOM      9  O   UNL     1       4.352  -6.374   3.333  0.00  0.00    -0.269 OA
ATOM     10  N   UNL     1       3.786  -4.401   1.786  0.00  0.00    -0.288 NA
ATOM     11  N   UNL     1       2.730  -4.801   0.994  0.00  0.00    +0.398 N 
ATOM     12  C   UNL     1       2.866  -4.054  -0.267  0.00  0.00    -0.046 C 
ATOM     13  C   UNL     1       1.770  -4.439  -1.235  0.00  0.00    +0.008 C 
ATOM     14  C   UNL     1       1.940  -3.611  -2.486  0.00  0.00    +0.025 C 
ATOM     15  C   UNL     1       1.455  -2.367  -2.526  0.00  0.00    +0.158 C 
ATOM     16  H   UNL     1       4.469  -3.800   1.448  0.00  0.00    +0.111 HD
ATOM     17  H   UNL     1       2.786  -5.793   0.823  0.00  0.00    -0.055 HD
ENDROOT
BRANCH   8  18
ATOM     18  C   UNL     1       4.910  -3.929   4.358  0.00  0.00    +0.091 A 
ATOM     19  C   UNL     1       5.087  -2.598   4.033  0.00  0.00    +0.018 A 
ATOM     20  C   UNL     1       5.895  -1.795   4.816  0.00  0.00    +0.001 A 
ATOM     21  C   UNL     1       6.528  -2.322   5.927  0.00  0.00    +0.004 A 
ATOM     22  C   UNL     1       6.355  -3.652   6.256  0.00  0.00    +0.046 A 
ATOM     23  C   UNL     1       5.540  -4.458   5.475  0.00  0.00    +0.131 A 
BRANCH  23  24
ATOM     24  O   UNL     1       5.363  -5.766   5.800  0.00  0.00    -0.506 OA
ATOM     25  H   UNL     1       6.010  -6.362   5.397  0.00  0.00    +0.292 HD
ENDBRANCH  23  24
ENDBRANCH   8  18
BRANCH  15  26
ATOM     26  O   UNL     1       1.587  -1.616  -3.651  0.00  0.00    -0.492 OA
ATOM     27  C   UNL     1       2.253  -2.221  -4.761  0.00  0.00    +0.277 C 
ENDBRANCH  15  26
BRANCH   1  28
ATOM     28  O   UNL     1       0.671  -0.465  -1.174  0.00  0.00    -0.489 OA
BRANCH  28  30
ATOM     29  C   UNL     1      -0.019   1.526   0.010  0.00  0.00    +0.048 C 
ATOM     30  C   UNL     1       0.002  -0.004   0.002  0.00  0.00    +0.226 C 
ENDBRANCH  28  30
ENDBRANCH   1  28
TORSDOF 5
