REMARK  Name = ZINC15884956
REMARK  6 active torsions:
REMARK  status: ('A' for Active; 'I' for Inactive)
REMARK    1  A    between atoms: C_1  and  C_2
REMARK    2  A    between atoms: C_2  and  C_24
REMARK    3  A    between atoms: N_3  and  N_4
REMARK    4  A    between atoms: C_5  and  C_7
REMARK    5  A    between atoms: C_8  and  C_18
REMARK    6  A    between atoms: C_29  and  O_30
REMARK                            x       y       z     vdW  Elec       q    Type
REMARK                         _______ _______ _______ _____ _____    ______ ____
ROOT
ATOM      1  C   UNL     1       0.046   0.084   4.782  0.00  0.00    +0.177 A 
ATOM      2  C   UNL     1       0.072  -0.490   6.048  0.00  0.00    +0.109 A 
ATOM      3  N   UNL     1       0.064   0.548   6.936  0.00  0.00    -0.187 N 
ATOM      4  N   UNL     1       0.034   1.726   6.177  0.00  0.00    -0.058 NA
ATOM      5  N   UNL     1       0.030   1.419   4.928  0.00  0.00    -0.124 NA
ATOM      6  C   UNL     1       0.082   0.454   8.331  0.00  0.00    +0.241 A 
ATOM      7  C   UNL     1       0.068   1.582   9.268  0.00  0.00    +0.206 A 
ATOM      8  N   UNL     1       0.092   1.107  10.482  0.00  0.00    -0.032 NA
ATOM      9  O   UNL     1       0.122  -0.306  10.395  0.00  0.00    -0.239 OA
ATOM     10  N   UNL     1       0.109  -0.651   9.021  0.00  0.00    -0.027 NA
ATOM     11  N   UNL     1       0.034   2.928   8.920  0.00  0.00    -0.337 N 
ATOM     12  H   UNL     1       0.018   3.188   7.986  0.00  0.00    +0.144 HD
ATOM     13  H   UNL     1       0.027   3.607   9.612  0.00  0.00    +0.144 HD
ENDROOT
BRANCH   2  14
ATOM     14  C   UNL     1       0.100  -1.931   6.369  0.00  0.00    +0.003 A 
ATOM     15  C   UNL     1       0.970  -2.415   7.348  0.00  0.00    +0.010 A 
ATOM     16  C   UNL     1       0.992  -3.762   7.643  0.00  0.00    +0.001 A 
ATOM     17  C   UNL     1       0.154  -4.634   6.971  0.00  0.00    +0.000 A 
ATOM     18  C   UNL     1      -0.711  -4.162   5.999  0.00  0.00    +0.001 A 
ATOM     19  C   UNL     1      -0.746  -2.816   5.698  0.00  0.00    +0.010 A 
ENDBRANCH   2  14
BRANCH   1  21
ATOM     20  N   UNL     1       0.024   0.035   2.340  0.00  0.00    -0.201 N 
ATOM     21  C   UNL     1       0.044  -0.645   3.503  0.00  0.00    +0.286 C 
ATOM     22  O   UNL     1       0.060  -1.862   3.497  0.00  0.00    -0.267 OA
ATOM     23  H   UNL     1       0.011   1.005   2.345  0.00  0.00    +0.178 HD
BRANCH  20  26
ATOM     24  C   UNL     1      -0.018   1.503   0.010  0.00  0.00    +0.068 C 
ATOM     25  C   UNL     1       0.002  -0.004   0.002  0.00  0.00    +0.067 C 
ATOM     26  N   UNL     1       0.022  -0.659   1.123  0.00  0.00    -0.184 NA
BRANCH  25  27
ATOM     27  C   UNL     1      -0.000  -0.734  -1.278  0.00  0.00    +0.039 A 
ATOM     28  C   UNL     1      -0.015  -0.033  -2.486  0.00  0.00    +0.013 A 
ATOM     29  C   UNL     1      -0.017  -0.722  -3.681  0.00  0.00    +0.001 A 
ATOM     30  C   UNL     1      -0.004  -2.107  -3.688  0.00  0.00    +0.004 A 
ATOM     31  C   UNL     1       0.011  -2.812  -2.499  0.00  0.00    +0.046 A 
ATOM     32  C   UNL     1       0.019  -2.135  -1.290  0.00  0.00    +0.126 A 
BRANCH  32  33
ATOM     33  O   UNL     1       0.039  -2.827  -0.122  0.00  0.00    -0.506 OA
ATOM     34  H   UNL     1      -0.838  -3.040   0.225  0.00  0.00    +0.292 HD
ENDBRANCH  32  33
ENDBRANCH  25  27
ENDBRANCH  20  26
ENDBRANCH   1  21
TORSDOF 5
