REMARK  Name = ZINC36848492
REMARK  7 active torsions:
REMARK  status: ('A' for Active; 'I' for Inactive)
REMARK    1  A    between atoms: C_1  and  C_2
REMARK    2  A    between atoms: C_8  and  N_10
REMARK    3  A    between atoms: C_11  and  C_13
REMARK    4  A    between atoms: C_13  and  N_14
REMARK    5  A    between atoms: C_17  and  C_21
REMARK    6  A    between atoms: C_17  and  C_22
REMARK    7  A    between atoms: C_25  and  C_28
REMARK                            x       y       z     vdW  Elec       q    Type
REMARK                         _______ _______ _______ _____ _____    ______ ____
ROOT
ATOM      1  N   UNL     1       4.722   0.698   3.749  0.00  0.00    -0.215 N 
ATOM      2  C   UNL     1       4.599   1.763   4.566  0.00  0.00    +0.251 C 
ATOM      3  O   UNL     1       4.063   2.821   4.314  0.00  0.00    -0.272 OA
ATOM      4  C   UNL     1       5.269   1.362   5.865  0.00  0.00    +0.135 C 
ATOM      5  N   UNL     1       5.735  -0.011   5.605  0.00  0.00    -0.281 N 
ATOM      6  C   UNL     1       5.365  -0.311   4.347  0.00  0.00    +0.310 C 
ATOM      7  O   UNL     1       5.593  -1.379   3.812  0.00  0.00    -0.252 OA
ATOM      8  C   UNL     1       6.451   2.284   6.168  0.00  0.00    +0.047 C 
ATOM      9  H   UNL     1       6.213  -0.587   6.222  0.00  0.00    +0.152 HD
ENDROOT
BRANCH   4  10
ATOM     10  C   UNL     1       4.277   1.379   7.000  0.00  0.00    -0.015 A 
ATOM     11  C   UNL     1       3.207   2.256   6.967  0.00  0.00    +0.007 A 
ATOM     12  C   UNL     1       2.296   2.277   8.002  0.00  0.00    +0.019 A 
ATOM     13  C   UNL     1       2.455   1.410   9.085  0.00  0.00    +0.052 A 
ATOM     14  C   UNL     1       3.537   0.528   9.112  0.00  0.00    +0.019 A 
ATOM     15  C   UNL     1       4.438   0.514   8.068  0.00  0.00    +0.007 A 
BRANCH  13  16
ATOM     16  C   UNL     1       1.513   1.427  10.164  0.00  0.00    +0.099 C 
ATOM     17  N   UNL     1       0.766   1.440  11.020  0.00  0.00    -0.191 NA
ENDBRANCH  13  16
ENDBRANCH   4  10
BRANCH   1  18
ATOM     18  C   UNL     1       4.209   0.649   2.377  0.00  0.00    +0.213 C 
BRANCH  18  20
ATOM     19  N   UNL     1       2.116  -0.004   1.231  0.00  0.00    -0.311 N 
ATOM     20  C   UNL     1       2.795   0.128   2.388  0.00  0.00    +0.231 C 
ATOM     21  O   UNL     1       2.268  -0.174   3.438  0.00  0.00    -0.274 OA
ATOM     22  H   UNL     1       2.538   0.237   0.392  0.00  0.00    +0.149 HD
BRANCH  19  29
ATOM     23  C   UNL     1      -0.019   1.526   0.010  0.00  0.00    +0.009 C 
ATOM     24  C   UNL     1       0.002  -0.004   0.002  0.00  0.00    +0.006 C 
ATOM     25  C   UNL     1       0.718  -0.497  -1.257  0.00  0.00    +0.005 C 
ATOM     26  C   UNL     1       0.739  -2.027  -1.265  0.00  0.00    +0.000 C 
ATOM     27  C   UNL     1       1.479  -2.534  -0.026  0.00  0.00    +0.002 C 
ATOM     28  C   UNL     1       0.763  -2.041   1.233  0.00  0.00    +0.022 C 
ATOM     29  C   UNL     1       0.742  -0.511   1.242  0.00  0.00    +0.076 C 
ENDBRANCH  19  29
ENDBRANCH  18  20
ENDBRANCH   1  18
TORSDOF 5
