REMARK  Name = ZINC60376887
REMARK  9 active torsions:
REMARK  status: ('A' for Active; 'I' for Inactive)
REMARK    1  A    between atoms: C_1  and  C_2
REMARK    2  A    between atoms: C_5  and  C_8
REMARK    3  A    between atoms: N_15  and  C_18
REMARK    4  A    between atoms: C_18  and  C_19
REMARK    5  A    between atoms: C_19  and  C_20
REMARK    6  A    between atoms: N_22  and  C_23
REMARK    7  A    between atoms: C_23  and  C_24
REMARK    8  A    between atoms: C_24  and  N_25
REMARK    9  A    between atoms: C_29  and  C_32
REMARK                            x       y       z     vdW  Elec       q    Type
REMARK                         _______ _______ _______ _____ _____    ______ ____
ROOT
ATOM      1  C   UNL     1       3.910  -4.858   3.167  0.00  0.00    +0.135 C 
ENDROOT
BRANCH   1   9
ATOM      2  C   UNL     1       0.060  -4.255  -0.021  0.00  0.00    +0.004 A 
ATOM      3  C   UNL     1      -0.825  -4.953  -0.774  0.00  0.00    +0.056 A 
ATOM      4  S   UNL     1      -0.397  -6.651  -0.444  0.00  0.00    -0.076 S 
ATOM      5  C   UNL     1       0.945  -6.388   0.686  0.00  0.00    +0.116 A 
ATOM      6  C   UNL     1       1.035  -4.989   0.776  0.00  0.00    +0.080 A 
ATOM      7  C   UNL     1       2.062  -4.488   1.637  0.00  0.00    +0.263 A 
ATOM      8  O   UNL     1       2.215  -3.288   1.785  0.00  0.00    -0.267 OA
ATOM      9  N   UNL     1       2.856  -5.362   2.283  0.00  0.00    -0.298 N 
ATOM     10  C   UNL     1       2.700  -6.702   2.131  0.00  0.00    +0.203 A 
ATOM     11  N   UNL     1       1.765  -7.190   1.360  0.00  0.00    -0.230 NA
BRANCH   2  16
ATOM     12  C   UNL     1      -0.018   1.503   0.010  0.00  0.00    +0.044 C 
ATOM     13  C   UNL     1       0.002  -0.004   0.002  0.00  0.00    -0.050 A 
ATOM     14  C   UNL     1       0.006  -0.686  -1.201  0.00  0.00    +0.004 A 
ATOM     15  C   UNL     1       0.024  -2.066  -1.215  0.00  0.00    +0.009 A 
ATOM     16  C   UNL     1       0.040  -2.772  -0.013  0.00  0.00    -0.017 A 
ATOM     17  C   UNL     1       0.037  -2.079   1.196  0.00  0.00    +0.009 A 
ATOM     18  C   UNL     1       0.023  -0.699   1.198  0.00  0.00    +0.004 A 
ENDBRANCH   2  16
ENDBRANCH   1   9
BRANCH   1  19
ATOM     19  C   UNL     1       3.356  -4.700   4.584  0.00  0.00    +0.117 C 
BRANCH  19  20
ATOM     20  C   UNL     1       4.440  -4.182   5.493  0.00  0.00    +0.215 C 
ATOM     21  O   UNL     1       5.547  -3.960   5.051  0.00  0.00    -0.276 OA
ATOM     22  N   UNL     1       4.179  -3.965   6.797  0.00  0.00    -0.314 N 
ATOM     23  H   UNL     1       3.293  -4.142   7.151  0.00  0.00    +0.149 HD
BRANCH  22  24
ATOM     24  C   UNL     1       5.233  -3.460   7.681  0.00  0.00    +0.123 C 
BRANCH  24  25
ATOM     25  C   UNL     1       4.678  -3.303   9.098  0.00  0.00    +0.121 C 
BRANCH  25  26
ATOM     26  N   UNL     1       5.732  -2.799   9.982  0.00  0.00    -0.326 N 
ATOM     27  C   UNL     1       5.463  -2.575  11.327  0.00  0.00    +0.139 A 
ATOM     28  C   UNL     1       4.193  -2.834  11.841  0.00  0.00    +0.047 A 
ATOM     29  C   UNL     1       3.976  -2.595  13.188  0.00  0.00    +0.026 A 
ATOM     30  C   UNL     1       5.036  -2.111  13.943  0.00  0.00    +0.032 A 
ATOM     31  N   UNL     1       6.205  -1.894  13.376  0.00  0.00    -0.280 N 
ATOM     32  N   UNL     1       6.414  -2.118  12.129  0.00  0.00    -0.159 NA
ATOM     33  C   UNL     1       4.849  -1.835  15.413  0.00  0.00    +0.065 C 
ATOM     34  H   UNL     1       6.618  -2.621   9.628  0.00  0.00    +0.148 HD
ATOM     35  H   UNL     1       6.934  -1.556  13.919  0.00  0.00    +0.189 HD
ENDBRANCH  25  26
ENDBRANCH  24  25
ENDBRANCH  22  24
ENDBRANCH  19  20
ENDBRANCH   1  19
TORSDOF 7
