REMARK  Name = ZINC63526791
REMARK  8 active torsions:
REMARK  status: ('A' for Active; 'I' for Inactive)
REMARK    1  A    between atoms: C_1  and  C_2
REMARK    2  A    between atoms: C_4  and  C_12
REMARK    3  A    between atoms: C_12  and  C_13
REMARK    4  A    between atoms: C_13  and  N_14
REMARK    5  A    between atoms: C_15  and  C_17
REMARK    6  A    between atoms: C_19  and  S_25
REMARK    7  A    between atoms: S_25  and  N_28
REMARK    8  A    between atoms: N_28  and  C_29
REMARK                            x       y       z     vdW  Elec       q    Type
REMARK                         _______ _______ _______ _____ _____    ______ ____
ROOT
ATOM      1  N   UNL     1       0.157  -0.438  -4.541  0.00  0.00    -0.311 N 
ATOM      2  C   UNL     1       1.065  -0.986  -5.372  0.00  0.00    +0.246 C 
ATOM      3  O   UNL     1       1.997  -1.623  -4.920  0.00  0.00    -0.270 OA
ATOM      4  H   UNL     1      -0.586   0.070  -4.902  0.00  0.00    +0.149 HD
ENDROOT
BRANCH   2   5
ATOM      5  C   UNL     1       0.930  -0.812  -6.833  0.00  0.00    +0.057 A 
ATOM      6  C   UNL     1      -0.136  -0.076  -7.355  0.00  0.00    +0.044 A 
ATOM      7  C   UNL     1      -0.257   0.083  -8.719  0.00  0.00    +0.124 A 
ATOM      8  C   UNL     1       0.675  -0.486  -9.572  0.00  0.00    +0.069 A 
ATOM      9  C   UNL     1       1.733  -1.218  -9.062  0.00  0.00    +0.042 A 
ATOM     10  C   UNL     1       1.870  -1.379  -7.697  0.00  0.00    +0.055 A 
ATOM     11 CL   UNL     1       3.202  -2.290  -7.058  0.00  0.00    -0.083 Cl
ATOM     12 CL   UNL     1       0.513  -0.281 -11.288  0.00  0.00    -0.081 Cl
BRANCH   7  13
ATOM     13  S   UNL     1      -1.601   1.012  -9.379  0.00  0.00    +0.060 S 
ATOM     14  O   UNL     1      -2.396   1.418  -8.274  0.00  0.00    -0.153 OA
ATOM     15  O   UNL     1      -1.040   1.941 -10.297  0.00  0.00    -0.153 OA
BRANCH  13  16
ATOM     16  N   UNL     1      -2.527  -0.032 -10.270  0.00  0.00    -0.187 NA
ATOM     17  H   UNL     1      -2.611   0.090 -11.228  0.00  0.00    +0.148 HD
BRANCH  16  18
ATOM     18  C   UNL     1      -3.220  -1.142  -9.610  0.00  0.00    +0.077 C 
ATOM     19  C   UNL     1      -3.378  -2.444 -10.397  0.00  0.00    +0.022 C 
ATOM     20  C   UNL     1      -4.591  -1.544 -10.157  0.00  0.00    +0.022 C 
ENDBRANCH  16  18
ENDBRANCH  13  16
ENDBRANCH   7  13
ENDBRANCH   2   5
BRANCH   1  21
ATOM     21  C   UNL     1       0.291  -0.611  -3.092  0.00  0.00    +0.109 C 
BRANCH  21  22
ATOM     22  C   UNL     1      -0.861   0.104  -2.384  0.00  0.00    +0.052 C 
BRANCH  22  25
ATOM     23  C   UNL     1      -1.678   1.998   0.117  0.00  0.00    +0.035 C 
ATOM     24  C   UNL     1      -1.644   0.469   0.176  0.00  0.00    +0.103 C 
ATOM     25  C   UNL     1      -0.723  -0.073  -0.894  0.00  0.00    -0.037 C 
ATOM     26  C   UNL     1       0.251  -0.750  -0.243  0.00  0.00    -0.001 A 
ATOM     27  C   UNL     1       1.427  -1.495  -0.709  0.00  0.00    +0.010 A 
ATOM     28  C   UNL     1       2.236  -2.079   0.203  0.00  0.00    +0.001 A 
ATOM     29  C   UNL     1       1.981  -1.992   1.579  0.00  0.00    +0.002 A 
ATOM     30  C   UNL     1       0.921  -1.325   2.083  0.00  0.00    +0.026 A 
ATOM     31  C   UNL     1       0.004  -0.672   1.215  0.00  0.00    +0.043 A 
ATOM     32  N   UNL     1      -1.082   0.025   1.456  0.00  0.00    -0.378 N 
ATOM     33  H   UNL     1      -1.451   0.215   2.333  0.00  0.00    +0.160 HD
ENDBRANCH  22  25
ENDBRANCH  21  22
ENDBRANCH   1  21
TORSDOF 7
