REMARK  Name = ZINC55881737
REMARK  10 active torsions:
REMARK  status: ('A' for Active; 'I' for Inactive)
REMARK    1  A    between atoms: C_1  and  C_2
REMARK    2  A    between atoms: C_2  and  N_3
REMARK    3  A    between atoms: C_4  and  C_6
REMARK    4  A    between atoms: C_9  and  N_13
REMARK    5  A    between atoms: C_10  and  C_12
REMARK    6  A    between atoms: N_13  and  C_14
REMARK    7  A    between atoms: C_14  and  C_15
REMARK    8  A    between atoms: N_17  and  C_18
REMARK    9  A    between atoms: C_21  and  N_25
REMARK   10  A    between atoms: C_23  and  C_24
REMARK                            x       y       z     vdW  Elec       q    Type
REMARK                         _______ _______ _______ _____ _____    ______ ____
ROOT
ATOM      1  N   UNL     1      -6.889  -3.790   0.030  0.00  0.00    -0.335 N 
ATOM      2  H   UNL     1      -7.053  -4.746   0.037  0.00  0.00    +0.147 HD
ENDROOT
BRANCH   1   6
ATOM      3  C   UNL     1      -2.985  -2.349  -0.029  0.00  0.00    +0.037 A 
ATOM      4  C   UNL     1      -4.061  -1.456  -0.019  0.00  0.00    +0.015 A 
ATOM      5  C   UNL     1      -5.351  -1.936   0.001  0.00  0.00    +0.024 A 
ATOM      6  C   UNL     1      -5.585  -3.308   0.010  0.00  0.00    +0.030 A 
ATOM      7  C   UNL     1      -4.515  -4.199   0.000  0.00  0.00    -0.029 A 
ATOM      8  C   UNL     1      -3.223  -3.726  -0.026  0.00  0.00    +0.018 A 
ATOM      9  C   UNL     1      -4.773  -5.684   0.011  0.00  0.00    +0.045 C 
BRANCH   3  11
ATOM     10  N   UNL     1      -1.374  -0.509  -0.055  0.00  0.00    -0.312 N 
ATOM     11  C   UNL     1      -1.601  -1.838  -0.051  0.00  0.00    +0.244 C 
ATOM     12  O   UNL     1      -0.666  -2.615  -0.065  0.00  0.00    -0.270 OA
ATOM     13  H   UNL     1      -2.119   0.111  -0.043  0.00  0.00    +0.149 HD
BRANCH  10  15
ATOM     14  C   UNL     1      -0.021   1.528  -0.076  0.00  0.00    +0.024 C 
ATOM     15  C   UNL     1       0.001  -0.002  -0.076  0.00  0.00    +0.101 C 
ENDBRANCH  10  15
ENDBRANCH   3  11
ENDBRANCH   1   6
BRANCH   1  16
ATOM     16  C   UNL     1      -8.015  -2.853   0.042  0.00  0.00    +0.198 C 
BRANCH  16  17
ATOM     17  C   UNL     1      -9.310  -3.625   0.063  0.00  0.00    +0.234 C 
ATOM     18  O   UNL     1      -9.293  -4.837   0.068  0.00  0.00    -0.274 OA
ATOM     19  N   UNL     1     -10.486  -2.967   0.076  0.00  0.00    -0.284 N 
ATOM     20  H   UNL     1     -10.500  -2.000   0.152  0.00  0.00    +0.155 HD
BRANCH  19  21
ATOM     21  C   UNL     1     -11.687  -3.679  -0.021  0.00  0.00    +0.036 A 
ATOM     22  C   UNL     1     -11.708  -4.928  -0.628  0.00  0.00    +0.026 A 
ATOM     23  C   UNL     1     -12.895  -5.628  -0.722  0.00  0.00    +0.034 A 
ATOM     24  C   UNL     1     -14.061  -5.087  -0.212  0.00  0.00    +0.127 A 
ATOM     25  C   UNL     1     -14.043  -3.843   0.392  0.00  0.00    +0.038 A 
ATOM     26  C   UNL     1     -12.858  -3.141   0.495  0.00  0.00    -0.027 A 
ATOM     27  C   UNL     1     -12.838  -1.789   1.160  0.00  0.00    +0.046 C 
BRANCH  24  28
ATOM     28  N   UNL     1     -15.331  -5.840  -0.315  0.00  0.00    +0.056 N 
ATOM     29  O   UNL     1     -15.348  -6.927  -0.843  0.00  0.00    -0.126 OA
ATOM     30  O   UNL     1     -16.352  -5.368   0.130  0.00  0.00    -0.126 OA
ENDBRANCH  24  28
ENDBRANCH  19  21
ENDBRANCH  16  17
ENDBRANCH   1  16
TORSDOF 7
