REMARK  Name = ZINC52301361
REMARK  5 active torsions:
REMARK  status: ('A' for Active; 'I' for Inactive)
REMARK    1  A    between atoms: C_1  and  C_2
REMARK    2  A    between atoms: C_7  and  C_9
REMARK    3  A    between atoms: C_7  and  N_12
REMARK    4  A    between atoms: N_12  and  C_13
REMARK    5  A    between atoms: C_16  and  C_18
REMARK                            x       y       z     vdW  Elec       q    Type
REMARK                         _______ _______ _______ _____ _____    ______ ____
ROOT
ATOM      1  C   UNL     1      -0.019   1.526   0.010  0.00  0.00    +0.007 C 
ATOM      2  C   UNL     1       0.002  -0.004   0.002  0.00  0.00    -0.015 C 
ATOM      3  C   UNL     1       0.718  -0.497  -1.257  0.00  0.00    +0.003 C 
ATOM      4  C   UNL     1       0.739  -2.027  -1.265  0.00  0.00    -0.001 C 
ATOM      5  C   UNL     1       1.479  -2.534  -0.026  0.00  0.00    -0.001 C 
ATOM      6  C   UNL     1       0.763  -2.041   1.233  0.00  0.00    +0.036 C 
ATOM      7  C   UNL     1       0.742  -0.511   1.242  0.00  0.00    +0.002 C 
ENDROOT
BRANCH   6   8
ATOM      8  C   UNL     1      -0.651  -2.562   1.244  0.00  0.00    +0.345 C 
ATOM      9  O   UNL     1      -1.032  -3.274   2.158  0.00  0.00    -0.248 OA
ATOM     10  O   UNL     1      -1.414  -2.273   0.338  0.00  0.00    -0.248 OA
ENDBRANCH   6   8
BRANCH   6  11
ATOM     11  N   UNL     1       1.473  -2.527   2.423  0.00  0.00    +0.392 N 
ATOM     12  H   UNL     1       2.420  -2.178   2.416  0.00  0.00    -0.084 HD
ATOM     13  H   UNL     1       1.001  -2.202   3.253  0.00  0.00    -0.084 HD
BRANCH  11  14
ATOM     14  C   UNL     1       1.493  -3.996   2.415  0.00  0.00    -0.067 C 
ATOM     15  C   UNL     1       0.760  -4.719   3.547  0.00  0.00    -0.014 C 
ATOM     16  C   UNL     1       2.290  -4.698   3.517  0.00  0.00    -0.030 C 
ATOM     17  C   UNL     1       3.005  -3.816   4.542  0.00  0.00    +0.006 C 
ENDBRANCH  11  14
ENDBRANCH   6  11
TORSDOF 3
