REMARK  Name = ZINC22439328
REMARK  8 active torsions:
REMARK  status: ('A' for Active; 'I' for Inactive)
REMARK    1  A    between atoms: C_1  and  C_2
REMARK    2  A    between atoms: C_7  and  N_8
REMARK    3  A    between atoms: N_8  and  C_9
REMARK    4  A    between atoms: C_9  and  C_16
REMARK    5  A    between atoms: C_12  and  C_15
REMARK    6  A    between atoms: N_20  and  C_21
REMARK    7  A    between atoms: C_23  and  C_28
REMARK    8  A    between atoms: C_25  and  C_27
REMARK                            x       y       z     vdW  Elec       q    Type
REMARK                         _______ _______ _______ _____ _____    ______ ____
ROOT
ATOM      1  C   UNL     1      -1.078   4.743   5.488  0.00  0.00    +0.094 C 
ATOM      2  C   UNL     1      -0.937   5.410   4.118  0.00  0.00    +0.034 C 
ATOM      3  C   UNL     1      -2.033   6.464   3.949  0.00  0.00    +0.006 C 
ATOM      4  C   UNL     1      -1.898   7.521   5.048  0.00  0.00    -0.014 C 
ATOM      5  C   UNL     1      -2.038   6.854   6.417  0.00  0.00    +0.006 C 
ATOM      6  C   UNL     1      -0.942   5.800   6.586  0.00  0.00    +0.034 C 
ATOM      7  C   UNL     1      -2.993   8.575   4.879  0.00  0.00    +0.007 C 
ENDROOT
BRANCH   1   8
ATOM      8  C   UNL     1       0.002   3.704   5.654  0.00  0.00    +0.180 A 
ATOM      9  N   UNL     1       0.830   3.601   6.660  0.00  0.00    -0.111 NA
ATOM     10  N   UNL     1       1.629   2.611   6.489  0.00  0.00    -0.023 NA
ATOM     11  N   UNL     1       1.367   2.014   5.376  0.00  0.00    -0.039 NA
ATOM     12  N   UNL     1       0.291   2.706   4.792  0.00  0.00    -0.195 N 
BRANCH  12  13
ATOM     13  C   UNL     1      -0.342   2.422   3.573  0.00  0.00    +0.070 A 
ATOM     14  C   UNL     1      -1.727   2.386   3.501  0.00  0.00    +0.031 A 
ATOM     15  C   UNL     1      -2.348   2.106   2.299  0.00  0.00    -0.048 A 
ATOM     16  C   UNL     1      -1.590   1.868   1.167  0.00  0.00    +0.006 A 
ATOM     17  C   UNL     1      -0.209   1.898   1.237  0.00  0.00    -0.048 A 
ATOM     18  C   UNL     1       0.417   2.177   2.436  0.00  0.00    +0.031 A 
ATOM     19  C   UNL     1       0.613   1.632   0.003  0.00  0.00    +0.044 C 
ATOM     20  C   UNL     1      -3.852   2.066   2.220  0.00  0.00    +0.044 C 
ENDBRANCH  12  13
ENDBRANCH   1   8
BRANCH   1  21
ATOM     21  N   UNL     1      -2.392   4.102   5.587  0.00  0.00    -0.331 N 
ATOM     22  H   UNL     1      -3.121   4.213   4.771  0.00  0.00    +0.147 HD
BRANCH  21  29
ATOM     23  C   UNL     1      -4.967   2.899   5.699  0.00  0.00    +0.045 C 
ATOM     24  C   UNL     1      -3.965   2.744   6.814  0.00  0.00    -0.030 A 
ATOM     25  C   UNL     1      -4.284   1.999   7.932  0.00  0.00    +0.005 A 
ATOM     26  C   UNL     1      -3.365   1.856   8.955  0.00  0.00    +0.000 A 
ATOM     27  C   UNL     1      -2.123   2.457   8.862  0.00  0.00    +0.002 A 
ATOM     28  C   UNL     1      -1.795   3.199   7.744  0.00  0.00    +0.023 A 
ATOM     29  C   UNL     1      -2.718   3.349   6.717  0.00  0.00    +0.031 A 
ENDBRANCH  21  29
ENDBRANCH   1  21
TORSDOF 4
