REMARK  Name = ZINC02793722
REMARK  11 active torsions:
REMARK  status: ('A' for Active; 'I' for Inactive)
REMARK    1  A    between atoms: C_1  and  C_2
REMARK    2  A    between atoms: C_5  and  C_30
REMARK    3  A    between atoms: C_9  and  C_12
REMARK    4  A    between atoms: N_14  and  N_15
REMARK    5  A    between atoms: N_15  and  C_16
REMARK    6  A    between atoms: C_16  and  N_18
REMARK    7  A    between atoms: N_18  and  C_19
REMARK    8  A    between atoms: C_22  and  O_27
REMARK    9  A    between atoms: C_24  and  O_25
REMARK   10  A    between atoms: O_25  and  C_26
REMARK   11  A    between atoms: O_27  and  C_28
REMARK                            x       y       z     vdW  Elec       q    Type
REMARK                         _______ _______ _______ _____ _____    ______ ____
ROOT
ATOM      1  C   UNL     1       5.981  -0.824   0.243  0.00  0.00    +0.265 C 
ATOM      2  O   UNL     1       6.001  -2.037   0.328  0.00  0.00    -0.268 OA
ATOM      3  N   UNL     1       4.804  -0.173   0.157  0.00  0.00    -0.231 N 
ATOM      4  H   UNL     1       4.788   0.794   0.089  0.00  0.00    +0.173 HD
ENDROOT
BRANCH   1  11
ATOM      5  C   UNL     1      10.708  -3.512   0.787  0.00  0.00    +0.028 C 
ATOM      6  C   UNL     1      10.262  -2.054   0.905  0.00  0.00    +0.071 C 
ATOM      7  C   UNL     1      11.187  -1.167   0.064  0.00  0.00    +0.058 C 
ATOM      8  C   UNL     1      10.845   0.305   0.336  0.00  0.00    +0.214 C 
ATOM      9  N   UNL     1       9.384   0.444   0.275  0.00  0.00    -0.238 N 
ATOM     10  C   UNL     1       8.522  -0.595   0.317  0.00  0.00    +0.130 A 
ATOM     11  C   UNL     1       7.239  -0.068   0.235  0.00  0.00    +0.097 A 
ATOM     12  C   UNL     1       7.378   1.338   0.137  0.00  0.00    +0.149 A 
ATOM     13  N   UNL     1       8.651   1.626   0.168  0.00  0.00    -0.177 NA
ATOM     14  N   UNL     1       8.880  -1.923   0.421  0.00  0.00    -0.326 N 
ATOM     15  H   UNL     1       8.238  -2.425   1.016  0.00  0.00    +0.148 HD
BRANCH   8  16
ATOM     16  C   UNL     1      11.495   1.193  -0.728  0.00  0.00    +0.412 C 
ATOM     17  F   UNL     1      11.147   2.528  -0.496  0.00  0.00    -0.168 F 
ATOM     18  F   UNL     1      12.885   1.055  -0.664  0.00  0.00    -0.168 F 
ATOM     19  F   UNL     1      11.045   0.807  -1.995  0.00  0.00    -0.168 F 
ENDBRANCH   8  16
ENDBRANCH   1  11
BRANCH   3  20
ATOM     20  N   UNL     1       3.603  -0.894   0.165  0.00  0.00    -0.245 N 
ATOM     21  H   UNL     1       3.619  -1.862   0.232  0.00  0.00    +0.172 HD
BRANCH  20  22
ATOM     22  C   UNL     1       2.426  -0.244   0.078  0.00  0.00    +0.151 C 
ATOM     23  S   UNL     1       0.958  -1.125   0.088  0.00  0.00    -0.017 S 
BRANCH  22  24
ATOM     24  N   UNL     1       2.404   1.101  -0.015  0.00  0.00    -0.293 N 
ATOM     25  H   UNL     1       3.235   1.594  -0.101  0.00  0.00    +0.154 HD
BRANCH  24  26
ATOM     26  C   UNL     1       1.180   1.786   0.011  0.00  0.00    +0.075 A 
ATOM     27  C   UNL     1       0.208   1.436   0.936  0.00  0.00    +0.030 A 
ATOM     28  C   UNL     1      -1.000   2.107   0.958  0.00  0.00    +0.047 A 
ATOM     29  C   UNL     1      -1.239   3.139   0.062  0.00  0.00    +0.124 A 
ATOM     30  C   UNL     1      -0.270   3.492  -0.866  0.00  0.00    +0.093 A 
ATOM     31  C   UNL     1       0.939   2.818  -0.893  0.00  0.00    +0.145 A 
BRANCH  31  32
ATOM     32  O   UNL     1       1.891   3.163  -1.802  0.00  0.00    -0.493 OA
ATOM     33  C   UNL     1       1.575   4.231  -2.697  0.00  0.00    +0.277 C 
ENDBRANCH  31  32
BRANCH  29  34
ATOM     34  O   UNL     1      -2.426   3.801   0.089  0.00  0.00    -0.495 OA
ATOM     35  C   UNL     1      -3.379   3.385   1.070  0.00  0.00    +0.277 C 
ENDBRANCH  29  34
ENDBRANCH  24  26
ENDBRANCH  22  24
ENDBRANCH  20  22
ENDBRANCH   3  20
TORSDOF 8
