REMARK  Name = ZINC65987950
REMARK  11 active torsions:
REMARK  status: ('A' for Active; 'I' for Inactive)
REMARK    1  A    between atoms: C_1  and  C_2
REMARK    2  A    between atoms: C_2  and  C_3
REMARK    3  A    between atoms: C_3  and  C_4
REMARK    4  A    between atoms: C_3  and  N_5
REMARK    5  A    between atoms: C_6  and  C_8
REMARK    6  A    between atoms: C_8  and  C_9
REMARK    7  A    between atoms: C_8  and  N_10
REMARK    8  A    between atoms: N_13  and  C_14
REMARK    9  A    between atoms: C_14  and  C_15
REMARK   10  A    between atoms: C_20  and  C_21
REMARK   11  A    between atoms: C_21  and  N_22
REMARK                            x       y       z     vdW  Elec       q    Type
REMARK                         _______ _______ _______ _____ _____    ______ ____
ROOT
ATOM      1  N   UNL     1       4.871   0.514   3.584  0.00  0.00    -0.288 N 
ATOM      2  C   UNL     1       5.926   1.313   3.840  0.00  0.00    +0.300 C 
ATOM      3  O   UNL     1       6.416   1.977   2.947  0.00  0.00    -0.253 OA
ATOM      4  N   UNL     1       6.438   1.376   5.085  0.00  0.00    -0.295 N 
ATOM      5  H   UNL     1       4.480  -0.016   4.297  0.00  0.00    +0.151 HD
ATOM      6  H   UNL     1       6.047   0.846   5.797  0.00  0.00    +0.151 HD
ENDROOT
BRANCH   1   7
ATOM      7  C   UNL     1       4.314   0.445   2.231  0.00  0.00    +0.157 C 
ATOM      8  C   UNL     1       5.101  -0.576   1.407  0.00  0.00    +0.038 C 
BRANCH   7  10
ATOM      9  N   UNL     1       2.148  -0.104   1.172  0.00  0.00    -0.311 N 
ATOM     10  C   UNL     1       2.869   0.026   2.303  0.00  0.00    +0.233 C 
ATOM     11  O   UNL     1       2.354  -0.193   3.379  0.00  0.00    -0.274 OA
ATOM     12  H   UNL     1       2.559   0.072   0.311  0.00  0.00    +0.149 HD
BRANCH   9  13
ATOM     13  C   UNL     1       0.742  -0.511   1.242  0.00  0.00    +0.070 C 
ATOM     14  C   UNL     1       0.655  -2.037   1.299  0.00  0.00    +0.028 C 
BRANCH  13  16
ATOM     15  C   UNL     1      -0.019   1.526   0.010  0.00  0.00    +0.005 C 
ATOM     16  C   UNL     1       0.002  -0.004   0.002  0.00  0.00    +0.018 C 
ENDBRANCH  13  16
ENDBRANCH   9  13
ENDBRANCH   7  10
ENDBRANCH   1   7
BRANCH   4  17
ATOM     17  C   UNL     1       7.585   2.244   5.362  0.00  0.00    +0.141 C 
BRANCH  17  18
ATOM     18  C   UNL     1       7.959   2.132   6.818  0.00  0.00    -0.029 A 
ATOM     19  C   UNL     1       7.546   3.101   7.714  0.00  0.00    +0.005 A 
ATOM     20  C   UNL     1       7.890   2.998   9.049  0.00  0.00    +0.000 A 
ATOM     21  C   UNL     1       8.645   1.927   9.488  0.00  0.00    +0.000 A 
ATOM     22  C   UNL     1       9.057   0.958   8.592  0.00  0.00    +0.002 A 
ATOM     23  C   UNL     1       8.710   1.058   7.258  0.00  0.00    -0.059 A 
BRANCH  23  24
ATOM     24  C   UNL     1       9.154  -0.001   6.282  0.00  0.00    -0.043 C 
BRANCH  24  25
ATOM     25  N   UNL     1      10.333   0.475   5.546  0.00  0.00    +0.382 N 
ATOM     26  C   UNL     1      11.453   0.650   6.479  0.00  0.00    -0.078 C 
ATOM     27  C   UNL     1      12.659   1.222   5.732  0.00  0.00    -0.019 C 
ATOM     28  C   UNL     1      13.068   0.256   4.617  0.00  0.00    -0.004 C 
ATOM     29  C   UNL     1      11.870   0.023   3.692  0.00  0.00    -0.019 C 
ATOM     30  C   UNL     1      10.692  -0.505   4.514  0.00  0.00    -0.078 C 
ATOM     31  H   UNL     1      10.121   1.360   5.109  0.00  0.00    -0.081 HD
ENDBRANCH  24  25
ENDBRANCH  23  24
ENDBRANCH  17  18
ENDBRANCH   4  17
TORSDOF 8
