REMARK  Name = ZINC13546967
REMARK  7 active torsions:
REMARK  status: ('A' for Active; 'I' for Inactive)
REMARK    1  A    between atoms: C_1  and  O_2
REMARK    2  A    between atoms: O_2  and  C_3
REMARK    3  A    between atoms: C_6  and  N_7
REMARK    4  A    between atoms: N_7  and  N_8
REMARK    5  A    between atoms: C_9  and  C_11
REMARK    6  A    between atoms: N_13  and  C_14
REMARK    7  A    between atoms: C_14  and  C_15
REMARK                            x       y       z     vdW  Elec       q    Type
REMARK                         _______ _______ _______ _____ _____    ______ ____
ROOT
ATOM      1  N   UNL     1       2.891   2.401  -5.107  0.00  0.00    -0.229 N 
ATOM      2  C   UNL     1       2.845   3.746  -5.039  0.00  0.00    +0.315 C 
ATOM      3  O   UNL     1       2.306   4.287  -4.096  0.00  0.00    -0.264 OA
ATOM      4  H   UNL     1       3.321   1.968  -5.861  0.00  0.00    +0.173 HD
ENDROOT
BRANCH   2   5
ATOM      5  C   UNL     1       3.457   4.571  -6.124  0.00  0.00    +0.301 C 
ATOM      6  O   UNL     1       3.995   4.030  -7.067  0.00  0.00    -0.265 OA
ATOM      7  N   UNL     1       3.410   5.916  -6.056  0.00  0.00    -0.305 N 
ATOM      8  H   UNL     1       2.980   6.349  -5.302  0.00  0.00    +0.149 HD
BRANCH   7   9
ATOM      9  C   UNL     1       4.011   6.725  -7.120  0.00  0.00    +0.136 C 
BRANCH   9  10
ATOM     10  C   UNL     1       3.821   8.209  -6.801  0.00  0.00    +0.135 C 
ATOM     11  C   UNL     1       4.418   9.083  -7.932  0.00  0.00    +0.035 C 
ATOM     12  C   UNL     1       3.591  10.387  -7.766  0.00  0.00    +0.031 C 
ATOM     13  C   UNL     1       2.217   9.848  -7.314  0.00  0.00    +0.160 C 
ATOM     14  O   UNL     1       2.423   8.538  -6.769  0.00  0.00    -0.375 OA
ENDBRANCH   9  10
ENDBRANCH   7   9
ENDBRANCH   2   5
BRANCH   1  15
ATOM     15  N   UNL     1       2.317   1.628  -4.090  0.00  0.00    -0.271 N 
ATOM     16  H   UNL     1       1.886   2.060  -3.336  0.00  0.00    +0.169 HD
BRANCH  15  20
ATOM     17  C   UNL     1       0.606  -0.608  -1.057  0.00  0.00    +0.168 C 
ATOM     18  C   UNL     1       1.162   0.146  -2.043  0.00  0.00    +0.058 C 
ATOM     19  C   UNL     1       1.790  -0.484  -3.142  0.00  0.00    -0.005 C 
ATOM     20  C   UNL     1       2.363   0.288  -4.158  0.00  0.00    +0.095 C 
ATOM     21  C   UNL     1       1.838  -1.893  -3.213  0.00  0.00    +0.027 C 
ATOM     22  C   UNL     1       1.282  -2.643  -2.226  0.00  0.00    +0.064 C 
ATOM     23  C   UNL     1       0.662  -2.017  -1.129  0.00  0.00    +0.233 C 
ATOM     24  O   UNL     1       0.166  -2.695  -0.238  0.00  0.00    -0.283 OA
ATOM     25  I   UNL     1       1.353  -4.734  -2.333  0.00  0.00    -0.040 I 
BRANCH  17  27
ATOM     26  C   UNL     1      -0.017   1.425   0.010  0.00  0.00    +0.277 C 
ATOM     27  O   UNL     1       0.002  -0.004   0.002  0.00  0.00    -0.491 OA
ENDBRANCH  17  27
ENDBRANCH  15  20
ENDBRANCH   1  15
TORSDOF 6
