REMARK  Name = ZINC01242950
REMARK  7 active torsions:
REMARK  status: ('A' for Active; 'I' for Inactive)
REMARK    1  A    between atoms: C_1  and  C_2
REMARK    2  A    between atoms: C_2  and  O_3
REMARK    3  A    between atoms: O_3  and  C_4
REMARK    4  A    between atoms: C_4  and  C_6
REMARK    5  A    between atoms: C_7  and  C_25
REMARK    6  A    between atoms: C_12  and  C_14
REMARK    7  A    between atoms: C_19  and  C_23
REMARK                            x       y       z     vdW  Elec       q    Type
REMARK                         _______ _______ _______ _____ _____    ______ ____
ROOT
ATOM      1  C   UNL     1       1.447  -2.343  -2.514  0.00  0.00    +0.120 A 
ATOM      2  C   UNL     1       1.663  -3.665  -2.882  0.00  0.00    +0.062 A 
ATOM      3  N   UNL     1       2.302  -3.858  -4.008  0.00  0.00    -0.229 NA
ATOM      4  C   UNL     1       2.716  -2.845  -4.748  0.00  0.00    +0.166 A 
ATOM      5  S   UNL     1       2.212  -1.492  -3.885  0.00  0.00    -0.045 S 
ATOM      6  N   UNL     1       3.397  -2.888  -5.950  0.00  0.00    -0.260 N 
ATOM      7  C   UNL     1       3.743  -1.742  -6.570  0.00  0.00    +0.258 C 
ATOM      8  O   UNL     1       3.455  -0.670  -6.071  0.00  0.00    -0.269 OA
ATOM      9  C   UNL     1       1.187  -4.815  -2.032  0.00  0.00    +0.067 C 
ATOM     10  H   UNL     1       3.627  -3.742  -6.348  0.00  0.00    +0.157 HD
ENDROOT
BRANCH   7  11
ATOM     11  C   UNL     1       4.466  -1.787  -7.846  0.00  0.00    +0.094 A 
ATOM     12  C   UNL     1       4.901  -0.749  -8.611  0.00  0.00    +0.068 A 
ATOM     13  C   UNL     1       5.583  -1.004  -9.816  0.00  0.00    +0.008 A 
ATOM     14  C   UNL     1       6.109  -0.067 -10.743  0.00  0.00    +0.011 A 
ATOM     15  C   UNL     1       6.746  -0.484 -11.867  0.00  0.00    +0.004 A 
ATOM     16  C   UNL     1       6.907  -1.835 -12.154  0.00  0.00    -0.049 A 
ATOM     17  C   UNL     1       6.411  -2.780 -11.280  0.00  0.00    +0.019 A 
ATOM     18  C   UNL     1       5.762  -2.371 -10.134  0.00  0.00    +0.022 A 
ATOM     19  S   UNL     1       4.999  -3.216  -8.772  0.00  0.00    -0.082 S 
ATOM     20  C   UNL     1       7.618  -2.263 -13.412  0.00  0.00    +0.044 C 
ATOM     21 CL   UNL     1       4.614   0.886  -8.104  0.00  0.00    -0.082 Cl
ENDBRANCH   7  11
BRANCH   1  22
ATOM     22  C   UNL     1       0.776  -1.800  -1.335  0.00  0.00    +0.348 C 
ATOM     23  O   UNL     1       0.312  -2.553  -0.499  0.00  0.00    -0.244 OA
BRANCH  22  24
ATOM     24  O   UNL     1       0.671  -0.465  -1.174  0.00  0.00    -0.461 OA
BRANCH  24  26
ATOM     25  C   UNL     1      -0.019   1.526   0.010  0.00  0.00    +0.048 C 
ATOM     26  C   UNL     1       0.002  -0.004   0.002  0.00  0.00    +0.229 C 
ENDBRANCH  24  26
ENDBRANCH  22  24
ENDBRANCH   1  22
TORSDOF 4
