REMARK  Name = ZINC40097217
REMARK  8 active torsions:
REMARK  status: ('A' for Active; 'I' for Inactive)
REMARK    1  A    between atoms: C_4  and  O_7
REMARK    2  A    between atoms: O_7  and  C_8
REMARK    3  A    between atoms: C_12  and  C_14
REMARK    4  A    between atoms: C_16  and  C_25
REMARK    5  A    between atoms: N_20  and  C_21
REMARK    6  A    between atoms: C_21  and  C_22
REMARK    7  A    between atoms: C_22  and  O_23
REMARK    8  A    between atoms: C_25  and  C_27
REMARK                            x       y       z     vdW  Elec       q    Type
REMARK                         _______ _______ _______ _____ _____    ______ ____
ROOT
ATOM      1  C   UNL     1       6.003  -4.845   0.368  0.00  0.00    +0.145 C 
ATOM      2  C   UNL     1       6.181  -5.376   1.771  0.00  0.00    +0.079 C 
ATOM      3  C   UNL     1       6.234  -6.725   1.674  0.00  0.00    +0.249 C 
ATOM      4  C   UNL     1       6.098  -7.116   0.257  0.00  0.00    +0.288 C 
ATOM      5  O   UNL     1       6.107  -8.259  -0.155  0.00  0.00    -0.266 OA
ATOM      6  N   UNL     1       5.963  -6.019  -0.513  0.00  0.00    -0.281 N 
ATOM      7  O   UNL     1       6.388  -7.580   2.712  0.00  0.00    -0.282 OA
ENDROOT
BRANCH   1  12
ATOM      8  C   UNL     1       3.545  -1.991   0.069  0.00  0.00    +0.129 A 
ATOM      9  C   UNL     1       2.334  -2.669   0.077  0.00  0.00    +0.046 A 
ATOM     10  C   UNL     1       2.317  -4.046   0.177  0.00  0.00    +0.004 A 
ATOM     11  C   UNL     1       3.504  -4.749   0.271  0.00  0.00    +0.006 A 
ATOM     12  C   UNL     1       4.711  -4.076   0.265  0.00  0.00    -0.019 A 
ATOM     13  C   UNL     1       4.735  -2.699   0.158  0.00  0.00    +0.052 A 
BRANCH   8  14
ATOM     14  O   UNL     1       3.565  -0.636  -0.030  0.00  0.00    -0.456 OA
BRANCH  14  18
ATOM     15  C   UNL     1      -0.037   1.370   0.102  0.00  0.00    +0.000 A 
ATOM     16  C   UNL     1       0.428   0.713   1.226  0.00  0.00    +0.004 A 
ATOM     17  C   UNL     1       1.634   0.041   1.184  0.00  0.00    +0.046 A 
ATOM     18  C   UNL     1       2.378   0.025   0.013  0.00  0.00    +0.128 A 
ATOM     19  C   UNL     1       1.909   0.685  -1.113  0.00  0.00    +0.046 A 
ATOM     20  C   UNL     1       0.703   1.356  -1.067  0.00  0.00    +0.004 A 
ENDBRANCH  14  18
ENDBRANCH   8  14
ENDBRANCH   1  12
BRANCH   2  21
ATOM     21  C   UNL     1       6.278  -4.583   3.001  0.00  0.00    +0.230 C 
ATOM     22  O   UNL     1       5.411  -4.670   3.852  0.00  0.00    -0.283 OA
BRANCH  21  23
ATOM     23  C   UNL     1       7.421  -3.683   3.206  0.00  0.00    +0.176 A 
ATOM     24  C   UNL     1       7.668  -2.977   4.344  0.00  0.00    +0.061 A 
ATOM     25  C   UNL     1       8.899  -2.228   4.095  0.00  0.00    +0.021 A 
ATOM     26  C   UNL     1       9.665  -1.336   4.850  0.00  0.00    +0.011 A 
ATOM     27  C   UNL     1      10.796  -0.792   4.312  0.00  0.00    +0.001 A 
ATOM     28  C   UNL     1      11.189  -1.119   3.021  0.00  0.00    +0.004 A 
ATOM     29  C   UNL     1      10.447  -1.997   2.260  0.00  0.00    +0.047 A 
ATOM     30  C   UNL     1       9.292  -2.564   2.786  0.00  0.00    +0.136 A 
ATOM     31  O   UNL     1       8.388  -3.435   2.298  0.00  0.00    -0.452 OA
ENDBRANCH  21  23
ENDBRANCH   2  21
BRANCH   6  32
ATOM     32  C   UNL     1       5.804  -5.999  -1.969  0.00  0.00    +0.137 C 
BRANCH  32  33
ATOM     33  C   UNL     1       7.181  -5.924  -2.632  0.00  0.00    +0.175 C 
BRANCH  33  34
ATOM     34  O   UNL     1       7.912  -7.118  -2.348  0.00  0.00    -0.393 OA
ATOM     35  H   UNL     1       8.797  -7.140  -2.738  0.00  0.00    +0.209 HD
ENDBRANCH  33  34
ENDBRANCH  32  33
ENDBRANCH   6  32
TORSDOF 8
