REMARK  Name = ZINC67307541
REMARK  9 active torsions:
REMARK  status: ('A' for Active; 'I' for Inactive)
REMARK    1  A    between atoms: C_1  and  C_2
REMARK    2  A    between atoms: C_2  and  C_3
REMARK    3  A    between atoms: C_2  and  O_4
REMARK    4  A    between atoms: O_4  and  C_5
REMARK    5  A    between atoms: C_10  and  N_11
REMARK    6  A    between atoms: N_14  and  C_15
REMARK    7  A    between atoms: C_15  and  C_16
REMARK    8  A    between atoms: C_16  and  C_17
REMARK    9  A    between atoms: C_21  and  C_23
REMARK                            x       y       z     vdW  Elec       q    Type
REMARK                         _______ _______ _______ _____ _____    ______ ____
ROOT
ATOM      1  N   UNL     1      -3.871  -1.370  -0.148  0.00  0.00    -0.266 N 
ATOM      2  C   UNL     1      -5.114  -1.889  -0.177  0.00  0.00    +0.304 C 
ATOM      3  O   UNL     1      -5.333  -2.909  -0.803  0.00  0.00    -0.253 OA
ATOM      4  N   UNL     1      -6.115  -1.278   0.486  0.00  0.00    -0.299 N 
ATOM      5  H   UNL     1      -3.709  -0.523   0.296  0.00  0.00    +0.156 HD
ATOM      6  H   UNL     1      -5.941  -0.465   0.985  0.00  0.00    +0.150 HD
ENDROOT
BRANCH   1  12
ATOM      7  C   UNL     1      -1.518  -1.927  -0.261  0.00  0.00    +0.142 A 
ATOM      8  C   UNL     1      -0.474  -2.609  -0.865  0.00  0.00    +0.050 A 
ATOM      9  C   UNL     1      -0.717  -3.410  -1.965  0.00  0.00    +0.042 A 
ATOM     10  C   UNL     1      -2.002  -3.534  -2.466  0.00  0.00    +0.125 A 
ATOM     11  C   UNL     1      -3.048  -2.854  -1.868  0.00  0.00    +0.065 A 
ATOM     12  C   UNL     1      -2.811  -2.054  -0.760  0.00  0.00    +0.080 A 
ATOM     13  F   UNL     1      -2.234  -4.318  -3.542  0.00  0.00    -0.205 F 
BRANCH   7  14
ATOM     14  O   UNL     1      -1.280  -1.139   0.822  0.00  0.00    -0.488 OA
BRANCH  14  16
ATOM     15  C   UNL     1       0.233   0.342   1.989  0.00  0.00    +0.051 C 
ATOM     16  C   UNL     1       0.084  -0.969   1.213  0.00  0.00    +0.167 C 
ATOM     17  C   UNL     1       0.509  -2.139   2.102  0.00  0.00    +0.051 C 
ENDBRANCH  14  16
ENDBRANCH   7  14
ENDBRANCH   1  12
BRANCH   4  18
ATOM     18  C   UNL     1      -7.467  -1.842   0.455  0.00  0.00    +0.110 C 
BRANCH  18  19
ATOM     19  C   UNL     1      -8.406  -0.962   1.282  0.00  0.00    +0.054 C 
BRANCH  19  20
ATOM     20  C   UNL     1      -9.797  -1.542   1.249  0.00  0.00    -0.045 A 
ATOM     21  C   UNL     1     -10.681  -1.161   0.255  0.00  0.00    +0.004 A 
ATOM     22  C   UNL     1     -11.959  -1.689   0.218  0.00  0.00    +0.001 A 
ATOM     23  C   UNL     1     -12.360  -2.600   1.173  0.00  0.00    +0.013 A 
ATOM     24  C   UNL     1     -11.474  -2.989   2.178  0.00  0.00    +0.037 A 
ATOM     25  C   UNL     1     -10.184  -2.457   2.207  0.00  0.00    +0.016 A 
BRANCH  24  26
ATOM     26  C   UNL     1     -11.897  -3.965   3.205  0.00  0.00    +0.242 C 
ATOM     27  O   UNL     1     -11.123  -4.302   4.079  0.00  0.00    -0.270 OA
ATOM     28  N   UNL     1     -13.142  -4.481   3.172  0.00  0.00    -0.325 N 
ATOM     29  H   UNL     1     -13.760  -4.212   2.474  0.00  0.00    +0.145 HD
ATOM     30  H   UNL     1     -13.420  -5.121   3.845  0.00  0.00    +0.145 HD
ENDBRANCH  24  26
ENDBRANCH  19  20
ENDBRANCH  18  19
ENDBRANCH   4  18
TORSDOF 7
