REMARK  Name = ZINC35004660
REMARK  12 active torsions:
REMARK  status: ('A' for Active; 'I' for Inactive)
REMARK    1  A    between atoms: C_1  and  C_2
REMARK    2  A    between atoms: C_2  and  C_3
REMARK    3  A    between atoms: C_3  and  C_5
REMARK    4  A    between atoms: C_3  and  C_6
REMARK    5  A    between atoms: C_6  and  C_8
REMARK    6  A    between atoms: C_6  and  N_28
REMARK    7  A    between atoms: C_14  and  C_17
REMARK    8  A    between atoms: N_20  and  C_21
REMARK    9  A    between atoms: N_31  and  C_32
REMARK   10  A    between atoms: C_32  and  C_33
REMARK   11  A    between atoms: C_32  and  C_34
REMARK   12  A    between atoms: C_32  and  C_35
REMARK                            x       y       z     vdW  Elec       q    Type
REMARK                         _______ _______ _______ _____ _____    ______ ____
ROOT
ATOM      1  C   UNL     1      -2.087   0.965   1.228  0.00  0.00    +0.236 C 
ATOM      2  O   UNL     1      -3.135   1.414   0.815  0.00  0.00    -0.274 OA
ATOM      3  N   UNL     1      -0.992   1.748   1.279  0.00  0.00    -0.297 N 
ATOM      4  C   UNL     1       0.312   1.188   1.662  0.00  0.00    +0.127 C 
ATOM      5  C   UNL     1       0.865   1.996   2.843  0.00  0.00    +0.128 C 
ATOM      6  N   UNL     1       0.777   3.426   2.516  0.00  0.00    -0.280 N 
ATOM      7  C   UNL     1      -0.526   3.986   2.133  0.00  0.00    +0.092 C 
ATOM      8  C   UNL     1      -1.078   3.178   0.946  0.00  0.00    +0.130 C 
ATOM      9  C   UNL     1      -1.492   3.897   3.317  0.00  0.00    +0.030 C 
ATOM     10  C   UNL     1       1.872   4.209   2.567  0.00  0.00    +0.307 C 
ATOM     11  O   UNL     1       1.771   5.408   2.389  0.00  0.00    -0.252 OA
ATOM     12  N   UNL     1       3.080   3.665   2.816  0.00  0.00    -0.269 N 
ATOM     13  H   UNL     1       3.175   2.701   2.870  0.00  0.00    +0.156 HD
ENDROOT
BRANCH  12  14
ATOM     14  C   UNL     1       4.196   4.490   2.995  0.00  0.00    +0.035 A 
ATOM     15  C   UNL     1       4.056   5.726   3.610  0.00  0.00    +0.025 A 
ATOM     16  C   UNL     1       5.159   6.538   3.786  0.00  0.00    +0.022 A 
ATOM     17  C   UNL     1       6.404   6.121   3.349  0.00  0.00    +0.041 A 
ATOM     18  C   UNL     1       6.547   4.889   2.736  0.00  0.00    +0.022 A 
ATOM     19  C   UNL     1       5.448   4.070   2.563  0.00  0.00    +0.025 A 
ATOM     20 CL   UNL     1       7.788   7.144   3.572  0.00  0.00    -0.084 Cl
ENDBRANCH  12  14
BRANCH   1  21
ATOM     21  C   UNL     1      -2.009  -0.469   1.683  0.00  0.00    +0.163 C 
BRANCH  21  22
ATOM     22  N   UNL     1      -3.343  -0.930   2.076  0.00  0.00    -0.288 N 
ATOM     23  C   UNL     1      -3.474  -1.941   2.958  0.00  0.00    +0.301 C 
ATOM     24  O   UNL     1      -2.486  -2.470   3.428  0.00  0.00    -0.253 OA
ATOM     25  N   UNL     1      -4.702  -2.365   3.320  0.00  0.00    -0.295 N 
ATOM     26  H   UNL     1      -4.132  -0.507   1.702  0.00  0.00    +0.151 HD
ATOM     27  H   UNL     1      -5.490  -1.942   2.945  0.00  0.00    +0.151 HD
BRANCH  25  28
ATOM     28  C   UNL     1      -4.844  -3.463   4.278  0.00  0.00    +0.028 C 
ATOM     29  C   UNL     1      -4.183  -3.075   5.602  0.00  0.00    +0.031 C 
ATOM     30  C   UNL     1      -6.330  -3.745   4.514  0.00  0.00    +0.031 C 
ATOM     31  C   UNL     1      -4.170  -4.718   3.720  0.00  0.00    +0.031 C 
ENDBRANCH  25  28
ENDBRANCH  21  22
BRANCH  21  32
ATOM     32  C   UNL     1      -1.485  -1.340   0.540  0.00  0.00    +0.015 C 
ATOM     33  C   UNL     1      -2.509  -1.359  -0.597  0.00  0.00    +0.010 C 
BRANCH  32  35
ATOM     34  C   UNL     1      -0.139  -2.767   2.088  0.00  0.00    +0.004 C 
ATOM     35  C   UNL     1      -1.260  -2.766   1.047  0.00  0.00    +0.002 C 
ENDBRANCH  32  35
ENDBRANCH  21  32
ENDBRANCH   1  21
TORSDOF 6
