REMARK  Name = ZINC08079882
REMARK  4 active torsions:
REMARK  status: ('A' for Active; 'I' for Inactive)
REMARK    1  A    between atoms: C_10  and  C_13
REMARK    2  A    between atoms: C_13  and  C_14
REMARK    3  A    between atoms: N_16  and  C_17
REMARK    4  A    between atoms: C_21  and  N_23
REMARK                            x       y       z     vdW  Elec       q    Type
REMARK                         _______ _______ _______ _____ _____    ______ ____
ROOT
ATOM      1  C   UNL     1       3.856   4.344   2.869  0.00  0.00    +0.219 C 
ATOM      2  O   UNL     1       4.261   5.217   2.130  0.00  0.00    -0.275 OA
ATOM      3  N   UNL     1       3.693   4.595   4.183  0.00  0.00    -0.285 N 
ATOM      4  H   UNL     1       3.307   3.919   4.761  0.00  0.00    +0.155 HD
ENDROOT
BRANCH   3   5
ATOM      5  C   UNL     1       4.082   5.832   4.713  0.00  0.00    +0.036 A 
ATOM      6  C   UNL     1       3.939   6.988   3.957  0.00  0.00    +0.026 A 
ATOM      7  C   UNL     1       4.323   8.206   4.482  0.00  0.00    +0.042 A 
ATOM      8  C   UNL     1       4.849   8.275   5.761  0.00  0.00    +0.154 A 
ATOM      9  C   UNL     1       4.992   7.124   6.516  0.00  0.00    +0.163 A 
ATOM     10  C   UNL     1       4.604   5.904   5.997  0.00  0.00    +0.059 A 
ATOM     11  F   UNL     1       5.224   9.468   6.273  0.00  0.00    -0.203 F 
BRANCH   9  12
ATOM     12  N   UNL     1       5.555   7.201   7.883  0.00  0.00    +0.059 N 
ATOM     13  O   UNL     1       5.682   6.188   8.547  0.00  0.00    -0.126 OA
ATOM     14  O   UNL     1       5.892   8.277   8.343  0.00  0.00    -0.126 OA
ENDBRANCH   9  12
ENDBRANCH   3   5
BRANCH   1  15
ATOM     15  C   UNL     1       3.536   2.979   2.317  0.00  0.00    +0.120 C 
BRANCH  15  25
ATOM     16  C   UNL     1      -1.229   1.782   0.004  0.00  0.00    +0.002 A 
ATOM     17  C   UNL     1      -1.253   3.165   0.017  0.00  0.00    +0.001 A 
ATOM     18  C   UNL     1      -0.066   3.874   0.009  0.00  0.00    +0.016 A 
ATOM     19  C   UNL     1       1.143   3.198  -0.006  0.00  0.00    +0.030 A 
ATOM     20  C   UNL     1       1.175   1.803  -0.007  0.00  0.00    +0.047 A 
ATOM     21  C   UNL     1      -0.026   1.103  -0.003  0.00  0.00    +0.024 A 
ATOM     22  N   UNL     1       2.375   1.098  -0.029  0.00  0.00    -0.284 N 
ATOM     23  C   UNL     1       3.580   1.573   0.271  0.00  0.00    +0.231 C 
ATOM     24  O   UNL     1       4.543   0.854   0.103  0.00  0.00    -0.274 OA
ATOM     25  C   UNL     1       3.806   2.961   0.811  0.00  0.00    +0.146 C 
ATOM     26  S   UNL     1       2.662   4.098  -0.030  0.00  0.00    -0.110 S 
ATOM     27  H   UNL     1       2.328   0.165  -0.290  0.00  0.00    +0.155 HD
ENDBRANCH  15  25
ENDBRANCH   1  15
TORSDOF 4
