REMARK  Name = ZINC36491857
REMARK  12 active torsions:
REMARK  status: ('A' for Active; 'I' for Inactive)
REMARK    1  A    between atoms: C_1  and  C_2
REMARK    2  A    between atoms: C_2  and  C_3
REMARK    3  A    between atoms: C_2  and  C_4
REMARK    4  A    between atoms: C_2  and  N_5
REMARK    5  A    between atoms: C_6  and  C_8
REMARK    6  A    between atoms: C_8  and  C_10
REMARK    7  A    between atoms: C_8  and  N_19
REMARK    8  A    between atoms: C_11  and  O_18
REMARK    9  A    between atoms: C_13  and  O_17
REMARK   10  A    between atoms: C_15  and  O_16
REMARK   11  A    between atoms: N_19  and  C_20
REMARK   12  A    between atoms: C_26  and  C_28
REMARK                            x       y       z     vdW  Elec       q    Type
REMARK                         _______ _______ _______ _____ _____    ______ ____
ROOT
ATOM      1  C   UNL     1       2.638  -1.472  -3.085  0.00  0.00    +0.200 C 
ENDROOT
BRANCH   1   2
ATOM      2  C   UNL     1       2.756  -2.966  -3.239  0.00  0.00    +0.065 A 
ATOM      3  C   UNL     1       2.042  -3.808  -2.400  0.00  0.00    +0.129 A 
ATOM      4  C   UNL     1       2.151  -5.183  -2.542  0.00  0.00    +0.091 A 
ATOM      5  C   UNL     1       2.974  -5.716  -3.524  0.00  0.00    +0.124 A 
ATOM      6  C   UNL     1       3.687  -4.874  -4.363  0.00  0.00    +0.091 A 
ATOM      7  C   UNL     1       3.575  -3.499  -4.224  0.00  0.00    +0.129 A 
BRANCH   7   8
ATOM      8  O   UNL     1       4.270  -2.673  -5.050  0.00  0.00    -0.506 OA
ATOM      9  H   UNL     1       5.149  -2.439  -4.722  0.00  0.00    +0.292 HD
ENDBRANCH   7   8
BRANCH   5  10
ATOM     10  O   UNL     1       3.081  -7.064  -3.662  0.00  0.00    -0.507 OA
ATOM     11  H   UNL     1       2.436  -7.449  -4.271  0.00  0.00    +0.292 HD
ENDBRANCH   5  10
BRANCH   3  12
ATOM     12  O   UNL     1       1.236  -3.286  -1.439  0.00  0.00    -0.506 OA
ATOM     13  H   UNL     1       0.350  -3.057  -1.750  0.00  0.00    +0.292 HD
ENDBRANCH   3  12
ENDBRANCH   1   2
BRANCH   1  15
ATOM     14  N   UNL     1       0.385  -1.420  -2.067  0.00  0.00    -0.309 N 
ATOM     15  C   UNL     1       1.701  -1.157  -1.948  0.00  0.00    +0.239 C 
ATOM     16  O   UNL     1       2.131  -0.666  -0.925  0.00  0.00    -0.273 OA
ATOM     17  H   UNL     1       0.050  -1.873  -2.857  0.00  0.00    +0.149 HD
BRANCH  14  19
ATOM     18  C   UNL     1      -0.483   0.494  -0.816  0.00  0.00    +0.031 C 
ATOM     19  C   UNL     1      -0.541  -1.023  -1.002  0.00  0.00    +0.026 C 
ATOM     20  C   UNL     1      -0.142  -1.713   0.304  0.00  0.00    +0.031 C 
ATOM     21  C   UNL     1      -1.964  -1.437  -1.384  0.00  0.00    +0.031 C 
ENDBRANCH  14  19
ENDBRANCH   1  15
BRANCH   1  22
ATOM     22  N   UNL     1       3.958  -0.904  -2.801  0.00  0.00    -0.279 N 
ATOM     23  C   UNL     1       4.479   0.033  -3.618  0.00  0.00    +0.249 C 
ATOM     24  O   UNL     1       3.775   0.576  -4.447  0.00  0.00    -0.270 OA
BRANCH  22  25
ATOM     25  C   UNL     1       4.713  -1.355  -1.629  0.00  0.00    +0.077 C 
ATOM     26  C   UNL     1       4.173  -2.709  -1.165  0.00  0.00    +0.022 C 
ATOM     27  C   UNL     1       4.961  -3.180   0.059  0.00  0.00    +0.002 C 
ATOM     28  C   UNL     1       4.811  -2.157   1.187  0.00  0.00    +0.000 C 
ATOM     29  C   UNL     1       5.350  -0.803   0.723  0.00  0.00    +0.002 C 
ATOM     30  C   UNL     1       4.562  -0.332  -0.501  0.00  0.00    +0.022 C 
ENDBRANCH  22  25
BRANCH  23  31
ATOM     31  C   UNL     1       5.907   0.401  -3.506  0.00  0.00    +0.055 A 
ATOM     32  C   UNL     1       6.616   0.850  -4.627  0.00  0.00    +0.016 A 
ATOM     33  C   UNL     1       7.950   1.182  -4.469  0.00  0.00    +0.020 A 
ATOM     34  C   UNL     1       8.535   1.060  -3.221  0.00  0.00    +0.111 A 
ATOM     35  N   UNL     1       7.841   0.634  -2.182  0.00  0.00    -0.263 NA
ATOM     36  C   UNL     1       6.568   0.311  -2.281  0.00  0.00    +0.123 A 
ENDBRANCH  23  31
ENDBRANCH   1  22
TORSDOF 9
