REMARK  Name = ZINC60061654
REMARK  9 active torsions:
REMARK  status: ('A' for Active; 'I' for Inactive)
REMARK    1  A    between atoms: C_1  and  C_2
REMARK    2  A    between atoms: N_5  and  C_11
REMARK    3  A    between atoms: C_7  and  C_10
REMARK    4  A    between atoms: C_11  and  C_12
REMARK    5  A    between atoms: N_17  and  C_18
REMARK    6  A    between atoms: C_18  and  C_19
REMARK    7  A    between atoms: N_21  and  C_22
REMARK    8  A    between atoms: C_22  and  C_23
REMARK    9  A    between atoms: C_23  and  N_29
REMARK                            x       y       z     vdW  Elec       q    Type
REMARK                         _______ _______ _______ _____ _____    ______ ____
ROOT
ATOM      1  C   UNL     1       5.883   1.257   0.502  0.00  0.00    +0.197 C 
ATOM      2  O   UNL     1       6.021   0.077   0.747  0.00  0.00    -0.278 OA
ATOM      3  N   UNL     1       6.374   2.183   1.348  0.00  0.00    -0.315 N 
ATOM      4  H   UNL     1       6.263   3.127   1.152  0.00  0.00    +0.149 HD
ENDROOT
BRANCH   1   5
ATOM      5  C   UNL     1       5.162   1.687  -0.750  0.00  0.00    +0.019 C 
BRANCH   5  10
ATOM      6  C   UNL     1       3.919   0.912  -2.659  0.00  0.00    -0.054 C 
ATOM      7  C   UNL     1       4.651   0.425  -3.927  0.00  0.00    -0.016 C 
ATOM      8  C   UNL     1       6.116   0.260  -3.442  0.00  0.00    -0.020 C 
ATOM      9  C   UNL     1       5.911  -0.243  -1.992  0.00  0.00    -0.078 C 
ATOM     10  N   UNL     1       4.727   0.499  -1.497  0.00  0.00    +0.388 N 
ATOM     11  H   UNL     1       4.178  -0.097  -0.896  0.00  0.00    -0.081 HD
BRANCH   6  12
ATOM     12  C   UNL     1       2.531   0.272  -2.581  0.00  0.00    +0.069 C 
BRANCH  12  16
ATOM     13  C   UNL     1       1.921   2.262   1.125  0.00  0.00    +0.039 C 
ATOM     14  C   UNL     1       0.825   2.345   0.060  0.00  0.00    +0.130 C 
ATOM     15  C   UNL     1       1.417   2.007  -1.310  0.00  0.00    +0.115 C 
ATOM     16  N   UNL     1       1.903   0.619  -1.300  0.00  0.00    -0.299 NA
ATOM     17  C   UNL     1       0.811  -0.312  -0.979  0.00  0.00    +0.115 C 
ATOM     18  C   UNL     1       0.225   0.049   0.389  0.00  0.00    +0.130 C 
ATOM     19  O   UNL     1      -0.213   1.411   0.370  0.00  0.00    -0.371 OA
ATOM     20  C   UNL     1      -0.962  -0.866   0.693  0.00  0.00    +0.039 C 
ENDBRANCH  12  16
ENDBRANCH   6  12
ENDBRANCH   5  10
ENDBRANCH   1   5
BRANCH   3  21
ATOM     21  C   UNL     1       7.075   1.766   2.565  0.00  0.00    +0.126 C 
BRANCH  21  22
ATOM     22  C   UNL     1       7.413   2.997   3.407  0.00  0.00    +0.038 C 
ATOM     23  C   UNL     1       8.256   2.575   4.613  0.00  0.00    +0.024 C 
ATOM     24  C   UNL     1       7.466   1.578   5.463  0.00  0.00    +0.002 C 
ATOM     25  C   UNL     1       6.172   2.234   5.949  0.00  0.00    +0.000 C 
ATOM     26  C   UNL     1       5.330   2.657   4.743  0.00  0.00    +0.002 C 
ATOM     27  C   UNL     1       6.120   3.654   3.893  0.00  0.00    +0.024 C 
BRANCH  22  28
ATOM     28  N   UNL     1       8.172   3.955   2.591  0.00  0.00    -0.291 NA
ATOM     29  C   UNL     1       9.393   3.337   2.053  0.00  0.00    +0.113 C 
ATOM     30  C   UNL     1      10.120   4.349   1.163  0.00  0.00    +0.175 C 
ATOM     31  O   UNL     1      10.399   5.529   1.921  0.00  0.00    -0.377 OA
ATOM     32  C   UNL     1       9.232   6.157   2.459  0.00  0.00    +0.175 C 
ATOM     33  C   UNL     1       8.496   5.164   3.362  0.00  0.00    +0.113 C 
ENDBRANCH  22  28
ENDBRANCH  21  22
ENDBRANCH   3  21
TORSDOF 7
