REMARK  Name = ZINC40049537
REMARK  6 active torsions:
REMARK  status: ('A' for Active; 'I' for Inactive)
REMARK    1  A    between atoms: C_10  and  C_12
REMARK    2  A    between atoms: C_12  and  O_13
REMARK    3  A    between atoms: O_13  and  C_14
REMARK    4  A    between atoms: C_14  and  C_16
REMARK    5  A    between atoms: C_16  and  C_17
REMARK    6  A    between atoms: C_17  and  C_18
REMARK                            x       y       z     vdW  Elec       q    Type
REMARK                         _______ _______ _______ _____ _____    ______ ____
ROOT
ATOM      1  C   UNL     1       7.032   2.417  -0.057  0.00  0.00    +0.308 C 
ATOM      2  O   UNL     1       6.268   3.353  -0.044  0.00  0.00    -0.251 OA
ENDROOT
BRANCH   1   3
ATOM      3  O   UNL     1       6.557   1.162  -0.059  0.00  0.00    -0.455 OA
BRANCH   3   4
ATOM      4  C   UNL     1       5.137   1.006  -0.045  0.00  0.00    +0.328 C 
BRANCH   4  14
ATOM      5  C   UNL     1      -0.017   1.378   0.010  0.00  0.00    +0.000 A 
ATOM      6  C   UNL     1       1.174   2.082   0.002  0.00  0.00    +0.002 A 
ATOM      7  C   UNL     1       2.377   1.410  -0.013  0.00  0.00    +0.024 A 
ATOM      8  C   UNL     1       2.404   0.014  -0.022  0.00  0.00    +0.040 A 
ATOM      9  C   UNL     1       1.206  -0.682  -0.014  0.00  0.00    -0.024 A 
ATOM     10  C   UNL     1       0.002  -0.004   0.002  0.00  0.00    +0.005 A 
ATOM     11  C   UNL     1       1.510  -2.163  -0.025  0.00  0.00    +0.056 C 
ATOM     12  C   UNL     1       3.046  -2.243  -0.040  0.00  0.00    +0.118 C 
ATOM     13  N   UNL     1       3.503  -0.851  -0.037  0.00  0.00    -0.268 N 
ATOM     14  C   UNL     1       4.793  -0.461  -0.049  0.00  0.00    +0.258 C 
ATOM     15  O   UNL     1       5.677  -1.291  -0.062  0.00  0.00    -0.272 OA
ENDBRANCH   4  14
ENDBRANCH   3   4
ENDBRANCH   1   3
BRANCH   1  16
ATOM     16  C   UNL     1       8.520   2.660  -0.071  0.00  0.00    +0.123 C 
BRANCH  16  17
ATOM     17  C   UNL     1       8.791   4.166  -0.066  0.00  0.00    +0.045 C 
BRANCH  17  18
ATOM     18  C   UNL     1      10.301   4.413  -0.081  0.00  0.00    +0.166 C 
ATOM     19  C   UNL     1      10.529   5.889   0.152  0.00  0.00    +0.240 C 
ATOM     20  O   UNL     1      10.104   6.427   1.155  0.00  0.00    -0.273 OA
ATOM     21  N   UNL     1      11.204   6.593  -0.758  0.00  0.00    -0.282 N 
ATOM     22  C   UNL     1      11.678   6.032  -1.857  0.00  0.00    +0.057 A 
ATOM     23  C   UNL     1      12.389   6.806  -2.801  0.00  0.00    +0.025 A 
ATOM     24  C   UNL     1      12.876   6.237  -3.928  0.00  0.00    +0.002 A 
ATOM     25  C   UNL     1      12.710   4.874  -4.224  0.00  0.00    +0.002 A 
ATOM     26  C   UNL     1      12.046   4.043  -3.390  0.00  0.00    +0.027 A 
ATOM     27  C   UNL     1      11.486   4.587  -2.142  0.00  0.00    +0.057 A 
ATOM     28  N   UNL     1      10.840   3.819  -1.314  0.00  0.00    -0.372 N 
ATOM     29  H   UNL     1      10.718   2.876  -1.505  0.00  0.00    +0.160 HD
ATOM     30  H   UNL     1      11.351   7.540  -0.610  0.00  0.00    +0.155 HD
ENDBRANCH  17  18
ENDBRANCH  16  17
ENDBRANCH   1  16
TORSDOF 6
