REMARK  Name = ZINC39633736
REMARK  3 active torsions:
REMARK  status: ('A' for Active; 'I' for Inactive)
REMARK    1  A    between atoms: C_5  and  N_8
REMARK    2  A    between atoms: C_9  and  C_11
REMARK    3  A    between atoms: C_22  and  C_24
REMARK                            x       y       z     vdW  Elec       q    Type
REMARK                         _______ _______ _______ _____ _____    ______ ____
ROOT
ATOM      1  C   UNL     1       3.005  -3.138  -3.812  0.00  0.00    +0.100 C 
ATOM      2  C   UNL     1       1.746  -3.762  -4.454  0.00  0.00    +0.121 C 
ATOM      3  N   UNL     1       2.134  -5.159  -4.759  0.00  0.00    -0.300 N 
ATOM      4  C   UNL     1       2.954  -5.577  -3.597  0.00  0.00    +0.115 C 
ATOM      5  C   UNL     1       3.795  -4.332  -3.251  0.00  0.00    -0.004 C 
ATOM      6  C   UNL     1       5.165  -4.419  -3.916  0.00  0.00    -0.010 C 
ATOM      7  C   UNL     1       5.953  -5.579  -3.301  0.00  0.00    -0.082 C 
ATOM      8  N   UNL     1       6.102  -5.361  -1.857  0.00  0.00    +0.379 N 
ATOM      9  C   UNL     1       4.784  -5.370  -1.211  0.00  0.00    -0.082 C 
ATOM     10  C   UNL     1       3.946  -4.202  -1.738  0.00  0.00    -0.010 C 
ATOM     11  C   UNL     1       1.814  -5.886  -5.848  0.00  0.00    +0.219 C 
ATOM     12  O   UNL     1       2.212  -7.027  -5.954  0.00  0.00    -0.275 OA
ATOM     13  H   UNL     1       6.673  -6.094  -1.464  0.00  0.00    -0.086 HD
ATOM     14  H   UNL     1       6.547  -4.469  -1.697  0.00  0.00    -0.086 HD
ENDROOT
BRANCH  11  15
ATOM     15  C   UNL     1       0.963  -5.282  -6.934  0.00  0.00    +0.079 C 
ATOM     16  C   UNL     1       0.738  -6.313  -8.048  0.00  0.00    +0.017 C 
ATOM     17  C   UNL     1       0.027  -5.621  -9.212  0.00  0.00    +0.027 C 
ATOM     18  C   UNL     1      -1.162  -4.855  -8.710  0.00  0.00    -0.031 C 
ATOM     19  C   UNL     1      -1.345  -4.531  -7.470  0.00  0.00    -0.030 C 
ATOM     20  C   UNL     1      -0.397  -4.881  -6.359  0.00  0.00    +0.039 C 
ENDBRANCH  11  15
BRANCH   1  22
ATOM     21  N   UNL     1       3.410  -1.151  -2.397  0.00  0.00    -0.312 N 
ATOM     22  C   UNL     1       2.617  -2.197  -2.702  0.00  0.00    +0.218 C 
ATOM     23  O   UNL     1       1.590  -2.380  -2.083  0.00  0.00    -0.275 OA
ATOM     24  H   UNL     1       4.231  -1.004  -2.892  0.00  0.00    +0.149 HD
BRANCH  21  29
ATOM     25  C   UNL     1       2.224   2.238   0.202  0.00  0.00    +0.000 C 
ATOM     26  C   UNL     1       2.770   1.222   1.168  0.00  0.00    +0.000 C 
ATOM     27  C   UNL     1       4.158   0.698   0.751  0.00  0.00    +0.002 C 
ATOM     28  C   UNL     1       4.264   0.427  -0.762  0.00  0.00    +0.022 C 
ATOM     29  C   UNL     1       3.032  -0.235  -1.317  0.00  0.00    +0.073 C 
ATOM     30  C   UNL     1       2.094   0.857  -1.868  0.00  0.00    +0.022 C 
ATOM     31  C   UNL     1       1.326   1.510  -0.819  0.00  0.00    +0.002 C 
ENDBRANCH  21  29
ENDBRANCH   1  22
TORSDOF 3
