REMARK  Name = ZINC21045558
REMARK  3 active torsions:
REMARK  status: ('A' for Active; 'I' for Inactive)
REMARK    1  A    between atoms: C_1  and  C_2
REMARK    2  A    between atoms: C_4  and  C_7
REMARK    3  A    between atoms: C_16  and  N_17
REMARK                            x       y       z     vdW  Elec       q    Type
REMARK                         _______ _______ _______ _____ _____    ______ ____
ROOT
ATOM      1  C   UNL     1      -1.209  -0.886  -0.230  0.00  0.00    +0.061 A 
ATOM      2  C   UNL     1      -1.027  -2.254  -0.347  0.00  0.00    +0.023 A 
ATOM      3  C   UNL     1      -2.105  -3.118  -0.104  0.00  0.00    -0.017 A 
ATOM      4  C   UNL     1      -1.955  -4.512  -0.213  0.00  0.00    +0.008 A 
ATOM      5  C   UNL     1      -3.019  -5.325   0.029  0.00  0.00    +0.001 A 
ATOM      6  C   UNL     1      -4.259  -4.798   0.385  0.00  0.00    +0.001 A 
ATOM      7  C   UNL     1      -4.442  -3.454   0.501  0.00  0.00    +0.008 A 
ATOM      8  C   UNL     1      -3.367  -2.581   0.259  0.00  0.00    -0.016 A 
ATOM      9  C   UNL     1      -3.527  -1.190   0.371  0.00  0.00    +0.032 A 
ATOM     10  C   UNL     1      -2.467  -0.360   0.137  0.00  0.00    +0.038 A 
ENDROOT
BRANCH   1  14
ATOM     11  C   UNL     1       3.277   1.285  -0.259  0.00  0.00    +0.091 C 
ATOM     12  C   UNL     1       1.825   0.964  -0.505  0.00  0.00    +0.169 A 
ATOM     13  N   UNL     1       1.152  -0.088  -0.014  0.00  0.00    -0.192 NA
ATOM     14  C   UNL     1      -0.078   0.028  -0.483  0.00  0.00    +0.260 A 
ATOM     15  O   UNL     1      -0.099   1.140  -1.236  0.00  0.00    -0.333 OA
ATOM     16  N   UNL     1       0.999   1.656  -1.232  0.00  0.00    -0.061 NA
ENDBRANCH   1  14
BRANCH  10  17
ATOM     17  N   UNL     1      -2.631   1.017   0.255  0.00  0.00    -0.357 N 
ATOM     18  H   UNL     1      -3.609   1.432   0.540  0.00  0.00    +0.142 HD
ATOM     19  H   UNL     1      -1.783   1.690   0.063  0.00  0.00    +0.142 HD
ENDBRANCH  10  17
TORSDOF 2
