REMARK  Name = ZINC02312290
REMARK  10 active torsions:
REMARK  status: ('A' for Active; 'I' for Inactive)
REMARK    1  A    between atoms: C_1  and  C_2
REMARK    2  A    between atoms: C_2  and  O_3
REMARK    3  A    between atoms: O_3  and  C_4
REMARK    4  A    between atoms: C_9  and  C_10
REMARK    5  A    between atoms: C_12  and  C_34
REMARK    6  A    between atoms: C_13  and  S_22
REMARK    7  A    between atoms: S_22  and  C_23
REMARK    8  A    between atoms: C_23  and  C_24
REMARK    9  A    between atoms: N_26  and  C_27
REMARK   10  A    between atoms: C_30  and  C_33
REMARK                            x       y       z     vdW  Elec       q    Type
REMARK                         _______ _______ _______ _____ _____    ______ ____
ROOT
ATOM      1  C   UNL     1       1.988  -1.415  -3.481  0.00  0.00    +0.100 C 
ATOM      2  C   UNL     1       3.468  -1.637  -3.584  0.00  0.00    +0.069 C 
ATOM      3  C   UNL     1       4.000  -2.351  -4.612  0.00  0.00    +0.080 C 
ATOM      4  N   UNL     1       3.180  -2.879  -5.583  0.00  0.00    -0.311 N 
ATOM      5  C   UNL     1       1.917  -2.387  -5.769  0.00  0.00    +0.016 C 
ATOM      6  C   UNL     1       1.306  -1.676  -4.800  0.00  0.00    +0.025 C 
ATOM      7  C   UNL     1       0.014  -1.154  -4.991  0.00  0.00    +0.162 C 
ATOM      8  O   UNL     1      -0.512  -0.523  -4.096  0.00  0.00    -0.292 OA
ATOM      9  C   UNL     1      -0.728  -1.363  -6.282  0.00  0.00    +0.080 C 
ATOM     10  C   UNL     1       0.285  -1.513  -7.422  0.00  0.00    +0.014 C 
ATOM     11  C   UNL     1       1.227  -2.665  -7.082  0.00  0.00    +0.051 C 
ATOM     12  H   UNL     1       3.501  -3.605  -6.140  0.00  0.00    +0.152 HD
ENDROOT
BRANCH   1  18
ATOM     13  C   UNL     1       0.784  -1.827  -1.319  0.00  0.00    +0.125 A 
ATOM     14  C   UNL     1       0.259  -2.686  -0.365  0.00  0.00    +0.046 A 
ATOM     15  C   UNL     1       0.374  -4.052  -0.528  0.00  0.00    +0.004 A 
ATOM     16  C   UNL     1       1.013  -4.565  -1.642  0.00  0.00    +0.001 A 
ATOM     17  C   UNL     1       1.538  -3.712  -2.595  0.00  0.00    +0.008 A 
ATOM     18  C   UNL     1       1.420  -2.344  -2.439  0.00  0.00    +0.007 A 
BRANCH  13  19
ATOM     19  O   UNL     1       0.672  -0.482  -1.161  0.00  0.00    -0.492 OA
BRANCH  19  21
ATOM     20  C   UNL     1      -0.024   1.509   0.018  0.00  0.00    +0.048 C 
ATOM     21  C   UNL     1       0.005  -0.021   0.015  0.00  0.00    +0.225 C 
ENDBRANCH  19  21
ENDBRANCH  13  19
ENDBRANCH   1  18
BRANCH   2  22
ATOM     22  C   UNL     1       4.334  -1.087  -2.585  0.00  0.00    +0.098 C 
ATOM     23  N   UNL     1       5.022  -0.651  -1.793  0.00  0.00    -0.191 NA
ENDBRANCH   2  22
BRANCH   3  24
ATOM     24  S   UNL     1       5.742  -2.601  -4.700  0.00  0.00    -0.100 S 
BRANCH  24  25
ATOM     25  C   UNL     1       5.968  -3.587  -6.206  0.00  0.00    +0.171 C 
BRANCH  25  26
ATOM     26  C   UNL     1       7.434  -3.875  -6.403  0.00  0.00    +0.227 C 
ATOM     27  O   UNL     1       8.246  -3.457  -5.605  0.00  0.00    -0.275 OA
ATOM     28  N   UNL     1       7.842  -4.598  -7.465  0.00  0.00    -0.285 N 
ATOM     29  H   UNL     1       7.189  -4.989  -8.065  0.00  0.00    +0.155 HD
BRANCH  28  30
ATOM     30  C   UNL     1       9.209  -4.784  -7.700  0.00  0.00    +0.033 A 
ATOM     31  C   UNL     1       9.691  -4.831  -9.002  0.00  0.00    +0.023 A 
ATOM     32  C   UNL     1      11.040  -5.015  -9.232  0.00  0.00    +0.005 A 
ATOM     33  C   UNL     1      11.911  -5.152  -8.167  0.00  0.00    -0.050 A 
ATOM     34  C   UNL     1      11.435  -5.106  -6.869  0.00  0.00    +0.005 A 
ATOM     35  C   UNL     1      10.088  -4.916  -6.633  0.00  0.00    +0.023 A 
ATOM     36  C   UNL     1      13.383  -5.352  -8.421  0.00  0.00    +0.044 C 
ENDBRANCH  28  30
ENDBRANCH  25  26
ENDBRANCH  24  25
ENDBRANCH   3  24
TORSDOF 8
