REMARK  Name = ZINC12654089
REMARK  5 active torsions:
REMARK  status: ('A' for Active; 'I' for Inactive)
REMARK    1  A    between atoms: C_1  and  C_2
REMARK    2  A    between atoms: C_3  and  N_19
REMARK    3  A    between atoms: C_4  and  N_9
REMARK    4  A    between atoms: N_9  and  N_10
REMARK    5  A    between atoms: C_11  and  C_12
REMARK                            x       y       z     vdW  Elec       q    Type
REMARK                         _______ _______ _______ _____ _____    ______ ____
ROOT
ATOM      1  C   UNL     1       3.711  -4.936  -0.059  0.00  0.00    +0.068 C 
ATOM      2  C   UNL     1       2.427  -4.147  -0.043  0.00  0.00    +0.075 A 
ATOM      3  C   UNL     1       2.457  -2.765  -0.036  0.00  0.00    +0.188 A 
ATOM      4  C   UNL     1       1.244  -2.073  -0.021  0.00  0.00    +0.174 A 
ATOM      5  N   UNL     1       0.107  -2.764  -0.008  0.00  0.00    -0.196 NA
ATOM      6  C   UNL     1       0.122  -4.088  -0.021  0.00  0.00    +0.215 A 
ATOM      7  N   UNL     1       1.258  -4.770  -0.036  0.00  0.00    -0.218 NA
ATOM      8  N   UNL     1      -1.079  -4.776  -0.013  0.00  0.00    -0.327 N 
ATOM      9  H   UNL     1      -1.081  -5.746  -0.019  0.00  0.00    +0.145 HD
ATOM     10  H   UNL     1      -1.917  -4.289  -0.003  0.00  0.00    +0.145 HD
ENDROOT
BRANCH   3  11
ATOM     11  N   UNL     1       3.744  -2.036  -0.045  0.00  0.00    +0.062 N 
ATOM     12  O   UNL     1       4.285  -1.741   1.006  0.00  0.00    -0.126 OA
ATOM     13  O   UNL     1       4.264  -1.730  -1.103  0.00  0.00    -0.126 OA
ENDBRANCH   3  11
BRANCH   4  14
ATOM     14  N   UNL     1       1.225  -0.688  -0.013  0.00  0.00    -0.219 N 
ATOM     15  H   UNL     1       2.058  -0.192  -0.019  0.00  0.00    +0.176 HD
BRANCH  14  16
ATOM     16  N   UNL     1       0.002  -0.004   0.002  0.00  0.00    -0.189 NA
ATOM     17  C   UNL     1      -0.015   1.294   0.009  0.00  0.00    +0.138 C 
BRANCH  17  18
ATOM     18  C   UNL     1      -1.302   2.014   0.019  0.00  0.00    -0.005 A 
ATOM     19  C   UNL     1      -2.505   1.302   0.015  0.00  0.00    +0.010 A 
ATOM     20  C   UNL     1      -3.705   1.981   0.031  0.00  0.00    +0.016 A 
ATOM     21  C   UNL     1      -3.720   3.366   0.038  0.00  0.00    +0.018 A 
ATOM     22  C   UNL     1      -2.532   4.077   0.036  0.00  0.00    +0.016 A 
ATOM     23  C   UNL     1      -1.325   3.410   0.027  0.00  0.00    +0.010 A 
ATOM     24 BR   UNL     1      -5.370   4.289   0.051  0.00  0.00    -0.050 Br
ENDBRANCH  17  18
ENDBRANCH  14  16
ENDBRANCH   4  14
TORSDOF 4
