REMARK  Name = ZINC05977879
REMARK  7 active torsions:
REMARK  status: ('A' for Active; 'I' for Inactive)
REMARK    1  A    between atoms: C_1  and  C_2
REMARK    2  A    between atoms: C_2  and  C_3
REMARK    3  A    between atoms: C_3  and  N_4
REMARK    4  A    between atoms: N_4  and  C_5
REMARK    5  A    between atoms: C_5  and  C_25
REMARK    6  A    between atoms: C_7  and  C_21
REMARK    7  A    between atoms: C_25  and  C_26
REMARK                            x       y       z     vdW  Elec       q    Type
REMARK                         _______ _______ _______ _____ _____    ______ ____
ROOT
ATOM      1  C   UNL     1       1.321  -2.623  -2.285  0.00  0.00    +0.018 C 
ATOM      2  C   UNL     1       1.340  -4.007  -2.293  0.00  0.00    +0.087 C 
ATOM      3  C   UNL     1       0.774  -4.917  -1.285  0.00  0.00    +0.176 C 
ATOM      4  N   UNL     1       1.010  -6.131  -1.677  0.00  0.00    -0.165 NA
ATOM      5  N   UNL     1       1.702  -6.149  -2.887  0.00  0.00    -0.131 N 
ATOM      6  C   UNL     1       1.924  -4.888  -3.312  0.00  0.00    +0.276 C 
ATOM      7  O   UNL     1       2.497  -4.549  -4.333  0.00  0.00    -0.268 OA
ATOM      8  C   UNL     1       2.099  -7.296  -3.560  0.00  0.00    +0.189 A 
ATOM      9  N   UNL     1       2.754  -7.401  -4.692  0.00  0.00    -0.223 NA
ATOM     10  C   UNL     1       3.076  -8.594  -5.236  0.00  0.00    +0.080 A 
ATOM     11  C   UNL     1       3.774  -8.845  -6.441  0.00  0.00    +0.029 A 
ATOM     12  C   UNL     1       4.020 -10.128  -6.853  0.00  0.00    +0.002 A 
ATOM     13  C   UNL     1       3.598 -11.222  -6.111  0.00  0.00    +0.001 A 
ATOM     14  C   UNL     1       2.913 -11.014  -4.928  0.00  0.00    +0.017 A 
ATOM     15  C   UNL     1       2.662  -9.732  -4.506  0.00  0.00    +0.041 A 
ATOM     16  S   UNL     1       1.853  -9.005  -3.101  0.00  0.00    -0.050 S 
ENDROOT
BRANCH   3  17
ATOM     17  C   UNL     1       0.050  -4.511  -0.027  0.00  0.00    +0.437 C 
ATOM     18  F   UNL     1      -0.340  -5.656   0.676  0.00  0.00    -0.164 F 
ATOM     19  F   UNL     1       0.901  -3.740   0.772  0.00  0.00    -0.164 F 
ATOM     20  F   UNL     1      -1.082  -3.761  -0.361  0.00  0.00    -0.164 F 
ENDBRANCH   3  17
BRANCH   1  21
ATOM     21  N   UNL     1       0.738  -1.962  -1.265  0.00  0.00    -0.346 N 
ATOM     22  H   UNL     1       0.332  -2.457  -0.536  0.00  0.00    +0.146 HD
BRANCH  21  23
ATOM     23  C   UNL     1       0.718  -0.497  -1.257  0.00  0.00    +0.101 C 
BRANCH  23  25
ATOM     24  C   UNL     1      -0.019   1.526   0.010  0.00  0.00    +0.005 C 
ATOM     25  C   UNL     1       0.002  -0.004   0.002  0.00  0.00    +0.015 C 
ENDBRANCH  23  25
ENDBRANCH  21  23
ENDBRANCH   1  21
BRANCH   1  26
ATOM     26  C   UNL     1       1.953  -1.855  -3.418  0.00  0.00    +0.048 C 
ATOM     27  C   UNL     1       0.883  -1.500  -4.452  0.00  0.00    +0.010 C 
ENDBRANCH   1  26
TORSDOF 5
