REMARK  Name = ZINC36668118
REMARK  7 active torsions:
REMARK  status: ('A' for Active; 'I' for Inactive)
REMARK    1  A    between atoms: C_1  and  C_2
REMARK    2  A    between atoms: C_3  and  C_11
REMARK    3  A    between atoms: C_7  and  N_8
REMARK    4  A    between atoms: C_11  and  C_13
REMARK    5  A    between atoms: N_15  and  C_16
REMARK    6  A    between atoms: C_17  and  C_27
REMARK    7  A    between atoms: C_19  and  C_21
REMARK                            x       y       z     vdW  Elec       q    Type
REMARK                         _______ _______ _______ _____ _____    ______ ____
ROOT
ATOM      1  C   UNL     1      -0.986  -0.943  -3.713  0.00  0.00    +0.289 C 
ATOM      2  O   UNL     1      -0.738  -2.131  -3.689  0.00  0.00    -0.266 OA
ATOM      3  N   UNL     1      -1.453  -0.374  -4.843  0.00  0.00    -0.273 N 
ATOM      4  H   UNL     1      -1.651   0.575  -4.862  0.00  0.00    +0.156 HD
ENDROOT
BRANCH   3   5
ATOM      5  C   UNL     1      -1.650  -1.144  -5.973  0.00  0.00    +0.085 A 
ATOM      6  C   UNL     1      -2.115  -0.736  -7.219  0.00  0.00    +0.066 A 
ATOM      7  C   UNL     1      -2.230  -1.706  -8.215  0.00  0.00    +0.031 A 
ATOM      8  C   UNL     1      -1.871  -2.974  -7.867  0.00  0.00    +0.022 A 
ATOM      9  S   UNL     1      -1.376  -2.790  -6.166  0.00  0.00    -0.073 S 
BRANCH   8  10
ATOM     10  C   UNL     1      -1.884  -4.197  -8.697  0.00  0.00    -0.011 A 
ATOM     11  C   UNL     1      -2.301  -4.136 -10.028  0.00  0.00    +0.009 A 
ATOM     12  C   UNL     1      -2.311  -5.281 -10.797  0.00  0.00    +0.001 A 
ATOM     13  C   UNL     1      -1.909  -6.488 -10.252  0.00  0.00    +0.000 A 
ATOM     14  C   UNL     1      -1.495  -6.555  -8.934  0.00  0.00    +0.001 A 
ATOM     15  C   UNL     1      -1.475  -5.416  -8.155  0.00  0.00    +0.009 A 
ENDBRANCH   8  10
BRANCH   6  16
ATOM     16  C   UNL     1      -2.473   0.664  -7.476  0.00  0.00    +0.244 C 
ATOM     17  O   UNL     1      -2.364   1.492  -6.591  0.00  0.00    -0.270 OA
ATOM     18  N   UNL     1      -2.921   1.033  -8.693  0.00  0.00    -0.325 N 
ATOM     19  H   UNL     1      -3.007   0.373  -9.398  0.00  0.00    +0.145 HD
ATOM     20  H   UNL     1      -3.157   1.958  -8.863  0.00  0.00    +0.145 HD
ENDBRANCH   6  16
ENDBRANCH   3   5
BRANCH   1  21
ATOM     21  C   UNL     1      -0.773  -0.112  -2.493  0.00  0.00    +0.248 C 
ATOM     22  O   UNL     1      -0.940   1.089  -2.541  0.00  0.00    -0.282 OA
BRANCH  21  25
ATOM     23  C   UNL     1      -0.632   1.470  -0.072  0.00  0.00    +0.047 C 
ATOM     24  C   UNL     1      -0.289   0.003  -0.053  0.00  0.00    -0.009 A 
ATOM     25  C   UNL     1      -0.361  -0.750  -1.230  0.00  0.00    +0.032 A 
ATOM     26  C   UNL     1      -0.041  -2.111  -1.201  0.00  0.00    +0.012 A 
ATOM     27  C   UNL     1       0.343  -2.701  -0.015  0.00  0.00    +0.003 A 
ATOM     28  C   UNL     1       0.411  -1.949   1.145  0.00  0.00    +0.033 A 
ATOM     29  C   UNL     1       0.101  -0.600   1.124  0.00  0.00    +0.130 A 
BRANCH  29  30
ATOM     30  N   UNL     1       0.184   0.196   2.369  0.00  0.00    +0.057 N 
ATOM     31  O   UNL     1       0.396  -0.353   3.425  0.00  0.00    -0.126 OA
ATOM     32  O   UNL     1       0.040   1.396   2.330  0.00  0.00    -0.126 OA
ENDBRANCH  29  30
ENDBRANCH  21  25
ENDBRANCH   1  21
TORSDOF 6
