REMARK  Name = ZINC57316551
REMARK  7 active torsions:
REMARK  status: ('A' for Active; 'I' for Inactive)
REMARK    1  A    between atoms: C_4  and  N_29
REMARK    2  A    between atoms: C_5  and  C_7
REMARK    3  A    between atoms: C_10  and  C_12
REMARK    4  A    between atoms: N_14  and  C_15
REMARK    5  A    between atoms: C_15  and  N_17
REMARK    6  A    between atoms: N_17  and  C_18
REMARK    7  A    between atoms: C_19  and  C_26
REMARK                            x       y       z     vdW  Elec       q    Type
REMARK                         _______ _______ _______ _____ _____    ______ ____
ROOT
ATOM      1  C   UNL     1       2.340  -5.368  -1.278  0.00  0.00    +0.285 C 
ATOM      2  O   UNL     1       2.067  -6.502  -0.930  0.00  0.00    -0.266 OA
ATOM      3  N   UNL     1       3.189  -5.165  -2.305  0.00  0.00    -0.261 N 
ATOM      4  H   UNL     1       3.407  -4.261  -2.583  0.00  0.00    +0.157 HD
ENDROOT
BRANCH   1   8
ATOM      5  C   UNL     1       1.251  -2.159  -0.022  0.00  0.00    +0.138 A 
ATOM      6  C   UNL     1       0.557  -2.973   0.827  0.00  0.00    +0.051 A 
ATOM      7  C   UNL     1       0.866  -4.291   0.477  0.00  0.00    +0.055 A 
ATOM      8  C   UNL     1       1.745  -4.226  -0.583  0.00  0.00    +0.190 A 
ATOM      9  O   UNL     1       1.958  -2.924  -0.870  0.00  0.00    -0.450 OA
BRANCH   5  14
ATOM     10  C   UNL     1      -0.017   1.375   0.010  0.00  0.00    +0.001 A 
ATOM     11  C   UNL     1       1.171   2.086   0.002  0.00  0.00    +0.002 A 
ATOM     12  C   UNL     1       2.383   1.421  -0.013  0.00  0.00    +0.033 A 
ATOM     13  C   UNL     1       2.417   0.042  -0.021  0.00  0.00    +0.137 A 
ATOM     14  C   UNL     1       1.223  -0.683  -0.013  0.00  0.00    +0.047 A 
ATOM     15  C   UNL     1       0.002  -0.004   0.002  0.00  0.00    +0.014 A 
BRANCH  13  16
ATOM     16  N   UNL     1       3.715  -0.669  -0.038  0.00  0.00    +0.057 N 
ATOM     17  O   UNL     1       4.748  -0.041  -0.046  0.00  0.00    -0.126 OA
ATOM     18  O   UNL     1       3.743  -1.878  -0.045  0.00  0.00    -0.126 OA
ENDBRANCH  13  16
ENDBRANCH   5  14
ENDBRANCH   1   8
BRANCH   3  19
ATOM     19  C   UNL     1       3.737  -6.216  -2.945  0.00  0.00    +0.142 C 
ATOM     20  S   UNL     1       3.354  -7.811  -2.455  0.00  0.00    -0.018 S 
BRANCH  19  21
ATOM     21  N   UNL     1       4.587  -6.013  -3.972  0.00  0.00    -0.291 N 
ATOM     22  H   UNL     1       4.804  -5.109  -4.250  0.00  0.00    +0.154 HD
BRANCH  21  23
ATOM     23  C   UNL     1       5.149  -7.094  -4.630  0.00  0.00    +0.084 A 
ATOM     24  C   UNL     1       6.037  -7.076  -5.691  0.00  0.00    +0.068 A 
ATOM     25  C   UNL     1       6.486  -8.367  -6.210  0.00  0.00    -0.023 A 
ATOM     26  C   UNL     1       5.961  -9.428  -5.571  0.00  0.00    -0.004 A 
ATOM     27  S   UNL     1       4.917  -8.726  -4.320  0.00  0.00    -0.077 S 
ATOM     28  C   UNL     1       6.452 -10.728  -6.147  0.00  0.00    +0.043 C 
ATOM     29  C   UNL     1       7.037 -10.349  -7.526  0.00  0.00    +0.010 C 
ATOM     30  C   UNL     1       7.418  -8.870  -7.310  0.00  0.00    +0.037 C 
BRANCH  24  31
ATOM     31  C   UNL     1       6.508  -5.815  -6.270  0.00  0.00    +0.244 C 
ATOM     32  O   UNL     1       7.512  -5.282  -5.834  0.00  0.00    -0.270 OA
ATOM     33  N   UNL     1       5.829  -5.245  -7.286  0.00  0.00    -0.325 N 
ATOM     34  H   UNL     1       5.029  -5.669  -7.633  0.00  0.00    +0.145 HD
ATOM     35  H   UNL     1       6.141  -4.410  -7.669  0.00  0.00    +0.145 HD
ENDBRANCH  24  31
ENDBRANCH  21  23
ENDBRANCH  19  21
ENDBRANCH   3  19
TORSDOF 7
