REMARK  Name = ZINC08627537
REMARK  10 active torsions:
REMARK  status: ('A' for Active; 'I' for Inactive)
REMARK    1  A    between atoms: C_1  and  C_2
REMARK    2  A    between atoms: C_2  and  C_29
REMARK    3  A    between atoms: N_7  and  C_8
REMARK    4  A    between atoms: C_12  and  O_14
REMARK    5  A    between atoms: O_14  and  C_15
REMARK    6  A    between atoms: C_15  and  C_16
REMARK    7  A    between atoms: C_16  and  O_17
REMARK    8  A    between atoms: O_17  and  C_18
REMARK    9  A    between atoms: C_22  and  N_24
REMARK   10  A    between atoms: C_25  and  C_27
REMARK                            x       y       z     vdW  Elec       q    Type
REMARK                         _______ _______ _______ _____ _____    ______ ____
ROOT
ATOM      1  C   UNL     1      -3.630  -0.637   0.978  0.00  0.00    +0.042 A 
ATOM      2  C   UNL     1      -3.168  -0.439   2.273  0.00  0.00    +0.024 A 
ATOM      3  C   UNL     1      -3.891  -0.922   3.346  0.00  0.00    +0.005 A 
ATOM      4  C   UNL     1      -5.069  -1.613   3.135  0.00  0.00    +0.046 A 
ATOM      5  C   UNL     1      -5.533  -1.818   1.843  0.00  0.00    +0.122 A 
ATOM      6  C   UNL     1      -4.813  -1.331   0.763  0.00  0.00    +0.069 A 
ENDROOT
BRANCH   1  13
ATOM      7  C   UNL     1      -3.886   0.310  -2.315  0.00  0.00    +0.053 C 
ATOM      8  C   UNL     1      -3.442   0.914  -0.982  0.00  0.00    +0.102 C 
ATOM      9  N   UNL     1      -2.367   1.898  -1.212  0.00  0.00    -0.298 N 
ATOM     10  C   UNL     1      -1.106   1.397  -1.509  0.00  0.00    +0.159 C 
ATOM     11  N   UNL     1      -0.670   0.323  -0.735  0.00  0.00    -0.263 N 
ATOM     12  C   UNL     1      -1.635  -0.630  -0.413  0.00  0.00    +0.166 C 
ATOM     13  N   UNL     1      -2.901  -0.144  -0.109  0.00  0.00    -0.253 N 
ATOM     14  C   UNL     1      -4.630   1.594  -0.298  0.00  0.00    +0.053 C 
ATOM     15  H   UNL     1      -2.534   2.852  -1.157  0.00  0.00    +0.151 HD
ATOM     16  H   UNL     1       0.519   1.602  -2.719  0.00  0.00    +0.158 HD
ATOM     17  H   UNL     1       0.250   0.243  -0.438  0.00  0.00    +0.157 HD
ATOM     18  H   UNL     1      -0.503  -2.312  -0.602  0.00  0.00    +0.158 HD
ATOM     19  N   UNL     1      -0.409   1.956  -2.486  0.00  0.00    -0.375 N 
ATOM     20  H   UNL     1      -0.803   2.746  -3.010  0.00  0.00    +0.158 HD
ATOM     21  N   UNL     1      -1.426  -1.938  -0.381  0.00  0.00    -0.374 N 
ATOM     22  H   UNL     1      -2.193  -2.574  -0.134  0.00  0.00    +0.158 HD
ENDBRANCH   1  13
BRANCH   5  23
ATOM     23  O   UNL     1      -6.691  -2.498   1.637  0.00  0.00    -0.489 OA
BRANCH  23  24
ATOM     24  C   UNL     1      -7.381  -2.972   2.795  0.00  0.00    +0.270 C 
BRANCH  24  25
ATOM     25  C   UNL     1      -8.652  -3.707   2.367  0.00  0.00    +0.270 C 
BRANCH  25  26
ATOM     26  O   UNL     1      -8.300  -4.880   1.630  0.00  0.00    -0.489 OA
BRANCH  26  27
ATOM     27  C   UNL     1      -9.320  -5.652   1.173  0.00  0.00    +0.122 A 
ATOM     28  C   UNL     1     -10.635  -5.290   1.434  0.00  0.00    +0.046 A 
ATOM     29  C   UNL     1     -11.674  -6.071   0.965  0.00  0.00    +0.005 A 
ATOM     30  C   UNL     1     -11.408  -7.220   0.245  0.00  0.00    +0.023 A 
ATOM     31  C   UNL     1     -10.094  -7.590  -0.013  0.00  0.00    +0.037 A 
ATOM     32  C   UNL     1      -9.050  -6.804   0.452  0.00  0.00    +0.069 A 
BRANCH  31  33
ATOM     33  N   UNL     1      -9.825  -8.754  -0.741  0.00  0.00    -0.285 N 
ATOM     34  C   UNL     1      -8.746  -9.503  -0.439  0.00  0.00    +0.228 C 
ATOM     35  O   UNL     1      -7.965  -9.128   0.410  0.00  0.00    -0.275 OA
ATOM     36  H   UNL     1     -10.414  -9.022  -1.464  0.00  0.00    +0.155 HD
BRANCH  34  37
ATOM     37  C   UNL     1      -8.510 -10.808  -1.156  0.00  0.00    +0.175 C 
ATOM     38 BR   UNL     1      -6.862 -11.639  -0.478  0.00  0.00    -0.082 Br
ENDBRANCH  34  37
ENDBRANCH  31  33
ENDBRANCH  26  27
ENDBRANCH  25  26
ENDBRANCH  24  25
ENDBRANCH  23  24
ENDBRANCH   5  23
TORSDOF 8
