REMARK  Name = ZINC12637410
REMARK  6 active torsions:
REMARK  status: ('A' for Active; 'I' for Inactive)
REMARK    1  A    between atoms: C_6  and  C_7
REMARK    2  A    between atoms: C_13  and  C_15
REMARK    3  A    between atoms: C_15  and  O_16
REMARK    4  A    between atoms: O_16  and  C_17
REMARK    5  A    between atoms: C_17  and  C_19
REMARK    6  A    between atoms: C_19  and  N_20
REMARK                            x       y       z     vdW  Elec       q    Type
REMARK                         _______ _______ _______ _____ _____    ______ ____
ROOT
ATOM      1  C   UNL     1      -1.271  -0.765   0.010  0.00  0.00    +0.080 A 
ATOM      2  C   UNL     1      -1.257  -2.132   0.008  0.00  0.00    +0.076 A 
ATOM      3  S   UNL     1      -3.011  -2.481   0.021  0.00  0.00    -0.060 S 
ATOM      4  C   UNL     1      -3.576  -0.785   0.028  0.00  0.00    +0.165 A 
ATOM      5  N   UNL     1      -2.431  -0.127   0.025  0.00  0.00    -0.225 NA
ATOM      6  N   UNL     1      -4.874  -0.291   0.038  0.00  0.00    -0.262 N 
ATOM      7  C   UNL     1      -5.919  -1.142   0.045  0.00  0.00    +0.256 C 
ATOM      8  O   UNL     1      -5.726  -2.339   0.042  0.00  0.00    -0.272 OA
ATOM      9  H   UNL     1      -5.029   0.667   0.041  0.00  0.00    +0.157 HD
ENDROOT
BRANCH   1  15
ATOM     10  C   UNL     1      -0.017   1.390   0.010  0.00  0.00    +0.013 A 
ATOM     11  C   UNL     1       1.170   2.094   0.002  0.00  0.00    +0.039 A 
ATOM     12  C   UNL     1       2.379   1.417  -0.013  0.00  0.00    +0.123 A 
ATOM     13  C   UNL     1       2.402   0.032  -0.022  0.00  0.00    +0.039 A 
ATOM     14  C   UNL     1       1.221  -0.680  -0.014  0.00  0.00    +0.013 A 
ATOM     15  C   UNL     1       0.002  -0.004   0.002  0.00  0.00    +0.001 A 
ATOM     16  F   UNL     1       3.538   2.111  -0.021  0.00  0.00    -0.205 F 
ENDBRANCH   1  15
BRANCH   7  17
ATOM     17  C   UNL     1      -7.328  -0.606   0.056  0.00  0.00    +0.328 C 
BRANCH  17  18
ATOM     18  O   UNL     1      -8.252  -1.696   0.062  0.00  0.00    -0.454 OA
BRANCH  18  19
ATOM     19  C   UNL     1      -9.558  -1.386   0.072  0.00  0.00    +0.326 C 
ATOM     20  O   UNL     1      -9.905  -0.229   0.076  0.00  0.00    -0.249 OA
BRANCH  19  21
ATOM     21  C   UNL     1     -10.592  -2.483   0.078  0.00  0.00    +0.236 C 
BRANCH  21  22
ATOM     22  N   UNL     1     -11.932  -1.891   0.089  0.00  0.00    -0.231 N 
ATOM     23  C   UNL     1     -12.593  -1.590   1.223  0.00  0.00    +0.226 C 
ATOM     24  O   UNL     1     -12.128  -1.567   2.342  0.00  0.00    -0.275 OA
ATOM     25  C   UNL     1     -14.048  -1.280   0.833  0.00  0.00    +0.091 C 
ATOM     26  C   UNL     1     -14.759  -2.636   0.864  0.00  0.00    +0.040 C 
ATOM     27  C   UNL     1     -15.818  -2.772  -0.175  0.00  0.00    -0.030 C 
ATOM     28  C   UNL     1     -15.927  -2.022  -1.220  0.00  0.00    -0.030 C 
ATOM     29  C   UNL     1     -15.016  -0.869  -1.503  0.00  0.00    +0.040 C 
ATOM     30  C   UNL     1     -13.814  -0.797  -0.607  0.00  0.00    +0.091 C 
ATOM     31  C   UNL     1     -12.615  -1.591  -1.038  0.00  0.00    +0.226 C 
ATOM     32  O   UNL     1     -12.320  -1.904  -2.172  0.00  0.00    -0.275 OA
ENDBRANCH  21  22
ENDBRANCH  19  21
ENDBRANCH  18  19
ENDBRANCH  17  18
ENDBRANCH   7  17
TORSDOF 6
