REMARK  Name = ZINC08182858
REMARK  9 active torsions:
REMARK  status: ('A' for Active; 'I' for Inactive)
REMARK    1  A    between atoms: C_1  and  C_2
REMARK    2  A    between atoms: C_3  and  N_9
REMARK    3  A    between atoms: N_9  and  C_10
REMARK    4  A    between atoms: C_10  and  N_12
REMARK    5  A    between atoms: N_12  and  N_13
REMARK    6  A    between atoms: C_14  and  C_15
REMARK    7  A    between atoms: C_16  and  C_22
REMARK    8  A    between atoms: N_18  and  C_21
REMARK    9  A    between atoms: C_19  and  C_20
REMARK                            x       y       z     vdW  Elec       q    Type
REMARK                         _______ _______ _______ _____ _____    ______ ____
ROOT
ATOM      1  C   UNL     1       0.095  -0.654  -3.581  0.00  0.00    +0.154 C 
ATOM      2  S   UNL     1       0.119  -2.365  -3.592  0.00  0.00    -0.017 S 
ENDROOT
BRANCH   1   3
ATOM      3  N   UNL     1      -0.010   0.011  -2.413  0.00  0.00    -0.295 N 
ATOM      4  H   UNL     1      -0.103   0.976  -2.411  0.00  0.00    +0.154 HD
BRANCH   3   7
ATOM      5  C   UNL     1      -1.913   0.706  -0.414  0.00  0.00    +0.047 C 
ATOM      6  C   UNL     1      -0.895  -0.385  -0.201  0.00  0.00    -0.011 A 
ATOM      7  C   UNL     1       0.016  -0.692  -1.204  0.00  0.00    +0.037 A 
ATOM      8  C   UNL     1       0.952  -1.698  -1.003  0.00  0.00    +0.023 A 
ATOM      9  C   UNL     1       0.975  -2.391   0.191  0.00  0.00    +0.003 A 
ATOM     10  C   UNL     1       0.067  -2.084   1.188  0.00  0.00    +0.020 A 
ATOM     11  C   UNL     1      -0.864  -1.078   0.994  0.00  0.00    +0.046 A 
ATOM     12 CL   UNL     1      -1.997  -0.690   2.251  0.00  0.00    -0.083 Cl
ENDBRANCH   3   7
ENDBRANCH   1   3
BRANCH   1  13
ATOM     13  N   UNL     1       0.182   0.029  -4.739  0.00  0.00    -0.218 N 
ATOM     14  H   UNL     1       0.258  -0.449  -5.580  0.00  0.00    +0.176 HD
BRANCH  13  15
ATOM     15  N   UNL     1       0.162   1.430  -4.729  0.00  0.00    -0.188 NA
ATOM     16  C   UNL     1       0.245   2.088  -5.845  0.00  0.00    +0.141 C 
BRANCH  16  17
ATOM     17  C   UNL     1       0.225   3.564  -5.834  0.00  0.00    +0.038 A 
ATOM     18  C   UNL     1       0.126   4.391  -4.695  0.00  0.00    +0.069 A 
ATOM     19  N   UNL     1       0.140   5.635  -5.094  0.00  0.00    -0.176 NA
ATOM     20  N   UNL     1       0.247   5.660  -6.489  0.00  0.00    -0.271 N 
ATOM     21  C   UNL     1       0.304   4.390  -6.935  0.00  0.00    +0.045 A 
ATOM     22  C   UNL     1       0.429   3.952  -8.371  0.00  0.00    +0.066 C 
ATOM     23  C   UNL     1       0.295   6.864  -7.323  0.00  0.00    +0.172 C 
ATOM     24  C   UNL     1       0.022   3.922  -3.267  0.00  0.00    +0.068 C 
ENDBRANCH  16  17
ENDBRANCH  13  15
ENDBRANCH   1  13
TORSDOF 5
