REMARK  Name = ZINC01065512
REMARK  7 active torsions:
REMARK  status: ('A' for Active; 'I' for Inactive)
REMARK    1  A    between atoms: C_1  and  C_2
REMARK    2  A    between atoms: C_2  and  C_33
REMARK    3  A    between atoms: C_6  and  C_21
REMARK    4  A    between atoms: C_8  and  C_19
REMARK    5  A    between atoms: C_9  and  N_18
REMARK    6  A    between atoms: N_10  and  C_11
REMARK    7  A    between atoms: C_25  and  N_27
REMARK                            x       y       z     vdW  Elec       q    Type
REMARK                         _______ _______ _______ _____ _____    ______ ____
ROOT
ATOM      1  C   UNL     1      -2.519   4.506   3.518  0.00  0.00    +0.011 C 
ATOM      2  C   UNL     1      -2.232   6.000   3.679  0.00  0.00    -0.023 C 
ATOM      3  C   UNL     1      -2.758   6.759   2.459  0.00  0.00    +0.058 C 
ATOM      4  C   UNL     1      -2.049   6.277   1.217  0.00  0.00    +0.025 C 
ATOM      5  C   UNL     1      -0.778   5.826   1.272  0.00  0.00    +0.025 C 
ATOM      6  C   UNL     1      -0.070   5.347   0.030  0.00  0.00    +0.097 C 
ATOM      7  C   UNL     1      -0.761   5.836  -1.209  0.00  0.00    +0.077 C 
ATOM      8  C   UNL     1      -2.041   6.288  -1.167  0.00  0.00    +0.107 C 
ATOM      9  N   UNL     1      -2.726   6.312   0.026  0.00  0.00    -0.257 N 
ATOM     10  C   UNL     1      -0.075   5.786   2.490  0.00  0.00    +0.162 C 
ATOM     11  O   UNL     1       1.073   5.389   2.503  0.00  0.00    -0.292 OA
ATOM     12  C   UNL     1      -0.719   6.226   3.776  0.00  0.00    +0.086 C 
ATOM     13  C   UNL     1      -2.912   6.521   4.947  0.00  0.00    +0.011 C 
ENDROOT
BRANCH   9  14
ATOM     14  C   UNL     1      -4.125   6.374   0.024  0.00  0.00    +0.075 A 
ATOM     15  C   UNL     1      -4.767   7.605   0.028  0.00  0.00    +0.027 A 
ATOM     16  C   UNL     1      -6.147   7.663   0.026  0.00  0.00    +0.002 A 
ATOM     17  C   UNL     1      -6.891   6.497   0.020  0.00  0.00    +0.003 A 
ATOM     18  C   UNL     1      -6.256   5.269   0.015  0.00  0.00    +0.040 A 
ATOM     19  C   UNL     1      -4.875   5.203   0.012  0.00  0.00    +0.145 A 
ATOM     20  F   UNL     1      -4.254   4.003   0.002  0.00  0.00    -0.204 F 
ENDBRANCH   9  14
BRANCH   6  21
ATOM     21  C   UNL     1      -0.050   3.840   0.022  0.00  0.00    -0.033 A 
ATOM     22  C   UNL     1      -1.238   3.133   0.030  0.00  0.00    +0.005 A 
ATOM     23  C   UNL     1      -1.219   1.751   0.017  0.00  0.00    +0.003 A 
ATOM     24  C   UNL     1      -0.013   1.076   0.008  0.00  0.00    +0.033 A 
ATOM     25  C   UNL     1       1.175   1.783   0.000  0.00  0.00    +0.126 A 
ATOM     26  C   UNL     1       1.156   3.166   0.008  0.00  0.00    +0.037 A 
BRANCH  25  27
ATOM     27  N   UNL     1       2.467   1.060  -0.016  0.00  0.00    +0.056 N 
ATOM     28  O   UNL     1       2.483  -0.157  -0.023  0.00  0.00    -0.126 OA
ATOM     29  O   UNL     1       3.513   1.684  -0.022  0.00  0.00    -0.126 OA
ENDBRANCH  25  27
ENDBRANCH   6  21
BRANCH   8  30
ATOM     30  N   UNL     1      -2.654   6.722  -2.319  0.00  0.00    -0.345 N 
ATOM     31  H   UNL     1      -3.568   7.045  -2.290  0.00  0.00    +0.144 HD
ATOM     32  H   UNL     1      -2.172   6.705  -3.160  0.00  0.00    +0.144 HD
ENDBRANCH   8  30
BRANCH   7  33
ATOM     33  C   UNL     1      -0.059   5.825  -2.457  0.00  0.00    +0.099 C 
ATOM     34  N   UNL     1       0.498   5.816  -3.447  0.00  0.00    -0.191 NA
ENDBRANCH   7  33
TORSDOF 5
