REMARK  Name = ZINC42739982
REMARK  6 active torsions:
REMARK  status: ('A' for Active; 'I' for Inactive)
REMARK    1  A    between atoms: C_1  and  C_2
REMARK    2  A    between atoms: C_6  and  C_22
REMARK    3  A    between atoms: N_9  and  C_10
REMARK    4  A    between atoms: C_13  and  C_19
REMARK    5  A    between atoms: C_15  and  N_16
REMARK    6  A    between atoms: C_19  and  C_21
REMARK                            x       y       z     vdW  Elec       q    Type
REMARK                         _______ _______ _______ _____ _____    ______ ____
ROOT
ATOM      1  C   UNL     1       0.113   1.593  -0.037  0.00  0.00    +0.028 C 
ATOM      2  C   UNL     1       0.133   0.064  -0.069  0.00  0.00    +0.070 C 
ATOM      3  C   UNL     1       0.908  -0.414  -1.301  0.00  0.00    +0.023 C 
ATOM      4  C   UNL     1       1.043  -1.938  -1.255  0.00  0.00    +0.016 C 
ATOM      5  C   UNL     1       1.825  -2.344  -0.004  0.00  0.00    +0.092 C 
ATOM      6  C   UNL     1       1.060  -1.889   1.243  0.00  0.00    +0.118 C 
ATOM      7  N   UNL     1       0.796  -0.447   1.138  0.00  0.00    -0.325 N 
ENDROOT
BRANCH   7   8
ATOM      8  C   UNL     1       1.170   0.418   2.159  0.00  0.00    +0.061 A 
ATOM      9  C   UNL     1       2.460   0.944   2.186  0.00  0.00    +0.026 A 
ATOM     10  C   UNL     1       2.832   1.794   3.187  0.00  0.00    +0.013 A 
ATOM     11  C   UNL     1       1.914   2.137   4.189  0.00  0.00    +0.019 A 
ATOM     12  C   UNL     1       0.618   1.605   4.159  0.00  0.00    +0.046 A 
ATOM     13  C   UNL     1       0.253   0.760   3.150  0.00  0.00    +0.148 A 
BRANCH  13  14
ATOM     14  N   UNL     1      -1.118   0.202   3.112  0.00  0.00    +0.058 N 
ATOM     15  O   UNL     1      -1.944   0.577   3.911  0.00  0.00    -0.126 OA
ATOM     16  O   UNL     1      -1.410  -0.628   2.284  0.00  0.00    -0.126 OA
ENDBRANCH  13  14
BRANCH  11  17
ATOM     17  C   UNL     1       2.309   3.050   5.268  0.00  0.00    +0.160 C 
ATOM     18  O   UNL     1       1.549   3.266   6.188  0.00  0.00    -0.292 OA
ATOM     19  C   UNL     1       3.659   3.718   5.233  0.00  0.00    +0.091 C 
ENDBRANCH  11  17
ENDBRANCH   7   8
BRANCH   5  20
ATOM     20  C   UNL     1       1.987  -3.842   0.024  0.00  0.00    +0.215 C 
ATOM     21  O   UNL     1       1.537  -4.484   0.950  0.00  0.00    -0.276 OA
ATOM     22  N   UNL     1       2.630  -4.470  -0.981  0.00  0.00    -0.329 N 
ATOM     23  H   UNL     1       2.990  -3.957  -1.721  0.00  0.00    +0.145 HD
ATOM     24  H   UNL     1       2.734  -5.434  -0.963  0.00  0.00    +0.145 HD
ENDBRANCH   5  20
TORSDOF 4
