REMARK  Name = ZINC28661877
REMARK  9 active torsions:
REMARK  status: ('A' for Active; 'I' for Inactive)
REMARK    1  A    between atoms: C_1  and  C_2
REMARK    2  A    between atoms: C_2  and  C_3
REMARK    3  A    between atoms: C_3  and  C_5
REMARK    4  A    between atoms: C_3  and  C_6
REMARK    5  A    between atoms: C_6  and  C_8
REMARK    6  A    between atoms: C_6  and  N_26
REMARK    7  A    between atoms: N_10  and  N_11
REMARK    8  A    between atoms: C_12  and  C_14
REMARK    9  A    between atoms: C_17  and  C_19
REMARK                            x       y       z     vdW  Elec       q    Type
REMARK                         _______ _______ _______ _____ _____    ______ ____
ROOT
ATOM      1  C   UNL     1       2.202   0.141   1.086  0.00  0.00    +0.250 C 
ATOM      2  O   UNL     1       2.456   1.107   1.774  0.00  0.00    -0.272 OA
ATOM      3  N   UNL     1       3.133  -0.349   0.244  0.00  0.00    -0.233 N 
ATOM      4  H   UNL     1       2.903  -1.225  -0.381  0.00  0.00    +0.173 HD
ENDROOT
BRANCH   3   5
ATOM      5  N   UNL     1       4.394   0.257   0.163  0.00  0.00    -0.230 N 
ATOM      6  C   UNL     1       5.324  -0.234  -0.679  0.00  0.00    +0.267 C 
ATOM      7  O   UNL     1       5.070  -1.204  -1.370  0.00  0.00    -0.268 OA
ATOM      8  H   UNL     1       4.624   1.133   0.788  0.00  0.00    +0.173 HD
BRANCH   6   9
ATOM      9  C   UNL     1       6.643   0.399  -0.763  0.00  0.00    +0.076 A 
ATOM     10  C   UNL     1       7.729   0.050  -1.552  0.00  0.00    +0.021 A 
ATOM     11  C   UNL     1       8.869   0.797  -1.466  0.00  0.00    +0.017 A 
ATOM     12  C   UNL     1       8.900   1.868  -0.587  0.00  0.00    +0.020 A 
ATOM     13  S   UNL     1       7.266   1.814   0.129  0.00  0.00    -0.084 S 
BRANCH  12  14
ATOM     14  C   UNL     1      10.004   2.811  -0.312  0.00  0.00    -0.011 A 
ATOM     15  C   UNL     1      11.222   2.679  -0.982  0.00  0.00    +0.012 A 
ATOM     16  C   UNL     1      12.246   3.566  -0.725  0.00  0.00    +0.039 A 
ATOM     17  C   UNL     1      12.072   4.580   0.204  0.00  0.00    +0.123 A 
ATOM     18  C   UNL     1      10.867   4.712   0.875  0.00  0.00    +0.039 A 
ATOM     19  C   UNL     1       9.834   3.835   0.623  0.00  0.00    +0.012 A 
ATOM     20  F   UNL     1      13.081   5.442   0.456  0.00  0.00    -0.205 F 
ENDBRANCH  12  14
ENDBRANCH   6   9
ENDBRANCH   3   5
BRANCH   1  21
ATOM     21  C   UNL     1       0.846  -0.510   1.173  0.00  0.00    +0.165 C 
BRANCH  21  22
ATOM     22  N   UNL     1       0.205  -0.137   2.436  0.00  0.00    -0.288 N 
ATOM     23  C   UNL     1       0.519  -0.792   3.571  0.00  0.00    +0.298 C 
ATOM     24  O   UNL     1       1.267  -1.750   3.532  0.00  0.00    -0.253 OA
ATOM     25  N   UNL     1       0.005  -0.386   4.748  0.00  0.00    -0.313 N 
ATOM     26  H   UNL     1      -0.534   0.678   2.458  0.00  0.00    +0.151 HD
ATOM     27  H   UNL     1       0.262  -0.920   5.675  0.00  0.00    +0.146 HD
ATOM     28  H   UNL     1      -0.672   0.481   4.783  0.00  0.00    +0.146 HD
ENDBRANCH  21  22
BRANCH  21  29
ATOM     29  C   UNL     1      -0.021  -0.042   0.002  0.00  0.00    +0.015 C 
ATOM     30  C   UNL     1      -0.266   1.464   0.120  0.00  0.00    +0.010 C 
BRANCH  29  32
ATOM     31  C   UNL     1      -2.177  -0.404  -1.206  0.00  0.00    +0.004 C 
ATOM     32  C   UNL     1      -1.361  -0.780   0.032  0.00  0.00    +0.002 C 
ENDBRANCH  29  32
ENDBRANCH  21  29
ENDBRANCH   1  21
TORSDOF 7
