REMARK  Name = ZINC39413318
REMARK  5 active torsions:
REMARK  status: ('A' for Active; 'I' for Inactive)
REMARK    1  A    between atoms: C_5  and  N_7
REMARK    2  A    between atoms: C_13  and  N_19
REMARK    3  A    between atoms: N_19  and  C_20
REMARK    4  A    between atoms: C_20  and  C_21
REMARK    5  A    between atoms: C_26  and  C_27
REMARK                            x       y       z     vdW  Elec       q    Type
REMARK                         _______ _______ _______ _____ _____    ______ ____
ROOT
ATOM      1  N   UNL     1       1.237  -2.078  -0.022  0.00  0.00    -0.218 N 
ATOM      2  C   UNL     1       0.567  -2.965   0.961  0.00  0.00    +0.105 C 
ATOM      3  C   UNL     1       1.221  -2.737   2.309  0.00  0.00    +0.025 C 
ATOM      4  C   UNL     1       1.224  -3.983   3.183  0.00  0.00    +0.000 C 
ATOM      5  C   UNL     1       1.971  -5.091   2.428  0.00  0.00    -0.015 C 
ATOM      6  C   UNL     1       1.116  -5.489   1.229  0.00  0.00    -0.062 C 
ATOM      7  C   UNL     1       0.748  -4.333   0.344  0.00  0.00    +0.040 C 
ATOM      8  C   UNL     1       1.685  -4.129  -0.816  0.00  0.00    +0.107 C 
ATOM      9  N   UNL     1       1.889  -2.879  -0.960  0.00  0.00    -0.192 NA
ENDROOT
BRANCH   1  14
ATOM     10  C   UNL     1      -0.017   1.377   0.010  0.00  0.00    +0.002 A 
ATOM     11  C   UNL     1       1.170   2.087   0.002  0.00  0.00    +0.003 A 
ATOM     12  C   UNL     1       2.380   1.418  -0.013  0.00  0.00    +0.040 A 
ATOM     13  C   UNL     1       2.407   0.036  -0.022  0.00  0.00    +0.146 A 
ATOM     14  C   UNL     1       1.215  -0.681  -0.014  0.00  0.00    +0.087 A 
ATOM     15  C   UNL     1       0.002  -0.004   0.002  0.00  0.00    +0.028 A 
ATOM     16  F   UNL     1       3.590  -0.618  -0.038  0.00  0.00    -0.203 F 
ENDBRANCH   1  14
BRANCH   6  17
ATOM     17  N   UNL     1      -0.123  -6.109   1.718  0.00  0.00    +0.382 N 
ATOM     18  H   UNL     1      -0.584  -5.479   2.357  0.00  0.00    -0.085 HD
ATOM     19  H   UNL     1      -0.733  -6.302   0.937  0.00  0.00    -0.085 HD
BRANCH  17  20
ATOM     20  C   UNL     1       0.198  -7.364   2.411  0.00  0.00    -0.067 C 
BRANCH  20  21
ATOM     21  C   UNL     1      -1.093  -8.009   2.920  0.00  0.00    +0.066 C 
ATOM     22  C   UNL     1      -1.698  -7.184   4.038  0.00  0.00    +0.115 C 
ATOM     23  N   UNL     1      -1.711  -7.948   5.081  0.00  0.00    -0.161 NA
ATOM     24  N   UNL     1      -1.187  -9.211   4.823  0.00  0.00    -0.153 NA
ATOM     25  C   UNL     1      -0.799  -9.341   3.581  0.00  0.00    +0.077 C 
BRANCH  25  26
ATOM     26  C   UNL     1      -0.202 -10.531   2.954  0.00  0.00    -0.001 A 
ATOM     27  C   UNL     1       0.166 -10.504   1.605  0.00  0.00    +0.011 A 
ATOM     28  C   UNL     1       0.726 -11.622   1.024  0.00  0.00    +0.020 A 
ATOM     29  C   UNL     1       0.924 -12.770   1.773  0.00  0.00    +0.041 A 
ATOM     30  C   UNL     1       0.561 -12.804   3.110  0.00  0.00    +0.020 A 
ATOM     31  C   UNL     1       0.006 -11.692   3.705  0.00  0.00    +0.011 A 
ATOM     32 CL   UNL     1       1.629 -14.174   1.034  0.00  0.00    -0.084 Cl
ENDBRANCH  25  26
ENDBRANCH  20  21
ENDBRANCH  17  20
ENDBRANCH   6  17
TORSDOF 5
