REMARK  Name = ZINC40366395
REMARK  6 active torsions:
REMARK  status: ('A' for Active; 'I' for Inactive)
REMARK    1  A    between atoms: C_1  and  C_2
REMARK    2  A    between atoms: C_2  and  C_3
REMARK    3  A    between atoms: C_2  and  N_4
REMARK    4  A    between atoms: N_7  and  C_8
REMARK    5  A    between atoms: C_8  and  C_16
REMARK    6  A    between atoms: C_16  and  N_18
REMARK                            x       y       z     vdW  Elec       q    Type
REMARK                         _______ _______ _______ _____ _____    ______ ____
ROOT
ATOM      1  C   UNL     1      -3.100  -3.563  -0.989  0.00  0.00    +0.080 C 
ATOM      2  C   UNL     1      -2.446  -3.674  -2.363  0.00  0.00    +0.032 C 
ATOM      3  C   UNL     1      -3.437  -4.013  -3.477  0.00  0.00    +0.002 C 
ATOM      4  C   UNL     1      -3.764  -2.720  -4.248  0.00  0.00    +0.000 C 
ATOM      5  C   UNL     1      -4.664  -1.836  -3.390  0.00  0.00    +0.000 C 
ATOM      6  C   UNL     1      -5.768  -2.659  -2.740  0.00  0.00    +0.000 C 
ATOM      7  C   UNL     1      -5.515  -2.802  -1.243  0.00  0.00    +0.002 C 
ATOM      8  C   UNL     1      -4.563  -3.954  -0.955  0.00  0.00    +0.032 C 
ENDROOT
BRANCH   1  12
ATOM      9  N   UNL     1      -2.911  -0.699   1.313  0.00  0.00    -0.297 N 
ATOM     10  C   UNL     1      -3.187  -1.920   0.814  0.00  0.00    +0.301 C 
ATOM     11  O   UNL     1      -3.689  -2.769   1.525  0.00  0.00    -0.253 OA
ATOM     12  N   UNL     1      -2.907  -2.200  -0.475  0.00  0.00    -0.288 N 
ATOM     13  H   UNL     1      -2.510  -0.022   0.745  0.00  0.00    +0.150 HD
ATOM     14  H   UNL     1      -2.579  -1.502  -1.062  0.00  0.00    +0.151 HD
BRANCH   9  16
ATOM     15  C   UNL     1      -2.300   0.730   3.201  0.00  0.00    +0.027 C 
ATOM     16  C   UNL     1      -3.215  -0.395   2.713  0.00  0.00    +0.068 C 
ATOM     17  C   UNL     1      -4.675   0.048   2.833  0.00  0.00    +0.027 C 
ENDBRANCH   9  16
ENDBRANCH   1  12
BRANCH   1  18
ATOM     18  C   UNL     1      -2.346  -4.498  -0.052  0.00  0.00    +0.070 C 
ATOM     19  S   UNL     1      -3.034  -5.851   0.451  0.00  0.00    -0.038 S 
BRANCH  18  20
ATOM     20  N   UNL     1      -1.099  -4.185   0.353  0.00  0.00    -0.354 N 
ATOM     21  H   UNL     1      -0.654  -3.403  -0.008  0.00  0.00    +0.143 HD
ATOM     22  H   UNL     1      -0.647  -4.742   1.006  0.00  0.00    +0.143 HD
ENDBRANCH  18  20
ENDBRANCH   1  18
TORSDOF 4
