REMARK  Name = ZINC36271858
REMARK  6 active torsions:
REMARK  status: ('A' for Active; 'I' for Inactive)
REMARK    1  A    between atoms: C_1  and  C_2
REMARK    2  A    between atoms: C_7  and  C_31
REMARK    3  A    between atoms: N_9  and  C_10
REMARK    4  A    between atoms: C_10  and  C_11
REMARK    5  A    between atoms: C_12  and  C_21
REMARK    6  A    between atoms: C_17  and  N_20
REMARK                            x       y       z     vdW  Elec       q    Type
REMARK                         _______ _______ _______ _____ _____    ______ ____
ROOT
ATOM      1  C   UNL     1       2.680  -1.091   2.460  0.00  0.00    +0.035 A 
ATOM      2  C   UNL     1       3.135  -0.572   3.636  0.00  0.00    +0.091 A 
ATOM      3  N   UNL     1       3.925  -1.485   4.221  0.00  0.00    -0.228 NA
ATOM      4  C   UNL     1       3.983  -2.564   3.452  0.00  0.00    +0.138 A 
ATOM      5  N   UNL     1       3.207  -2.346   2.344  0.00  0.00    -0.303 N 
ATOM      6  C   UNL     1       3.086  -3.310   1.382  0.00  0.00    +0.115 A 
ATOM      7  C   UNL     1       3.728  -4.496   1.511  0.00  0.00    +0.041 A 
ATOM      8  C   UNL     1       4.529  -4.748   2.642  0.00  0.00    +0.028 A 
ATOM      9  C   UNL     1       4.662  -3.792   3.599  0.00  0.00    +0.048 A 
ENDROOT
BRANCH   2  10
ATOM     10  C   UNL     1       2.813   0.772   4.176  0.00  0.00    +0.006 A 
ATOM     11  C   UNL     1       2.787   1.878   3.322  0.00  0.00    +0.012 A 
ATOM     12  C   UNL     1       2.491   3.119   3.807  0.00  0.00    +0.032 A 
ATOM     13  C   UNL     1       2.213   3.290   5.165  0.00  0.00    +0.113 A 
ATOM     14  C   UNL     1       2.237   2.183   6.028  0.00  0.00    +0.160 A 
ATOM     15  C   UNL     1       2.532   0.927   5.530  0.00  0.00    +0.058 A 
ATOM     16  O   UNL     1       1.932   2.654   7.259  0.00  0.00    -0.406 OA
ATOM     17  C   UNL     1       1.729   3.979   7.163  0.00  0.00    +0.441 A 
ATOM     18  N   UNL     1       1.892   4.371   5.928  0.00  0.00    -0.172 NA
ATOM     19  O   UNL     1       1.405   4.789   8.196  0.00  0.00    -0.221 OA
ENDBRANCH   2  10
BRANCH   7  20
ATOM     20  N   UNL     1       3.593  -5.476   0.517  0.00  0.00    -0.357 N 
ATOM     21  H   UNL     1       3.042  -5.304  -0.262  0.00  0.00    +0.142 HD
ATOM     22  H   UNL     1       4.052  -6.325   0.609  0.00  0.00    +0.142 HD
ENDBRANCH   7  20
BRANCH   1  23
ATOM     23  C   UNL     1       1.762  -0.410   1.477  0.00  0.00    -0.021 C 
BRANCH  23  30
ATOM     24  C   UNL     1       0.052  -2.486   0.456  0.00  0.00    -0.013 C 
ATOM     25  C   UNL     1      -0.006  -1.974   1.896  0.00  0.00    -0.071 C 
ATOM     26  C   UNL     1      -1.428  -2.138   2.438  0.00  0.00    -0.016 C 
ATOM     27  C   UNL     1      -2.397  -1.332   1.568  0.00  0.00    -0.003 C 
ATOM     28  C   UNL     1      -1.950   0.133   1.546  0.00  0.00    -0.016 C 
ATOM     29  C   UNL     1      -0.509   0.213   1.037  0.00  0.00    -0.071 C 
ATOM     30  N   UNL     1       0.371  -0.555   1.925  0.00  0.00    +0.387 N 
ATOM     31  C   UNL     1      -0.058   1.675   1.013  0.00  0.00    -0.013 C 
ATOM     32  H   UNL     1       0.284  -0.205   2.867  0.00  0.00    -0.081 HD
ENDBRANCH  23  30
ENDBRANCH   1  23
TORSDOF 4
