REMARK  Name = ZINC09297962
REMARK  5 active torsions:
REMARK  status: ('A' for Active; 'I' for Inactive)
REMARK    1  A    between atoms: C_1  and  O_2
REMARK    2  A    between atoms: O_2  and  C_3
REMARK    3  A    between atoms: C_6  and  C_8
REMARK    4  A    between atoms: C_12  and  N_13
REMARK    5  A    between atoms: C_14  and  C_16
REMARK                            x       y       z     vdW  Elec       q    Type
REMARK                         _______ _______ _______ _____ _____    ______ ____
ROOT
ATOM      1  C   UNL     1       3.637   1.754  -0.029  0.00  0.00    +0.069 A 
ATOM      2  C   UNL     1       4.747   0.817  -0.038  0.00  0.00    -0.023 A 
ATOM      3  C   UNL     1       4.399  -0.487  -0.043  0.00  0.00    -0.004 A 
ATOM      4  S   UNL     1       2.629  -0.484  -0.026  0.00  0.00    -0.077 S 
ATOM      5  C   UNL     1       2.352   1.226  -0.014  0.00  0.00    +0.085 A 
ATOM      6  C   UNL     1       5.321  -1.668  -0.059  0.00  0.00    +0.043 C 
ATOM      7  C   UNL     1       6.724  -1.181  -0.448  0.00  0.00    +0.005 C 
ATOM      8  C   UNL     1       7.069   0.052   0.393  0.00  0.00    +0.005 C 
ATOM      9  C   UNL     1       6.212   1.239  -0.049  0.00  0.00    +0.037 C 
ENDROOT
BRANCH   1  13
ATOM     10  C   UNL     1       4.161   5.199  -1.201  0.00  0.00    +0.407 C 
ATOM     11  O   UNL     1       4.268   5.799  -0.150  0.00  0.00    -0.226 OA
ATOM     12  N   UNL     1       3.953   3.868  -1.199  0.00  0.00    -0.217 N 
ATOM     13  C   UNL     1       3.863   3.201  -0.031  0.00  0.00    +0.255 C 
ATOM     14  O   UNL     1       3.970   3.802   1.022  0.00  0.00    -0.270 OA
ATOM     15  H   UNL     1       3.868   3.389  -2.038  0.00  0.00    +0.161 HD
BRANCH  10  17
ATOM     16  C   UNL     1       4.476   7.297  -2.294  0.00  0.00    +0.282 C 
ATOM     17  O   UNL     1       4.251   5.865  -2.368  0.00  0.00    -0.453 OA
ENDBRANCH  10  17
ENDBRANCH   1  13
BRANCH   5  18
ATOM     18  N   UNL     1       1.143   1.902   0.001  0.00  0.00    -0.275 N 
ATOM     19  C   UNL     1      -0.014   1.212   0.009  0.00  0.00    +0.251 C 
ATOM     20  O   UNL     1       0.002  -0.004   0.002  0.00  0.00    -0.270 OA
ATOM     21  H   UNL     1       1.130   2.872   0.007  0.00  0.00    +0.156 HD
BRANCH  19  22
ATOM     22  C   UNL     1      -1.297   1.930   0.019  0.00  0.00    +0.064 A 
ATOM     23  C   UNL     1      -1.355   3.372   0.032  0.00  0.00    +0.042 A 
ATOM     24  C   UNL     1      -2.579   3.936   0.035  0.00  0.00    +0.080 A 
ATOM     25  S   UNL     1      -3.673   2.531   0.033  0.00  0.00    -0.064 S 
ATOM     26  C   UNL     1      -2.502   1.255   0.021  0.00  0.00    +0.091 A 
ATOM     27 CL   UNL     1      -2.777  -0.460   0.013  0.00  0.00    -0.075 Cl
ATOM     28 CL   UNL     1      -2.989   5.623   0.046  0.00  0.00    -0.076 Cl
ENDBRANCH  19  22
ENDBRANCH   5  18
TORSDOF 4
