REMARK  Name = ZINC16400168
REMARK  10 active torsions:
REMARK  status: ('A' for Active; 'I' for Inactive)
REMARK    1  A    between atoms: C_1  and  C_2
REMARK    2  A    between atoms: C_2  and  O_3
REMARK    3  A    between atoms: O_3  and  C_4
REMARK    4  A    between atoms: C_4  and  C_6
REMARK    5  A    between atoms: C_7  and  C_28
REMARK    6  A    between atoms: C_10  and  N_11
REMARK    7  A    between atoms: C_12  and  C_14
REMARK    8  A    between atoms: C_14  and  N_15
REMARK    9  A    between atoms: C_18  and  C_22
REMARK   10  A    between atoms: C_18  and  C_23
REMARK                            x       y       z     vdW  Elec       q    Type
REMARK                         _______ _______ _______ _____ _____    ______ ____
ROOT
ATOM      1  N   UNL     1       3.744  -2.428   1.400  0.00  0.00    -0.278 N 
ATOM      2  C   UNL     1       5.047  -2.740   1.552  0.00  0.00    +0.236 C 
ATOM      3  O   UNL     1       5.442  -3.197   2.604  0.00  0.00    -0.274 OA
ATOM      4  H   UNL     1       3.428  -2.062   0.559  0.00  0.00    +0.155 HD
ENDROOT
BRANCH   1   9
ATOM      5  C   UNL     1       1.496  -2.370   2.466  0.00  0.00    +0.095 A 
ATOM      6  C   UNL     1       0.794  -2.684   3.698  0.00  0.00    +0.005 A 
ATOM      7  C   UNL     1       1.563  -3.194   4.694  0.00  0.00    +0.056 A 
ATOM      8  S   UNL     1       3.188  -3.244   3.971  0.00  0.00    -0.080 S 
ATOM      9  C   UNL     1       2.857  -2.631   2.445  0.00  0.00    +0.086 A 
BRANCH   6  10
ATOM     10  C   UNL     1      -0.663  -2.461   3.858  0.00  0.00    -0.017 A 
ATOM     11  C   UNL     1      -1.225  -1.233   3.514  0.00  0.00    +0.008 A 
ATOM     12  C   UNL     1      -2.582  -1.032   3.664  0.00  0.00    +0.001 A 
ATOM     13  C   UNL     1      -3.384  -2.046   4.156  0.00  0.00    +0.000 A 
ATOM     14  C   UNL     1      -2.832  -3.267   4.499  0.00  0.00    +0.001 A 
ATOM     15  C   UNL     1      -1.477  -3.482   4.347  0.00  0.00    +0.008 A 
ENDBRANCH   6  10
BRANCH   5  16
ATOM     16  C   UNL     1       0.801  -1.814   1.305  0.00  0.00    +0.342 C 
ATOM     17  O   UNL     1       0.321  -2.557   0.470  0.00  0.00    -0.245 OA
BRANCH  16  18
ATOM     18  O   UNL     1       0.693  -0.477   1.160  0.00  0.00    -0.461 OA
BRANCH  18  20
ATOM     19  C   UNL     1      -0.019   1.526   0.010  0.00  0.00    +0.048 C 
ATOM     20  C   UNL     1       0.002  -0.004   0.002  0.00  0.00    +0.229 C 
ENDBRANCH  18  20
ENDBRANCH  16  18
ENDBRANCH   5  16
ENDBRANCH   1   9
BRANCH   2  21
ATOM     21  C   UNL     1       6.012  -2.519   0.416  0.00  0.00    +0.214 C 
BRANCH  21  22
ATOM     22  N   UNL     1       7.355  -2.933   0.829  0.00  0.00    -0.215 N 
ATOM     23  C   UNL     1       8.251  -2.117   1.420  0.00  0.00    +0.254 C 
ATOM     24  O   UNL     1       8.102  -0.947   1.699  0.00  0.00    -0.272 OA
ATOM     25  C   UNL     1       9.482  -2.967   1.664  0.00  0.00    +0.168 C 
ATOM     26  N   UNL     1       9.101  -4.288   1.132  0.00  0.00    -0.279 N 
ATOM     27  C   UNL     1       7.843  -4.169   0.672  0.00  0.00    +0.310 C 
ATOM     28  O   UNL     1       7.219  -5.082   0.167  0.00  0.00    -0.252 OA
ATOM     29  C   UNL     1      10.683  -2.406   0.901  0.00  0.00    +0.050 C 
ATOM     30  H   UNL     1       9.650  -5.087   1.119  0.00  0.00    +0.152 HD
BRANCH  25  31
ATOM     31  C   UNL     1       9.782  -3.056   3.138  0.00  0.00    +0.137 A 
ATOM     32  C   UNL     1      10.378  -4.090   3.759  0.00  0.00    +0.047 A 
ATOM     33  C   UNL     1      10.459  -3.752   5.129  0.00  0.00    +0.041 A 
ATOM     34  C   UNL     1       9.908  -2.533   5.264  0.00  0.00    +0.195 A 
ATOM     35  O   UNL     1       9.504  -2.114   4.054  0.00  0.00    -0.465 OA
ENDBRANCH  25  31
ENDBRANCH  21  22
ENDBRANCH   2  21
TORSDOF 8
