REMARK  Name = ZINC12338907
REMARK  6 active torsions:
REMARK  status: ('A' for Active; 'I' for Inactive)
REMARK    1  A    between atoms: C_1  and  C_2
REMARK    2  A    between atoms: C_5  and  C_27
REMARK    3  A    between atoms: N_14  and  C_15
REMARK    4  A    between atoms: C_15  and  C_16
REMARK    5  A    between atoms: C_16  and  C_18
REMARK    6  A    between atoms: N_25  and  C_26
REMARK                            x       y       z     vdW  Elec       q    Type
REMARK                         _______ _______ _______ _____ _____    ______ ____
ROOT
ATOM      1  C   UNL     1      -1.978  -1.872  -1.201  0.00  0.00    +0.009 C 
ATOM      2  C   UNL     1      -1.292  -2.369   0.073  0.00  0.00    +0.004 C 
ATOM      3  C   UNL     1      -2.056  -1.858   1.297  0.00  0.00    +0.009 C 
ATOM      4  C   UNL     1      -1.391  -2.381   2.572  0.00  0.00    +0.004 C 
ATOM      5  C   UNL     1       0.046  -1.857   2.645  0.00  0.00    +0.111 C 
ATOM      6  N   UNL     1       0.747  -2.221   1.406  0.00  0.00    -0.300 N 
ATOM      7  C   UNL     1       0.146  -1.845   0.118  0.00  0.00    +0.111 C 
ATOM      8  C   UNL     1       1.942  -2.901   1.450  0.00  0.00    +0.201 A 
ATOM      9  N   UNL     1       2.071  -4.207   1.564  0.00  0.00    -0.196 NA
ATOM     10  C   UNL     1       3.364  -4.537   1.576  0.00  0.00    +0.170 A 
ATOM     11  C   UNL     1       4.098  -3.362   1.461  0.00  0.00    +0.153 A 
ATOM     12  N   UNL     1       3.173  -2.330   1.376  0.00  0.00    -0.302 N 
ATOM     13  C   UNL     1       5.503  -3.429   1.447  0.00  0.00    +0.280 A 
ATOM     14  O   UNL     1       6.167  -2.412   1.347  0.00  0.00    -0.265 OA
ATOM     15  N   UNL     1       6.107  -4.631   1.546  0.00  0.00    -0.273 N 
ATOM     16  H   UNL     1       7.076  -4.680   1.537  0.00  0.00    +0.173 HD
ATOM     17  C   UNL     1       5.388  -5.761   1.657  0.00  0.00    +0.331 A 
ATOM     18  O   UNL     1       5.967  -6.826   1.744  0.00  0.00    -0.246 OA
ATOM     19  N   UNL     1       4.042  -5.742   1.673  0.00  0.00    -0.280 N 
ATOM     20  C   UNL     1       3.294  -6.995   1.796  0.00  0.00    +0.155 C 
ATOM     21  C   UNL     1      -2.175  -1.897   3.793  0.00  0.00    +0.009 C 
ENDROOT
BRANCH  12  22
ATOM     22  C   UNL     1       3.468  -0.901   1.237  0.00  0.00    +0.155 C 
BRANCH  22  23
ATOM     23  C   UNL     1       3.700  -0.301   2.599  0.00  0.00    -0.060 C 
ATOM     24  C   UNL     1       4.919  -0.194   3.068  0.00  0.00    +0.009 C 
ATOM     25  C   UNL     1       2.531   0.174   3.423  0.00  0.00    +0.040 C 
ENDBRANCH  22  23
ENDBRANCH  12  22
TORSDOF 2
