REMARK  Name = ZINC40970995
REMARK  8 active torsions:
REMARK  status: ('A' for Active; 'I' for Inactive)
REMARK    1  A    between atoms: C_1  and  C_2
REMARK    2  A    between atoms: C_2  and  C_3
REMARK    3  A    between atoms: C_3  and  O_4
REMARK    4  A    between atoms: O_4  and  C_5
REMARK    5  A    between atoms: C_8  and  C_11
REMARK    6  A    between atoms: C_12  and  C_13
REMARK    7  A    between atoms: C_19  and  C_26
REMARK    8  A    between atoms: C_20  and  C_25
REMARK                            x       y       z     vdW  Elec       q    Type
REMARK                         _______ _______ _______ _____ _____    ______ ____
ROOT
ATOM      1  C   UNL     1      -8.001  -6.381  -0.594  0.00  0.00    +0.243 C 
ATOM      2  O   UNL     1      -9.072  -5.818  -0.728  0.00  0.00    -0.270 OA
ATOM      3  N   UNL     1      -7.963  -7.707  -0.354  0.00  0.00    -0.261 N 
ATOM      4  C   UNL     1      -9.140  -8.428  -0.260  0.00  0.00    +0.166 A 
ATOM      5  N   UNL     1      -9.305  -9.710  -0.029  0.00  0.00    -0.224 NA
ATOM      6  C   UNL     1     -10.525 -10.284   0.037  0.00  0.00    +0.083 A 
ATOM      7  C   UNL     1     -10.839 -11.642   0.277  0.00  0.00    -0.021 A 
ATOM      8  C   UNL     1     -12.143 -12.064   0.310  0.00  0.00    -0.045 A 
ATOM      9  C   UNL     1     -13.195 -11.182   0.112  0.00  0.00    +0.005 A 
ATOM     10  C   UNL     1     -12.925  -9.847  -0.125  0.00  0.00    +0.017 A 
ATOM     11  C   UNL     1     -11.623  -9.415  -0.161  0.00  0.00    +0.041 A 
ATOM     12  S   UNL     1     -10.824  -7.849  -0.415  0.00  0.00    -0.052 S 
ATOM     13  C   UNL     1     -12.439 -13.519   0.568  0.00  0.00    +0.044 C 
ATOM     14  C   UNL     1      -9.728 -12.636   0.498  0.00  0.00    +0.046 C 
ATOM     15  H   UNL     1      -7.109  -8.156  -0.247  0.00  0.00    +0.157 HD
ENDROOT
BRANCH   1  17
ATOM     16  C   UNL     1      -6.796  -4.292  -0.934  0.00  0.00    +0.013 C 
ATOM     17  C   UNL     1      -6.757  -5.620  -0.693  0.00  0.00    +0.068 C 
BRANCH  16  21
ATOM     18  C   UNL     1      -3.186  -2.083  -1.220  0.00  0.00    +0.121 A 
ATOM     19  C   UNL     1      -4.408  -1.437  -1.375  0.00  0.00    +0.046 A 
ATOM     20  C   UNL     1      -5.582  -2.150  -1.283  0.00  0.00    +0.011 A 
ATOM     21  C   UNL     1      -5.545  -3.527  -1.033  0.00  0.00    -0.025 A 
ATOM     22  C   UNL     1      -4.312  -4.172  -0.879  0.00  0.00    +0.011 A 
ATOM     23  C   UNL     1      -3.143  -3.451  -0.978  0.00  0.00    +0.046 A 
BRANCH  18  24
ATOM     24  O   UNL     1      -2.031  -1.376  -1.312  0.00  0.00    -0.492 OA
BRANCH  24  25
ATOM     25  C   UNL     1      -2.147   0.026  -1.563  0.00  0.00    +0.229 C 
BRANCH  25  27
ATOM     26  C   UNL     1      -0.875   2.149  -1.901  0.00  0.00    +0.007 C 
ATOM     27  C   UNL     1      -0.751   0.648  -1.633  0.00  0.00    +0.038 C 
ENDBRANCH  25  27
ENDBRANCH  24  25
ENDBRANCH  18  24
ENDBRANCH  16  21
ENDBRANCH   1  17
TORSDOF 5
