REMARK  Name = ZINC12408442
REMARK  6 active torsions:
REMARK  status: ('A' for Active; 'I' for Inactive)
REMARK    1  A    between atoms: C_3  and  O_27
REMARK    2  A    between atoms: C_6  and  C_7
REMARK    3  A    between atoms: C_7  and  C_8
REMARK    4  A    between atoms: C_8  and  N_9
REMARK    5  A    between atoms: C_10  and  C_12
REMARK    6  A    between atoms: C_14  and  C_17
REMARK                            x       y       z     vdW  Elec       q    Type
REMARK                         _______ _______ _______ _____ _____    ______ ____
ROOT
ATOM      1  C   UNL     1       4.547   0.614  -0.040  0.00  0.00    +0.314 A 
ATOM      2  N   UNL     1       3.701   1.622  -0.031  0.00  0.00    -0.183 NA
ATOM      3  C   UNL     1       2.473   1.065  -0.016  0.00  0.00    +0.203 A 
ATOM      4  N   UNL     1       2.634  -0.235  -0.026  0.00  0.00    -0.055 NA
ATOM      5  O   UNL     1       3.815  -0.511  -0.039  0.00  0.00    -0.328 OA
ENDROOT
BRANCH   3   6
ATOM      6  C   UNL     1       1.179   1.790   0.000  0.00  0.00    +0.024 A 
ATOM      7  C   UNL     1       1.166   3.189   0.008  0.00  0.00    +0.012 A 
ATOM      8  C   UNL     1      -0.016   3.868   0.024  0.00  0.00    +0.011 A 
ATOM      9  C   UNL     1      -1.224   3.165   0.031  0.00  0.00    -0.000 A 
ATOM     10  C   UNL     1      -2.632   3.567   0.047  0.00  0.00    +0.027 A 
ATOM     11  C   UNL     1      -3.363   2.440   0.048  0.00  0.00    +0.083 A 
ATOM     12  N   UNL     1      -2.538   1.349   0.034  0.00  0.00    -0.361 N 
ATOM     13  H   UNL     1      -2.836   0.425   0.031  0.00  0.00    +0.165 HD
ATOM     14  C   UNL     1      -1.223   1.757   0.017  0.00  0.00    +0.047 A 
ATOM     15  C   UNL     1      -0.013   1.076   0.008  0.00  0.00    +0.038 A 
ENDBRANCH   3   6
BRANCH   1  17
ATOM     16  N   UNL     1       6.770  -0.421  -0.068  0.00  0.00    -0.307 N 
ATOM     17  C   UNL     1       6.027   0.703  -0.054  0.00  0.00    +0.302 C 
ATOM     18  O   UNL     1       6.570   1.790  -0.053  0.00  0.00    -0.265 OA
ATOM     19  H   UNL     1       6.336  -1.289  -0.068  0.00  0.00    +0.149 HD
BRANCH  16  20
ATOM     20  C   UNL     1       8.232  -0.333  -0.082  0.00  0.00    +0.109 C 
BRANCH  20  21
ATOM     21  C   UNL     1       8.828  -1.742  -0.096  0.00  0.00    +0.054 C 
BRANCH  21  27
ATOM     22  C   UNL     1      11.010  -1.608  -1.315  0.00  0.00    +0.007 A 
ATOM     23  C   UNL     1      12.388  -1.519  -1.331  0.00  0.00    +0.045 A 
ATOM     24  C   UNL     1      13.094  -1.484  -0.137  0.00  0.00    +0.117 A 
ATOM     25  C   UNL     1      12.412  -1.533   1.071  0.00  0.00    +0.045 A 
ATOM     26  C   UNL     1      11.033  -1.616   1.081  0.00  0.00    +0.007 A 
ATOM     27  C   UNL     1      10.332  -1.651  -0.110  0.00  0.00    -0.046 A 
BRANCH  24  28
ATOM     28  O   UNL     1      14.450  -1.402  -0.149  0.00  0.00    -0.507 OA
ATOM     29  H   UNL     1      14.896  -2.260  -0.159  0.00  0.00    +0.292 HD
ENDBRANCH  24  28
ENDBRANCH  21  27
ENDBRANCH  20  21
ENDBRANCH  16  20
ENDBRANCH   1  17
TORSDOF 6
