REMARK  Name = ZINC13985463
REMARK  8 active torsions:
REMARK  status: ('A' for Active; 'I' for Inactive)
REMARK    1  A    between atoms: C_1  and  C_2
REMARK    2  A    between atoms: C_5  and  C_8
REMARK    3  A    between atoms: N_10  and  C_11
REMARK    4  A    between atoms: C_11  and  N_13
REMARK    5  A    between atoms: N_13  and  N_14
REMARK    6  A    between atoms: C_15  and  C_17
REMARK    7  A    between atoms: C_17  and  N_18
REMARK    8  A    between atoms: C_19  and  C_21
REMARK                            x       y       z     vdW  Elec       q    Type
REMARK                         _______ _______ _______ _____ _____    ______ ____
ROOT
ATOM      1  N   UNL     1       3.478   1.933  -0.021  0.00  0.00    -0.245 N 
ATOM      2  H   UNL     1       4.324   1.459  -0.031  0.00  0.00    +0.172 HD
ENDROOT
BRANCH   1   3
ATOM      3  N   UNL     1       3.459   3.333  -0.013  0.00  0.00    -0.234 N 
ATOM      4  C   UNL     1       4.617   4.023  -0.020  0.00  0.00    +0.246 C 
ATOM      5  O   UNL     1       5.675   3.431  -0.034  0.00  0.00    -0.273 OA
ATOM      6  H   UNL     1       2.612   3.807  -0.002  0.00  0.00    +0.173 HD
BRANCH   4   7
ATOM      7  C   UNL     1       4.596   5.530  -0.012  0.00  0.00    +0.201 C 
BRANCH   7   8
ATOM      8  N   UNL     1       5.970   6.037  -0.022  0.00  0.00    -0.306 N 
ATOM      9  C   UNL     1       6.199   7.365  -0.018  0.00  0.00    +0.217 C 
ATOM     10  O   UNL     1       5.266   8.141  -0.004  0.00  0.00    -0.276 OA
ATOM     11  H   UNL     1       6.716   5.417  -0.033  0.00  0.00    +0.149 HD
BRANCH   9  12
ATOM     12  C   UNL     1       7.612   7.887  -0.028  0.00  0.00    +0.075 C 
ATOM     13  C   UNL     1       8.352   7.380   1.211  0.00  0.00    +0.013 C 
ATOM     14  C   UNL     1       9.788   7.910   1.200  0.00  0.00    +0.001 C 
ATOM     15  C   UNL     1       9.767   9.440   1.209  0.00  0.00    +0.000 C 
ATOM     16  C   UNL     1       9.027   9.946  -0.031  0.00  0.00    +0.001 C 
ATOM     17  C   UNL     1       7.592   9.417  -0.020  0.00  0.00    +0.013 C 
ENDBRANCH   9  12
ENDBRANCH   7   8
ENDBRANCH   4   7
ENDBRANCH   1   3
BRANCH   1  18
ATOM     18  C   UNL     1       2.320   1.243  -0.013  0.00  0.00    +0.153 C 
ATOM     19  S   UNL     1       2.343  -0.469  -0.023  0.00  0.00    -0.017 S 
BRANCH  18  22
ATOM     20  C   UNL     1      -0.014   1.211   0.009  0.00  0.00    +0.250 C 
ATOM     21  O   UNL     1       0.002  -0.004   0.002  0.00  0.00    -0.270 OA
ATOM     22  N   UNL     1       1.143   1.901   0.001  0.00  0.00    -0.263 N 
ATOM     23  H   UNL     1       1.130   2.871   0.007  0.00  0.00    +0.157 HD
BRANCH  20  28
ATOM     24  C   UNL     1      -5.036   4.020   0.049  0.00  0.00    +0.044 C 
ATOM     25  C   UNL     1      -3.721   3.284   0.038  0.00  0.00    -0.050 A 
ATOM     26  C   UNL     1      -3.706   1.901   0.030  0.00  0.00    +0.004 A 
ATOM     27  C   UNL     1      -2.505   1.221   0.021  0.00  0.00    +0.013 A 
ATOM     28  C   UNL     1      -1.304   1.932   0.019  0.00  0.00    +0.037 A 
ATOM     29  C   UNL     1      -1.327   3.328   0.032  0.00  0.00    +0.013 A 
ATOM     30  C   UNL     1      -2.534   3.995   0.036  0.00  0.00    +0.004 A 
ENDBRANCH  20  28
ENDBRANCH  18  22
ENDBRANCH   1  18
TORSDOF 7
