REMARK  Name = ZINC07783342
REMARK  5 active torsions:
REMARK  status: ('A' for Active; 'I' for Inactive)
REMARK    1  A    between atoms: C_1  and  C_2
REMARK    2  A    between atoms: C_4  and  N_23
REMARK    3  A    between atoms: C_7  and  N_8
REMARK    4  A    between atoms: C_9  and  C_11
REMARK    5  A    between atoms: C_11  and  N_12
REMARK                            x       y       z     vdW  Elec       q    Type
REMARK                         _______ _______ _______ _____ _____    ______ ____
ROOT
ATOM      1  N   UNL     1      -5.276   2.161   1.732  0.00  0.00    -0.284 N 
ATOM      2  C   UNL     1      -4.129   2.821   1.477  0.00  0.00    +0.237 C 
ATOM      3  O   UNL     1      -3.441   3.218   2.393  0.00  0.00    -0.274 OA
ATOM      4  H   UNL     1      -5.866   1.914   1.002  0.00  0.00    +0.155 HD
ENDROOT
BRANCH   1  11
ATOM      5  C   UNL     1      -8.027   1.794   2.359  0.00  0.00    +0.046 C 
ATOM      6  C   UNL     1      -6.946   1.643   3.398  0.00  0.00    -0.027 A 
ATOM      7  C   UNL     1      -7.277   1.312   4.697  0.00  0.00    +0.038 A 
ATOM      8  C   UNL     1      -6.286   1.178   5.652  0.00  0.00    +0.127 A 
ATOM      9  C   UNL     1      -4.960   1.369   5.308  0.00  0.00    +0.034 A 
ATOM     10  C   UNL     1      -4.622   1.695   4.010  0.00  0.00    +0.026 A 
ATOM     11  C   UNL     1      -5.615   1.830   3.048  0.00  0.00    +0.036 A 
BRANCH   8  12
ATOM     12  N   UNL     1      -6.645   0.829   7.045  0.00  0.00    +0.056 N 
ATOM     13  O   UNL     1      -5.773   0.711   7.887  0.00  0.00    -0.126 OA
ATOM     14  O   UNL     1      -7.812   0.661   7.349  0.00  0.00    -0.126 OA
ENDBRANCH   8  12
ENDBRANCH   1  11
BRANCH   2  15
ATOM     15  C   UNL     1      -3.702   3.068   0.053  0.00  0.00    +0.221 C 
BRANCH  15  16
ATOM     16  N   UNL     1      -2.433   3.799   0.043  0.00  0.00    -0.297 N 
ATOM     17  C   UNL     1      -1.231   3.119   0.038  0.00  0.00    +0.071 A 
ATOM     18  C   UNL     1      -1.212   1.727   0.036  0.00  0.00    +0.028 A 
ATOM     19  C   UNL     1      -0.007   1.059   0.036  0.00  0.00    +0.002 A 
ATOM     20  C   UNL     1       1.190   1.763   0.028  0.00  0.00    +0.002 A 
ATOM     21  C   UNL     1       1.195   3.127   0.025  0.00  0.00    +0.030 A 
ATOM     22  C   UNL     1      -0.018   3.833   0.030  0.00  0.00    +0.088 A 
ATOM     23  N   UNL     1      -0.017   5.180   0.026  0.00  0.00    -0.248 NA
ATOM     24  C   UNL     1      -1.131   5.853   0.030  0.00  0.00    +0.181 A 
ATOM     25  C   UNL     1      -2.419   5.150   0.039  0.00  0.00    +0.270 A 
ATOM     26  O   UNL     1      -3.463   5.777   0.043  0.00  0.00    -0.266 OA
ENDBRANCH  15  16
ENDBRANCH   2  15
TORSDOF 4
