REMARK  Name = ZINC22833613
REMARK  6 active torsions:
REMARK  status: ('A' for Active; 'I' for Inactive)
REMARK    1  A    between atoms: C_1  and  C_2
REMARK    2  A    between atoms: C_2  and  O_3
REMARK    3  A    between atoms: O_3  and  C_4
REMARK    4  A    between atoms: C_4  and  C_6
REMARK    5  A    between atoms: C_7  and  N_34
REMARK    6  A    between atoms: C_25  and  C_28
REMARK                            x       y       z     vdW  Elec       q    Type
REMARK                         _______ _______ _______ _____ _____    ______ ____
ROOT
ATOM      1  C   UNL     1      -0.633   5.895  -1.292  0.00  0.00    +0.117 C 
ATOM      2  C   UNL     1      -1.617   6.787  -0.998  0.00  0.00    +0.195 C 
ATOM      3  O   UNL     1      -1.989   7.019   0.269  0.00  0.00    -0.446 OA
ATOM      4  C   UNL     1      -1.153   6.729   1.284  0.00  0.00    +0.116 C 
ATOM      5  C   UNL     1      -0.154   5.839   1.135  0.00  0.00    +0.057 C 
ATOM      6  C   UNL     1       0.065   5.154  -0.190  0.00  0.00    +0.141 C 
ATOM      7  C   UNL     1      -0.386   3.727  -0.132  0.00  0.00    -0.001 A 
ATOM      8  C   UNL     1      -1.625   3.170   0.098  0.00  0.00    +0.022 A 
ATOM      9  C   UNL     1      -1.706   1.781   0.077  0.00  0.00    +0.018 A 
ATOM     10  C   UNL     1      -0.591   1.000  -0.153  0.00  0.00    +0.017 A 
ATOM     11  C   UNL     1       0.658   1.554  -0.385  0.00  0.00    +0.025 A 
ATOM     12  C   UNL     1       0.751   2.946  -0.371  0.00  0.00    +0.038 A 
ATOM     13  N   UNL     1       1.857   3.754  -0.569  0.00  0.00    -0.284 N 
ATOM     14  C   UNL     1       1.549   5.065  -0.481  0.00  0.00    +0.237 C 
ATOM     15  O   UNL     1       2.315   5.996  -0.610  0.00  0.00    -0.274 OA
ATOM     16 BR   UNL     1      -3.376   0.946   0.378  0.00  0.00    -0.050 Br
ATOM     17  C   UNL     1       0.710   5.523   2.201  0.00  0.00    +0.165 C 
ATOM     18  O   UNL     1       1.607   4.723   2.025  0.00  0.00    -0.292 OA
ATOM     19  C   UNL     1       0.541   6.158   3.555  0.00  0.00    +0.088 C 
ATOM     20  C   UNL     1      -0.933   6.525   3.751  0.00  0.00    +0.034 C 
ATOM     21  C   UNL     1      -1.364   7.437   2.601  0.00  0.00    +0.083 C 
ATOM     22  H   UNL     1       2.840   3.303  -0.770  0.00  0.00    +0.155 HD
ENDROOT
BRANCH  20  23
ATOM     23  C   UNL     1      -1.105   7.247   5.062  0.00  0.00    -0.043 A 
ATOM     24  C   UNL     1      -0.414   8.421   5.300  0.00  0.00    +0.004 A 
ATOM     25  C   UNL     1      -0.575   9.087   6.501  0.00  0.00    +0.000 A 
ATOM     26  C   UNL     1      -1.419   8.573   7.468  0.00  0.00    +0.000 A 
ATOM     27  C   UNL     1      -2.105   7.396   7.232  0.00  0.00    +0.000 A 
ATOM     28  C   UNL     1      -1.948   6.734   6.030  0.00  0.00    +0.004 A 
ENDBRANCH  20  23
BRANCH   2  29
ATOM     29  N   UNL     1      -2.239   7.460  -2.015  0.00  0.00    -0.329 N 
ATOM     30  H   UNL     1      -3.036   8.183  -1.789  0.00  0.00    +0.145 HD
ATOM     31  H   UNL     1      -1.942   7.277  -3.058  0.00  0.00    +0.145 HD
ENDBRANCH   2  29
BRANCH   1  32
ATOM     32  C   UNL     1      -0.270   5.668  -2.628  0.00  0.00    +0.342 C 
ATOM     33  O   UNL     1      -0.905   6.187  -3.529  0.00  0.00    -0.245 OA
BRANCH  32  34
ATOM     34  O   UNL     1       0.785   4.876  -2.916  0.00  0.00    -0.462 OA
BRANCH  34  36
ATOM     35  C   UNL     1       2.314   3.768  -4.425  0.00  0.00    +0.048 C 
ATOM     36  C   UNL     1       1.099   4.689  -4.298  0.00  0.00    +0.229 C 
ENDBRANCH  34  36
ENDBRANCH  32  34
ENDBRANCH   1  32
TORSDOF 5
