REMARK  Name = ZINC39603986
REMARK  9 active torsions:
REMARK  status: ('A' for Active; 'I' for Inactive)
REMARK    1  A    between atoms: C_1  and  C_2
REMARK    2  A    between atoms: C_2  and  O_3
REMARK    3  A    between atoms: O_3  and  C_4
REMARK    4  A    between atoms: C_4  and  C_6
REMARK    5  A    between atoms: C_6  and  C_7
REMARK    6  A    between atoms: C_7  and  N_8
REMARK    7  A    between atoms: C_9  and  C_11
REMARK    8  A    between atoms: C_22  and  C_24
REMARK    9  A    between atoms: C_26  and  C_31
REMARK                            x       y       z     vdW  Elec       q    Type
REMARK                         _______ _______ _______ _____ _____    ______ ____
ROOT
ATOM      1  C   UNL     1       2.233  -6.325  -5.012  0.00  0.00    +0.100 C 
ATOM      2  C   UNL     1       1.729  -5.984  -6.432  0.00  0.00    +0.121 C 
ATOM      3  N   UNL     1       1.971  -7.215  -7.221  0.00  0.00    -0.296 N 
ATOM      4  C   UNL     1       1.625  -8.320  -6.296  0.00  0.00    +0.115 C 
ATOM      5  C   UNL     1       2.163  -7.859  -4.926  0.00  0.00    -0.004 C 
ATOM      6  C   UNL     1       1.208  -8.283  -3.815  0.00  0.00    -0.010 C 
ATOM      7  C   UNL     1       1.199  -9.811  -3.710  0.00  0.00    -0.082 C 
ATOM      8  N   UNL     1       2.557 -10.291  -3.425  0.00  0.00    +0.379 N 
ATOM      9  C   UNL     1       3.450  -9.960  -4.543  0.00  0.00    -0.082 C 
ATOM     10  C   UNL     1       3.553  -8.439  -4.682  0.00  0.00    -0.010 C 
ATOM     11  C   UNL     1       2.406  -7.308  -8.493  0.00  0.00    +0.247 C 
ATOM     12  O   UNL     1       2.772  -6.311  -9.085  0.00  0.00    -0.270 OA
ATOM     13  H   UNL     1       2.897  -9.853  -2.583  0.00  0.00    -0.086 HD
ATOM     14  H   UNL     1       2.538 -11.292  -3.297  0.00  0.00    -0.086 HD
ENDROOT
BRANCH  11  15
ATOM     15  C   UNL     1       2.440  -8.623  -9.169  0.00  0.00    +0.040 A 
ATOM     16  C   UNL     1       3.265  -8.820 -10.277  0.00  0.00    +0.025 A 
ATOM     17  C   UNL     1       3.293 -10.049 -10.903  0.00  0.00    +0.058 A 
ATOM     18  C   UNL     1       2.505 -11.086 -10.436  0.00  0.00    +0.050 A 
ATOM     19  C   UNL     1       1.683 -10.897  -9.337  0.00  0.00    +0.125 A 
ATOM     20  C   UNL     1       1.651  -9.672  -8.697  0.00  0.00    +0.051 A 
ATOM     21  F   UNL     1       0.916 -11.914  -8.886  0.00  0.00    -0.205 F 
BRANCH  17  22
ATOM     22  C   UNL     1       4.184 -10.262 -12.100  0.00  0.00    +0.418 C 
ATOM     23  F   UNL     1       5.438 -10.712 -11.674  0.00  0.00    -0.166 F 
ATOM     24  F   UNL     1       3.608 -11.217 -12.945  0.00  0.00    -0.166 F 
ATOM     25  F   UNL     1       4.332  -9.056 -12.792  0.00  0.00    -0.166 F 
ENDBRANCH  17  22
ENDBRANCH  11  15
BRANCH   1  27
ATOM     26  N   UNL     1       1.846  -5.335  -2.779  0.00  0.00    -0.314 N 
ATOM     27  C   UNL     1       1.339  -5.700  -3.973  0.00  0.00    +0.218 C 
ATOM     28  O   UNL     1       0.163  -5.526  -4.211  0.00  0.00    -0.275 OA
ATOM     29  H   UNL     1       2.787  -5.475  -2.588  0.00  0.00    +0.149 HD
BRANCH  26  30
ATOM     30  C   UNL     1       0.976  -4.728  -1.768  0.00  0.00    +0.115 C 
BRANCH  30  31
ATOM     31  C   UNL     1       1.794  -4.411  -0.515  0.00  0.00    +0.139 C 
BRANCH  31  32
ATOM     32  C   UNL     1       0.900  -3.785   0.524  0.00  0.00    +0.309 C 
ATOM     33  O   UNL     1      -0.272  -3.611   0.287  0.00  0.00    -0.251 OA
BRANCH  32  34
ATOM     34  O   UNL     1       1.405  -3.422   1.714  0.00  0.00    -0.465 OA
BRANCH  34  36
ATOM     35  C   UNL     1       1.251  -2.490   3.938  0.00  0.00    +0.048 C 
ATOM     36  C   UNL     1       0.500  -2.836   2.651  0.00  0.00    +0.229 C 
ENDBRANCH  34  36
ENDBRANCH  32  34
ENDBRANCH  31  32
ENDBRANCH  30  31
ENDBRANCH  26  30
ENDBRANCH   1  27
TORSDOF 8
