REMARK  Name = ZINC65347155
REMARK  4 active torsions:
REMARK  status: ('A' for Active; 'I' for Inactive)
REMARK    1  A    between atoms: C_3  and  C_17
REMARK    2  A    between atoms: C_5  and  C_7
REMARK    3  A    between atoms: C_10  and  N_16
REMARK    4  A    between atoms: C_12  and  C_13
REMARK                            x       y       z     vdW  Elec       q    Type
REMARK                         _______ _______ _______ _____ _____    ______ ____
ROOT
ATOM      1  C   UNL     1       1.263  -2.171  -0.003  0.00  0.00    +0.012 A 
ATOM      2  C   UNL     1       1.953  -2.865  -0.993  0.00  0.00    +0.093 A 
ATOM      3  N   UNL     1       1.946  -4.181  -1.025  0.00  0.00    -0.349 N 
ATOM      4  C   UNL     1       1.291  -4.903  -0.129  0.00  0.00    +0.094 A 
ATOM      5  C   UNL     1       0.574  -4.295   0.896  0.00  0.00    +0.057 A 
ATOM      6  C   UNL     1       0.556  -2.901   0.976  0.00  0.00    +0.075 A 
ATOM      7  H   UNL     1       2.436  -4.636  -1.727  0.00  0.00    +0.167 HD
ENDROOT
BRANCH   1  12
ATOM      8  C   UNL     1       1.752   1.364   1.188  0.00  0.00    +0.002 A 
ATOM      9  C   UNL     1       1.306   2.088   0.101  0.00  0.00    +0.019 A 
ATOM     10  C   UNL     1       0.839   1.427  -1.038  0.00  0.00    +0.052 A 
ATOM     11  C   UNL     1       0.824   0.033  -1.074  0.00  0.00    +0.027 A 
ATOM     12  C   UNL     1       1.276  -0.690   0.027  0.00  0.00    -0.015 A 
ATOM     13  C   UNL     1       1.740  -0.017   1.158  0.00  0.00    +0.008 A 
BRANCH  10  14
ATOM     14  C   UNL     1       0.376   2.179  -2.165  0.00  0.00    +0.099 C 
ATOM     15  N   UNL     1       0.009   2.776  -3.060  0.00  0.00    -0.191 NA
ENDBRANCH  10  14
ENDBRANCH   1  12
BRANCH   6  16
ATOM     16  C   UNL     1      -0.186  -2.212   2.051  0.00  0.00    +0.387 C 
ATOM     17  O   UNL     1      -0.691  -2.858   2.957  0.00  0.00    -0.241 OA
ATOM     18  O   UNL     1      -0.295  -0.994   2.034  0.00  0.00    -0.241 OA
ENDBRANCH   6  16
BRANCH   4  19
ATOM     19  N   UNL     1       1.320  -6.290  -0.214  0.00  0.00    -0.345 N 
ATOM     20  H   UNL     1       1.817  -6.722  -0.926  0.00  0.00    +0.144 HD
ATOM     21  H   UNL     1       0.842  -6.826   0.438  0.00  0.00    +0.144 HD
ENDBRANCH   4  19
TORSDOF 4
