REMARK  Name = ZINC15791027
REMARK  7 active torsions:
REMARK  status: ('A' for Active; 'I' for Inactive)
REMARK    1  A    between atoms: C_1  and  C_2
REMARK    2  A    between atoms: C_3  and  N_11
REMARK    3  A    between atoms: C_7  and  N_8
REMARK    4  A    between atoms: C_12  and  C_14
REMARK    5  A    between atoms: C_14  and  C_15
REMARK    6  A    between atoms: C_15  and  S_16
REMARK    7  A    between atoms: S_16  and  C_17
REMARK                            x       y       z     vdW  Elec       q    Type
REMARK                         _______ _______ _______ _____ _____    ______ ____
ROOT
ATOM      1  N   UNL     1      -0.411   0.193  -2.476  0.00  0.00    -0.285 N 
ATOM      2  C   UNL     1      -0.694  -0.488  -3.604  0.00  0.00    +0.218 C 
ATOM      3  O   UNL     1      -0.662  -1.700  -3.606  0.00  0.00    -0.275 OA
ATOM      4  H   UNL     1      -0.384   1.162  -2.489  0.00  0.00    +0.155 HD
ENDROOT
BRANCH   1   7
ATOM      5  C   UNL     1      -1.255   1.371  -0.027  0.00  0.00    +0.048 C 
ATOM      6  C   UNL     1      -0.550   0.040  -0.070  0.00  0.00    +0.001 A 
ATOM      7  C   UNL     1      -0.155  -0.499  -1.287  0.00  0.00    +0.038 A 
ATOM      8  C   UNL     1       0.495  -1.726  -1.322  0.00  0.00    +0.024 A 
ATOM      9  C   UNL     1       0.746  -2.407  -0.147  0.00  0.00    +0.004 A 
ATOM     10  C   UNL     1       0.350  -1.868   1.064  0.00  0.00    +0.033 A 
ATOM     11  C   UNL     1      -0.292  -0.643   1.102  0.00  0.00    +0.131 A 
BRANCH  11  12
ATOM     12  N   UNL     1      -0.707  -0.067   2.401  0.00  0.00    +0.057 N 
ATOM     13  O   UNL     1      -0.803   1.131   2.527  0.00  0.00    -0.126 OA
ATOM     14  O   UNL     1      -0.951  -0.795   3.335  0.00  0.00    -0.126 OA
ENDBRANCH  11  12
ENDBRANCH   1   7
BRANCH   2  15
ATOM     15  C   UNL     1      -1.050   0.257  -4.865  0.00  0.00    +0.107 C 
BRANCH  15  16
ATOM     16  C   UNL     1      -1.324  -0.744  -5.989  0.00  0.00    +0.083 C 
BRANCH  16  17
ATOM     17  S   UNL     1      -1.753   0.153  -7.506  0.00  0.00    -0.123 S 
BRANCH  17  18
ATOM     18  C   UNL     1      -2.035  -1.121  -8.690  0.00  0.00    +0.026 A 
ATOM     19  C   UNL     1      -1.907  -2.454  -8.321  0.00  0.00    +0.016 A 
ATOM     20  C   UNL     1      -2.130  -3.451  -9.251  0.00  0.00    +0.001 A 
ATOM     21  C   UNL     1      -2.479  -3.123 -10.549  0.00  0.00    +0.001 A 
ATOM     22  C   UNL     1      -2.607  -1.797 -10.920  0.00  0.00    +0.021 A 
ATOM     23  C   UNL     1      -2.392  -0.795  -9.993  0.00  0.00    +0.054 A 
ATOM     24 CL   UNL     1      -2.561   0.869 -10.458  0.00  0.00    -0.082 Cl
ENDBRANCH  17  18
ENDBRANCH  16  17
ENDBRANCH  15  16
ENDBRANCH   2  15
TORSDOF 6
