REMARK  Name = ZINC08845677
REMARK  10 active torsions:
REMARK  status: ('A' for Active; 'I' for Inactive)
REMARK    1  A    between atoms: C_1  and  C_2
REMARK    2  A    between atoms: C_5  and  C_9
REMARK    3  A    between atoms: C_6  and  O_8
REMARK    4  A    between atoms: N_17  and  C_30
REMARK    5  A    between atoms: C_18  and  C_20
REMARK    6  A    between atoms: C_23  and  C_26
REMARK    7  A    between atoms: C_26  and  O_28
REMARK    8  A    between atoms: O_28  and  C_29
REMARK    9  A    between atoms: C_30  and  C_31
REMARK   10  A    between atoms: C_31  and  O_32
REMARK                            x       y       z     vdW  Elec       q    Type
REMARK                         _______ _______ _______ _____ _____    ______ ____
ROOT
ATOM      1  C   UNL     1       0.358  -4.707   0.041  0.00  0.00    +0.102 A 
ATOM      2  C   UNL     1       0.102  -5.328  -1.186  0.00  0.00    +0.035 A 
ATOM      3  C   UNL     1       0.077  -6.684  -0.924  0.00  0.00    +0.126 A 
ATOM      4  N   UNL     1       0.314  -6.816   0.415  0.00  0.00    -0.272 N 
ATOM      5  H   UNL     1       0.356  -7.659   0.893  0.00  0.00    +0.189 HD
ATOM      6  N   UNL     1       0.478  -5.657   0.947  0.00  0.00    -0.173 NA
ATOM      7  C   UNL     1      -0.189  -7.397  -2.178  0.00  0.00    +0.266 C 
ATOM      8  O   UNL     1      -0.273  -8.606  -2.285  0.00  0.00    -0.268 OA
ATOM      9  N   UNL     1      -0.326  -6.525  -3.193  0.00  0.00    -0.283 N 
ATOM     10  C   UNL     1      -0.158  -5.167  -2.659  0.00  0.00    +0.141 C 
ENDROOT
BRANCH   1  15
ATOM     11  C   UNL     1       0.823   0.963   0.961  0.00  0.00    +0.044 C 
ATOM     12  C   UNL     1       0.704  -0.520   0.722  0.00  0.00    -0.047 A 
ATOM     13  C   UNL     1      -0.339  -1.013  -0.043  0.00  0.00    +0.004 A 
ATOM     14  C   UNL     1      -0.455  -2.370  -0.267  0.00  0.00    +0.014 A 
ATOM     15  C   UNL     1       0.479  -3.247   0.278  0.00  0.00    +0.044 A 
ATOM     16  C   UNL     1       1.531  -2.746   1.050  0.00  0.00    +0.126 A 
ATOM     17  C   UNL     1       1.640  -1.381   1.262  0.00  0.00    +0.049 A 
BRANCH  16  18
ATOM     18  O   UNL     1       2.448  -3.594   1.586  0.00  0.00    -0.506 OA
ATOM     19  H   UNL     1       3.209  -3.763   1.014  0.00  0.00    +0.292 HD
ENDBRANCH  16  18
ENDBRANCH   1  15
BRANCH  10  20
ATOM     20  C   UNL     1       1.016  -4.492  -3.322  0.00  0.00    -0.022 A 
ATOM     21  C   UNL     1       2.189  -5.196  -3.527  0.00  0.00    +0.006 A 
ATOM     22  C   UNL     1       3.267  -4.584  -4.133  0.00  0.00    +0.015 A 
ATOM     23  C   UNL     1       3.171  -3.252  -4.540  0.00  0.00    +0.059 A 
ATOM     24  C   UNL     1       1.984  -2.548  -4.329  0.00  0.00    +0.015 A 
ATOM     25  C   UNL     1       0.912  -3.173  -3.727  0.00  0.00    +0.006 A 
BRANCH  23  26
ATOM     26  C   UNL     1       4.322  -2.590  -5.189  0.00  0.00    +0.339 C 
ATOM     27  O   UNL     1       5.353  -3.205  -5.370  0.00  0.00    -0.245 OA
BRANCH  26  28
ATOM     28  O   UNL     1       4.226  -1.304  -5.580  0.00  0.00    -0.464 OA
ATOM     29  C   UNL     1       5.377  -0.728  -6.201  0.00  0.00    +0.280 C 
ENDBRANCH  26  28
ENDBRANCH  23  26
ENDBRANCH  10  20
BRANCH   9  30
ATOM     30  C   UNL     1      -0.597  -6.870  -4.591  0.00  0.00    +0.137 C 
BRANCH  30  31
ATOM     31  C   UNL     1      -2.109  -6.915  -4.821  0.00  0.00    +0.175 C 
BRANCH  31  32
ATOM     32  O   UNL     1      -2.657  -5.608  -4.641  0.00  0.00    -0.393 OA
ATOM     33  H   UNL     1      -3.614  -5.561  -4.772  0.00  0.00    +0.209 HD
ENDBRANCH  31  32
ENDBRANCH  30  31
ENDBRANCH   9  30
TORSDOF 8
