REMARK  Name = ZINC39859063
REMARK  6 active torsions:
REMARK  status: ('A' for Active; 'I' for Inactive)
REMARK    1  A    between atoms: C_1  and  C_2
REMARK    2  A    between atoms: C_2  and  C_3
REMARK    3  A    between atoms: C_8  and  N_9
REMARK    4  A    between atoms: C_13  and  C_14
REMARK    5  A    between atoms: C_13  and  C_15
REMARK    6  A    between atoms: C_18  and  O_21
REMARK                            x       y       z     vdW  Elec       q    Type
REMARK                         _______ _______ _______ _____ _____    ______ ____
ROOT
ATOM      1  N   UNL     1      -1.311  -0.338   2.505  0.00  0.00    -0.223 N 
ATOM      2  C   UNL     1      -2.206  -1.281   2.262  0.00  0.00    +0.263 C 
ATOM      3  O   UNL     1      -1.877  -2.415   1.970  0.00  0.00    -0.269 OA
ATOM      4  C   UNL     1      -3.626  -0.887   2.363  0.00  0.00    +0.080 C 
ATOM      5  C   UNL     1      -4.745  -1.630   2.172  0.00  0.00    -0.024 C 
ATOM      6  C   UNL     1      -4.629  -3.085   1.798  0.00  0.00    +0.045 C 
ATOM      7  S   UNL     1      -3.464   0.837   2.807  0.00  0.00    -0.060 S 
ATOM      8  C   UNL     1      -1.680   0.916   2.833  0.00  0.00    +0.125 C 
ATOM      9  S   UNL     1      -0.681   2.261   3.188  0.00  0.00    -0.027 S 
ENDROOT
BRANCH   1  15
ATOM     10  C   UNL     1       0.731  -0.503   1.223  0.00  0.00    -0.026 A 
ATOM     11  C   UNL     1       2.076  -0.808   1.149  0.00  0.00    +0.005 A 
ATOM     12  C   UNL     1       2.746  -1.266   2.268  0.00  0.00    +0.000 A 
ATOM     13  C   UNL     1       2.071  -1.420   3.466  0.00  0.00    +0.002 A 
ATOM     14  C   UNL     1       0.726  -1.117   3.546  0.00  0.00    +0.024 A 
ATOM     15  C   UNL     1       0.052  -0.652   2.425  0.00  0.00    +0.046 A 
BRANCH  10  17
ATOM     16  C   UNL     1      -0.019   1.526   0.010  0.00  0.00    +0.009 C 
ATOM     17  C   UNL     1       0.002  -0.004   0.002  0.00  0.00    +0.033 C 
ENDBRANCH  10  17
ENDBRANCH   1  15
BRANCH   5  18
ATOM     18  C   UNL     1      -6.070  -1.016   2.330  0.00  0.00    -0.021 A 
ATOM     19  C   UNL     1      -6.480  -0.543   3.582  0.00  0.00    +0.012 A 
ATOM     20  C   UNL     1      -7.723   0.032   3.724  0.00  0.00    +0.046 A 
ATOM     21  C   UNL     1      -8.570   0.144   2.628  0.00  0.00    +0.117 A 
ATOM     22  C   UNL     1      -8.168  -0.324   1.382  0.00  0.00    +0.046 A 
ATOM     23  C   UNL     1      -6.925  -0.896   1.227  0.00  0.00    +0.012 A 
BRANCH  21  24
ATOM     24  O   UNL     1      -9.795   0.711   2.774  0.00  0.00    -0.507 OA
ATOM     25  H   UNL     1      -9.805   1.667   2.630  0.00  0.00    +0.292 HD
ENDBRANCH  21  24
ENDBRANCH   5  18
TORSDOF 4
