REMARK  Name = ZINC52837721
REMARK  6 active torsions:
REMARK  status: ('A' for Active; 'I' for Inactive)
REMARK    1  A    between atoms: C_1  and  C_2
REMARK    2  A    between atoms: C_2  and  C_3
REMARK    3  A    between atoms: C_3  and  C_4
REMARK    4  A    between atoms: C_9  and  S_11
REMARK    5  A    between atoms: S_11  and  C_12
REMARK    6  A    between atoms: C_16  and  C_18
REMARK                            x       y       z     vdW  Elec       q    Type
REMARK                         _______ _______ _______ _____ _____    ______ ____
ROOT
ATOM      1  C   UNL     1       0.739  -2.004  -1.265  0.00  0.00    +0.049 A 
ATOM      2  C   UNL     1       0.234  -2.704  -2.345  0.00  0.00    +0.095 A 
ATOM      3  C   UNL     1       0.273  -4.098  -2.312  0.00  0.00    +0.274 A 
ATOM      4  O   UNL     1      -0.211  -4.823  -3.349  0.00  0.00    -0.266 OA
ATOM      5  N   UNL     1       0.790  -4.703  -1.251  0.00  0.00    -0.183 NA
ATOM      6  C   UNL     1       1.264  -3.997  -0.234  0.00  0.00    +0.198 A 
ATOM      7  N   UNL     1       1.246  -2.673  -0.240  0.00  0.00    -0.226 NA
ENDROOT
BRANCH   1   8
ATOM      8  C   UNL     1       0.718  -0.497  -1.257  0.00  0.00    +0.055 C 
BRANCH   8  10
ATOM      9  C   UNL     1      -0.019   1.526   0.010  0.00  0.00    +0.004 C 
ATOM     10  C   UNL     1       0.002  -0.004   0.002  0.00  0.00    +0.003 C 
ENDBRANCH   8  10
ENDBRANCH   1   8
BRANCH   6  11
ATOM     11  S   UNL     1       1.943  -4.841   1.155  0.00  0.00    -0.030 S 
BRANCH  11  12
ATOM     12  C   UNL     1       1.774  -6.546   0.744  0.00  0.00    +0.109 A 
ATOM     13  C   UNL     1       2.207  -7.535   1.628  0.00  0.00    +0.075 A 
ATOM     14  C   UNL     1       2.052  -8.859   1.258  0.00  0.00    +0.134 A 
ATOM     15  N   UNL     1       1.502  -9.142   0.085  0.00  0.00    -0.221 NA
ATOM     16  C   UNL     1       1.103  -8.184  -0.727  0.00  0.00    +0.129 A 
ATOM     17  N   UNL     1       1.227  -6.910  -0.413  0.00  0.00    -0.226 NA
ATOM     18  C   UNL     1       0.484  -8.555  -2.050  0.00  0.00    +0.088 C 
ATOM     19 CL   UNL     1       2.572 -10.133   2.317  0.00  0.00    -0.062 Cl
ENDBRANCH  11  12
ENDBRANCH   6  11
TORSDOF 4
