REMARK  Name = ZINC56203790
REMARK  7 active torsions:
REMARK  status: ('A' for Active; 'I' for Inactive)
REMARK    1  A    between atoms: C_4  and  C_7
REMARK    2  A    between atoms: C_7  and  C_9
REMARK    3  A    between atoms: C_7  and  N_22
REMARK    4  A    between atoms: C_9  and  N_10
REMARK    5  A    between atoms: C_11  and  C_13
REMARK    6  A    between atoms: C_16  and  S_18
REMARK    7  A    between atoms: S_18  and  N_21
REMARK                            x       y       z     vdW  Elec       q    Type
REMARK                         _______ _______ _______ _____ _____    ______ ____
ROOT
ATOM      1  N   UNL     1       4.234   0.089  -2.300  0.00  0.00    -0.310 N 
ATOM      2  C   UNL     1       4.509  -0.025  -3.614  0.00  0.00    +0.279 C 
ATOM      3  O   UNL     1       4.697  -1.124  -4.103  0.00  0.00    -0.267 OA
ATOM      4  H   UNL     1       4.084   0.965  -1.910  0.00  0.00    +0.149 HD
ENDROOT
BRANCH   2   5
ATOM      5  C   UNL     1       4.583   1.174  -4.455  0.00  0.00    +0.192 A 
ATOM      6  C   UNL     1       4.847   1.199  -5.794  0.00  0.00    +0.057 A 
ATOM      7  C   UNL     1       4.819   2.547  -6.186  0.00  0.00    +0.072 A 
ATOM      8  C   UNL     1       4.543   3.276  -5.082  0.00  0.00    +0.258 A 
ATOM      9  O   UNL     1       4.396   2.445  -4.042  0.00  0.00    -0.432 OA
BRANCH   8  10
ATOM     10  S   UNL     1       4.395   5.031  -5.021  0.00  0.00    +0.089 S 
ATOM     11  O   UNL     1       4.661   5.415  -3.679  0.00  0.00    -0.150 OA
ATOM     12  O   UNL     1       5.137   5.539  -6.121  0.00  0.00    -0.150 OA
BRANCH  10  13
ATOM     13  N   UNL     1       2.806   5.398  -5.312  0.00  0.00    -0.201 NA
ATOM     14  H   UNL     1       2.413   6.193  -4.920  0.00  0.00    +0.144 HD
ATOM     15  H   UNL     1       2.270   4.818  -5.875  0.00  0.00    +0.144 HD
ENDBRANCH  10  13
ENDBRANCH   8  10
ENDBRANCH   2   5
BRANCH   1  16
ATOM     16  C   UNL     1       4.160  -1.109  -1.460  0.00  0.00    +0.094 C 
BRANCH  16  17
ATOM     17  C   UNL     1       3.704  -0.717  -0.052  0.00  0.00    -0.020 C 
BRANCH  17  21
ATOM     18  C   UNL     1      -0.298   0.768  -0.215  0.00  0.00    +0.000 A 
ATOM     19  C   UNL     1       0.765   1.650  -0.152  0.00  0.00    +0.000 A 
ATOM     20  C   UNL     1       2.060   1.169  -0.100  0.00  0.00    +0.002 A 
ATOM     21  C   UNL     1       2.292  -0.193  -0.109  0.00  0.00    -0.059 A 
ATOM     22  C   UNL     1       1.230  -1.075  -0.171  0.00  0.00    +0.002 A 
ATOM     23  C   UNL     1      -0.065  -0.594  -0.225  0.00  0.00    +0.000 A 
ENDBRANCH  17  21
BRANCH  17  24
ATOM     24  N   UNL     1       3.754  -1.895   0.824  0.00  0.00    +0.385 N 
ATOM     25  C   UNL     1       5.153  -2.378   0.953  0.00  0.00    -0.078 C 
ATOM     26  C   UNL     1       5.127  -3.191   2.272  0.00  0.00    -0.020 C 
ATOM     27  C   UNL     1       4.177  -2.365   3.168  0.00  0.00    -0.020 C 
ATOM     28  C   UNL     1       3.326  -1.532   2.192  0.00  0.00    -0.078 C 
ATOM     29  H   UNL     1       3.164  -2.627   0.458  0.00  0.00    -0.081 HD
ENDBRANCH  17  24
ENDBRANCH  16  17
ENDBRANCH   1  16
TORSDOF 7
