REMARK  Name = ZINC21729998
REMARK  2 active torsions:
REMARK  status: ('A' for Active; 'I' for Inactive)
REMARK    1  A    between atoms: C_4  and  C_7
REMARK    2  A    between atoms: C_7  and  N_8
REMARK                            x       y       z     vdW  Elec       q    Type
REMARK                         _______ _______ _______ _____ _____    ______ ____
ROOT
ATOM      1  N   UNL     1      -1.177  -0.737   0.010  0.00  0.00    -0.272 N 
ATOM      2  C   UNL     1      -2.366  -0.096   0.025  0.00  0.00    +0.270 A 
ATOM      3  O   UNL     1      -3.404  -0.733   0.032  0.00  0.00    -0.266 OA
ATOM      4  C   UNL     1      -2.399   1.305   0.033  0.00  0.00    +0.101 A 
ATOM      5  C   UNL     1      -1.236   2.074   0.020  0.00  0.00    +0.071 A 
ATOM      6  C   UNL     1      -1.445   3.451   0.035  0.00  0.00    +0.035 A 
ATOM      7  C   UNL     1      -2.705   3.944   0.049  0.00  0.00    +0.048 A 
ATOM      8  S   UNL     1      -3.693   2.519   0.051  0.00  0.00    -0.090 S 
ATOM      9  N   UNL     1      -0.017   1.369   0.010  0.00  0.00    -0.254 N 
ATOM     10  C   UNL     1       0.002  -0.004   0.002  0.00  0.00    +0.240 A 
ATOM     11  N   UNL     1       1.247  -0.399  -0.012  0.00  0.00    -0.109 NA
ATOM     12  N   UNL     1       2.064   0.738  -0.014  0.00  0.00    -0.119 NA
ATOM     13  C   UNL     1       1.255   1.817  -0.000  0.00  0.00    +0.208 A 
ATOM     14  S   UNL     1       1.751   3.456   0.003  0.00  0.00    -0.009 SA
ENDROOT
BRANCH   1  15
ATOM     15  C   UNL     1      -1.133  -2.201   0.002  0.00  0.00    +0.163 C 
BRANCH  15  19
ATOM     16  C   UNL     1      -1.050  -3.645   4.021  0.00  0.00    +0.000 A 
ATOM     17  C   UNL     1      -2.260  -3.448   3.382  0.00  0.00    +0.000 A 
ATOM     18  C   UNL     1      -2.287  -2.981   2.082  0.00  0.00    +0.005 A 
ATOM     19  C   UNL     1      -1.104  -2.710   1.420  0.00  0.00    -0.028 A 
ATOM     20  C   UNL     1       0.106  -2.913   2.057  0.00  0.00    +0.005 A 
ATOM     21  C   UNL     1       0.133  -3.375   3.359  0.00  0.00    +0.000 A 
ENDBRANCH  15  19
ENDBRANCH   1  15
TORSDOF 2
