REMARK  Name = ZINC02677504
REMARK  6 active torsions:
REMARK  status: ('A' for Active; 'I' for Inactive)
REMARK    1  A    between atoms: C_2  and  C_3
REMARK    2  A    between atoms: C_3  and  N_4
REMARK    3  A    between atoms: C_5  and  C_7
REMARK    4  A    between atoms: C_11  and  N_12
REMARK    5  A    between atoms: C_13  and  C_15
REMARK    6  A    between atoms: C_20  and  N_21
REMARK                            x       y       z     vdW  Elec       q    Type
REMARK                         _______ _______ _______ _____ _____    ______ ____
ROOT
ATOM      1  C   UNL     1      -0.558   1.150   2.575  0.00  0.00    +0.069 A 
ATOM      2  C   UNL     1      -0.738   1.759   1.271  0.00  0.00    -0.023 A 
ATOM      3  C   UNL     1      -1.617   2.786   1.230  0.00  0.00    -0.004 A 
ATOM      4  S   UNL     1      -2.197   2.949   2.895  0.00  0.00    -0.077 S 
ATOM      5  C   UNL     1      -1.288   1.672   3.634  0.00  0.00    +0.085 A 
ATOM      6  C   UNL     1      -2.004   3.599   0.034  0.00  0.00    +0.043 C 
ATOM      7  C   UNL     1      -0.978   3.341  -1.079  0.00  0.00    +0.005 C 
ATOM      8  C   UNL     1      -0.764   1.830  -1.212  0.00  0.00    +0.005 C 
ATOM      9  C   UNL     1      -0.013   1.300   0.011  0.00  0.00    +0.037 C 
ENDROOT
BRANCH   1  11
ATOM     10  N   UNL     1       1.652   0.257   3.084  0.00  0.00    -0.308 N 
ATOM     11  C   UNL     1       0.363   0.025   2.768  0.00  0.00    +0.247 C 
ATOM     12  O   UNL     1      -0.037  -1.117   2.642  0.00  0.00    -0.270 OA
ATOM     13  H   UNL     1       1.971   1.167   3.185  0.00  0.00    +0.149 HD
BRANCH  10  14
ATOM     14  C   UNL     1       2.572  -0.867   3.277  0.00  0.00    +0.131 C 
BRANCH  14  16
ATOM     15  C   UNL     1       4.545  -0.746   4.711  0.00  0.00    +0.005 C 
ATOM     16  C   UNL     1       3.942  -0.341   3.620  0.00  0.00    -0.016 C 
ENDBRANCH  14  16
ENDBRANCH  10  14
ENDBRANCH   1  11
BRANCH   5  17
ATOM     17  N   UNL     1      -1.290   1.269   4.960  0.00  0.00    -0.275 N 
ATOM     18  C   UNL     1      -2.074   1.903   5.855  0.00  0.00    +0.251 C 
ATOM     19  O   UNL     1      -2.778   2.827   5.500  0.00  0.00    -0.270 OA
ATOM     20  H   UNL     1      -0.728   0.532   5.244  0.00  0.00    +0.156 HD
BRANCH  18  21
ATOM     21  C   UNL     1      -2.076   1.473   7.269  0.00  0.00    +0.067 A 
ATOM     22  C   UNL     1      -0.879   1.415   7.987  0.00  0.00    +0.015 A 
ATOM     23  C   UNL     1      -0.889   1.019   9.308  0.00  0.00    +0.001 A 
ATOM     24  C   UNL     1      -2.080   0.669   9.919  0.00  0.00    +0.002 A 
ATOM     25  C   UNL     1      -3.268   0.718   9.213  0.00  0.00    +0.033 A 
ATOM     26  C   UNL     1      -3.273   1.118   7.892  0.00  0.00    +0.138 A 
BRANCH  26  27
ATOM     27  N   UNL     1      -4.546   1.171   7.138  0.00  0.00    +0.057 N 
ATOM     28  O   UNL     1      -5.602   0.976   7.712  0.00  0.00    -0.126 OA
ATOM     29  O   UNL     1      -4.536   1.408   5.944  0.00  0.00    -0.126 OA
ENDBRANCH  26  27
ENDBRANCH  18  21
ENDBRANCH   5  17
TORSDOF 6
