REMARK  Name = ZINC20725372
REMARK  4 active torsions:
REMARK  status: ('A' for Active; 'I' for Inactive)
REMARK    1  A    between atoms: C_1  and  N_2
REMARK    2  A    between atoms: C_11  and  C_17
REMARK    3  A    between atoms: C_21  and  O_23
REMARK    4  A    between atoms: O_23  and  C_24
REMARK                            x       y       z     vdW  Elec       q    Type
REMARK                         _______ _______ _______ _____ _____    ______ ____
ROOT
ATOM      1  C   UNL     1      -0.039  -2.990   0.069  0.00  0.00    +0.155 C 
ATOM      2  N   UNL     1       1.244  -2.283   0.065  0.00  0.00    -0.284 N 
ATOM      3  C   UNL     1       1.269  -0.911   0.010  0.00  0.00    +0.120 A 
ATOM      4  C   UNL     1       2.476  -0.273   0.007  0.00  0.00    +0.080 A 
ATOM      5  C   UNL     1       3.661  -1.016   0.060  0.00  0.00    +0.261 A 
ATOM      6  O   UNL     1       4.743  -0.454   0.059  0.00  0.00    -0.267 OA
ATOM      7  N   UNL     1       3.589  -2.363   0.113  0.00  0.00    -0.275 N 
ATOM      8  H   UNL     1       4.511  -2.962   0.155  0.00  0.00    +0.173 HD
ATOM      9  C   UNL     1       2.394  -2.981   0.115  0.00  0.00    +0.330 A 
ATOM     10  O   UNL     1       2.352  -4.195   0.163  0.00  0.00    -0.246 OA
ATOM     11  C   UNL     1       2.491   1.236  -0.052  0.00  0.00    +0.144 C 
ATOM     12  N   UNL     1       1.180   1.908  -0.103  0.00  0.00    -0.288 N 
ATOM     13  C   UNL     1       0.067   1.149  -0.094  0.00  0.00    +0.306 C 
ATOM     14  O   UNL     1      -1.015   1.701  -0.141  0.00  0.00    -0.252 OA
ATOM     15  N   UNL     1       0.104  -0.188  -0.041  0.00  0.00    -0.255 N 
ATOM     16  H   UNL     1       1.127   3.006  -0.147  0.00  0.00    +0.151 HD
ATOM     17  H   UNL     1      -0.866  -0.708  -0.038  0.00  0.00    +0.158 HD
ENDROOT
BRANCH  11  18
ATOM     18  C   UNL     1       3.228   1.743   1.160  0.00  0.00    -0.019 A 
ATOM     19  C   UNL     1       2.580   1.819   2.380  0.00  0.00    +0.006 A 
ATOM     20  C   UNL     1       3.255   2.279   3.496  0.00  0.00    +0.004 A 
ATOM     21  C   UNL     1       4.575   2.674   3.393  0.00  0.00    +0.046 A 
ATOM     22  C   UNL     1       5.225   2.604   2.169  0.00  0.00    +0.129 A 
ATOM     23  C   UNL     1       4.547   2.137   1.052  0.00  0.00    +0.052 A 
BRANCH  22  24
ATOM     24  O   UNL     1       6.523   2.991   2.065  0.00  0.00    -0.456 OA
BRANCH  24  25
ATOM     25  C   UNL     1       6.801   4.103   1.334  0.00  0.00    +0.128 A 
ATOM     26  C   UNL     1       5.767   4.874   0.822  0.00  0.00    +0.046 A 
ATOM     27  C   UNL     1       6.051   6.007   0.084  0.00  0.00    +0.004 A 
ATOM     28  C   UNL     1       7.365   6.366  -0.154  0.00  0.00    +0.000 A 
ATOM     29  C   UNL     1       8.397   5.596   0.350  0.00  0.00    +0.004 A 
ATOM     30  C   UNL     1       8.118   4.465   1.093  0.00  0.00    +0.046 A 
ENDBRANCH  24  25
ENDBRANCH  22  24
ENDBRANCH  11  18
TORSDOF 3
