REMARK  Name = ZINC01886615
REMARK  4 active torsions:
REMARK  status: ('A' for Active; 'I' for Inactive)
REMARK    1  A    between atoms: C_4  and  N_7
REMARK    2  A    between atoms: C_15  and  C_19
REMARK    3  A    between atoms: C_15  and  N_23
REMARK    4  A    between atoms: C_24  and  C_26
REMARK                            x       y       z     vdW  Elec       q    Type
REMARK                         _______ _______ _______ _____ _____    ______ ____
ROOT
ATOM      1  N   UNL     1       3.586  -0.601   0.169  0.00  0.00    -0.249 N 
ATOM      2  C   UNL     1       3.611  -1.981   0.202  0.00  0.00    +0.125 A 
ATOM      3  C   UNL     1       4.820  -2.608   0.137  0.00  0.00    +0.097 A 
ATOM      4  C   UNL     1       5.999  -1.858   0.038  0.00  0.00    +0.262 A 
ATOM      5  N   UNL     1       5.924  -0.511   0.008  0.00  0.00    -0.274 N 
ATOM      6  C   UNL     1       4.727   0.101   0.068  0.00  0.00    +0.335 A 
ATOM      7  O   UNL     1       4.678   1.316   0.035  0.00  0.00    -0.246 OA
ATOM      8  O   UNL     1       7.081  -2.416  -0.020  0.00  0.00    -0.267 OA
ATOM      9  C   UNL     1       4.541  -4.091   0.195  0.00  0.00    +0.240 C 
ATOM     10  C   UNL     1       3.031  -4.164   0.298  0.00  0.00    +0.256 C 
ATOM     11  O   UNL     1       2.355  -5.168   0.370  0.00  0.00    -0.272 OA
ATOM     12  N   UNL     1       2.588  -2.894   0.295  0.00  0.00    -0.269 N 
ATOM     13  H   UNL     1       6.735   0.017  -0.061  0.00  0.00    +0.173 HD
ATOM     14  H   UNL     1       1.651  -2.649   0.352  0.00  0.00    +0.156 HD
ENDROOT
BRANCH   1  18
ATOM     15  C   UNL     1      -0.062   1.405   0.361  0.00  0.00    +0.000 A 
ATOM     16  C   UNL     1       0.840   1.512   1.404  0.00  0.00    +0.002 A 
ATOM     17  C   UNL     1       2.050   0.849   1.343  0.00  0.00    +0.026 A 
ATOM     18  C   UNL     1       2.359   0.073   0.234  0.00  0.00    +0.053 A 
ATOM     19  C   UNL     1       1.451  -0.033  -0.811  0.00  0.00    +0.026 A 
ATOM     20  C   UNL     1       0.243   0.633  -0.745  0.00  0.00    +0.002 A 
ENDBRANCH   1  18
BRANCH   9  21
ATOM     21  C   UNL     1       5.196  -4.715   1.429  0.00  0.00    +0.424 C 
ATOM     22  F   UNL     1       4.632  -4.165   2.584  0.00  0.00    -0.167 F 
ATOM     23  F   UNL     1       4.986  -6.098   1.419  0.00  0.00    -0.167 F 
ATOM     24  F   UNL     1       6.570  -4.453   1.410  0.00  0.00    -0.167 F 
ENDBRANCH   9  21
BRANCH   9  25
ATOM     25  N   UNL     1       5.006  -4.752  -1.028  0.00  0.00    -0.290 N 
ATOM     26  C   UNL     1       4.571  -4.327  -2.230  0.00  0.00    +0.217 C 
ATOM     27  O   UNL     1       3.719  -3.467  -2.298  0.00  0.00    -0.275 OA
ATOM     28  H   UNL     1       5.628  -5.494  -0.971  0.00  0.00    +0.150 HD
BRANCH  26  29
ATOM     29  C   UNL     1       5.144  -4.921  -3.491  0.00  0.00    +0.075 C 
ATOM     30  C   UNL     1       6.017  -4.018  -4.365  0.00  0.00    +0.013 C 
ATOM     31  C   UNL     1       4.608  -4.397  -4.825  0.00  0.00    +0.013 C 
ENDBRANCH  26  29
ENDBRANCH   9  25
TORSDOF 4
