REMARK  Name = ZINC09915834
REMARK  14 active torsions:
REMARK  status: ('A' for Active; 'I' for Inactive)
REMARK    1  A    between atoms: C_1  and  C_2
REMARK    2  A    between atoms: N_4  and  C_5
REMARK    3  A    between atoms: C_5  and  C_29
REMARK    4  A    between atoms: C_6  and  C_27
REMARK    5  A    between atoms: C_6  and  O_28
REMARK    6  A    between atoms: C_7  and  C_25
REMARK    7  A    between atoms: C_7  and  O_26
REMARK    8  A    between atoms: C_8  and  C_22
REMARK    9  A    between atoms: C_8  and  C_23
REMARK   10  A    between atoms: C_10  and  C_11
REMARK   11  A    between atoms: C_10  and  O_12
REMARK   12  A    between atoms: O_12  and  C_13
REMARK   13  A    between atoms: C_16  and  N_19
REMARK   14  A    between atoms: C_23  and  O_24
REMARK                            x       y       z     vdW  Elec       q    Type
REMARK                         _______ _______ _______ _____ _____    ______ ____
ROOT
ATOM      1  C   UNL     1       2.178  -4.299  -0.306  0.00  0.00    +0.128 C 
ATOM      2  C   UNL     1       1.713  -4.898   1.012  0.00  0.00    +0.121 C 
ATOM      3  C   UNL     1       2.490  -4.431   2.231  0.00  0.00    +0.124 C 
ATOM      4  C   UNL     1       2.876  -2.958   2.202  0.00  0.00    +0.125 C 
ATOM      5  O   UNL     1       3.246  -2.505   0.916  0.00  0.00    -0.326 OA
ATOM      6  C   UNL     1       2.412  -2.794  -0.189  0.00  0.00    +0.234 C 
ATOM      7  C   UNL     1       3.108  -2.310  -1.474  0.00  0.00    +0.091 C 
ATOM      8  C   UNL     1       1.728  -2.113   2.768  0.00  0.00    +0.047 C 
ATOM      9  C   UNL     1       3.747  -5.287   2.431  0.00  0.00    +0.047 C 
ATOM     10  C   UNL     1       1.828  -6.433   0.917  0.00  0.00    +0.047 C 
ATOM     11  C   UNL     1       3.454  -4.983  -0.803  0.00  0.00    +0.041 C 
ENDROOT
BRANCH   1  15
ATOM     12  C   UNL     1      -1.224  -4.374  -2.079  0.00  0.00    +0.109 C 
ATOM     13  C   UNL     1      -0.120  -4.048  -1.106  0.00  0.00    +0.211 C 
ATOM     14  O   UNL     1      -0.352  -3.361  -0.134  0.00  0.00    -0.276 OA
ATOM     15  N   UNL     1       1.124  -4.521  -1.316  0.00  0.00    -0.302 N 
ATOM     16  H   UNL     1       1.327  -5.006  -2.131  0.00  0.00    +0.150 HD
ENDBRANCH   1  15
BRANCH   3  17
ATOM     17  O   UNL     1       1.652  -4.638   3.392  0.00  0.00    -0.383 OA
ATOM     18  H   UNL     1       2.062  -4.369   4.226  0.00  0.00    +0.210 HD
ENDBRANCH   3  17
BRANCH   2  19
ATOM     19  O   UNL     1       0.320  -4.586   1.197  0.00  0.00    -0.384 OA
ATOM     20  H   UNL     1      -0.056  -4.933   2.018  0.00  0.00    +0.210 HD
ENDBRANCH   2  19
BRANCH   6  21
ATOM     21  O   UNL     1       1.157  -2.119  -0.085  0.00  0.00    -0.459 OA
BRANCH  21  22
ATOM     22  C   UNL     1       1.193  -0.772   0.089  0.00  0.00    +0.124 A 
ATOM     23  C   UNL     1       0.012  -0.047   0.156  0.00  0.00    +0.048 A 
ATOM     24  C   UNL     1       0.052   1.322   0.334  0.00  0.00    +0.036 A 
ATOM     25  C   UNL     1       1.268   1.971   0.445  0.00  0.00    +0.126 A 
ATOM     26  C   UNL     1       2.446   1.251   0.379  0.00  0.00    +0.036 A 
ATOM     27  C   UNL     1       2.412  -0.118   0.201  0.00  0.00    +0.048 A 
BRANCH  25  28
ATOM     28  N   UNL     1       1.308   3.438   0.634  0.00  0.00    +0.056 N 
ATOM     29  O   UNL     1       0.270   4.073   0.693  0.00  0.00    -0.126 OA
ATOM     30  O   UNL     1       2.378   4.011   0.732  0.00  0.00    -0.126 OA
ENDBRANCH  25  28
ENDBRANCH  21  22
ENDBRANCH   6  21
BRANCH   4  31
ATOM     31  C   UNL     1       4.088  -2.770   3.141  0.00  0.00    +0.193 C 
BRANCH  31  32
ATOM     32  O   UNL     1       4.409  -1.381   3.231  0.00  0.00    -0.392 OA
ATOM     33  H   UNL     1       5.162  -1.188   3.806  0.00  0.00    +0.210 HD
ENDBRANCH  31  32
ENDBRANCH   4  31
TORSDOF 8
