REMARK  Name = ZINC11862780
REMARK  4 active torsions:
REMARK  status: ('A' for Active; 'I' for Inactive)
REMARK    1  A    between atoms: C_4  and  O_9
REMARK    2  A    between atoms: C_5  and  C_7
REMARK    3  A    between atoms: O_9  and  C_10
REMARK    4  A    between atoms: C_10  and  N_39
REMARK                            x       y       z     vdW  Elec       q    Type
REMARK                         _______ _______ _______ _____ _____    ______ ____
ROOT
ATOM      1  C   UNL     1       0.564   5.696  -1.737  0.00  0.00    +0.157 C 
ENDROOT
BRANCH   1  11
ATOM      2  C   UNL     1       0.997   3.329  -1.996  0.00  0.00    -0.069 C 
ATOM      3  C   UNL     1       1.800   2.152  -1.433  0.00  0.00    +0.046 C 
ATOM      4  C   UNL     1       1.348   1.873  -0.001  0.00  0.00    +0.167 C 
ATOM      5  C   UNL     1       1.504   3.130   0.853  0.00  0.00    +0.046 C 
ATOM      6  C   UNL     1       0.711   4.275   0.217  0.00  0.00    -0.069 C 
ATOM      7  O   UNL     1      -0.017   1.436   0.010  0.00  0.00    -0.346 OA
ATOM      8  C   UNL     1       0.002  -0.004   0.002  0.00  0.00    +0.191 C 
ATOM      9  C   UNL     1       1.499  -0.386   0.020  0.00  0.00    +0.191 C 
ATOM     10  O   UNL     1       2.131   0.802   0.559  0.00  0.00    -0.346 OA
ATOM     11  N   UNL     1       1.229   4.516  -1.147  0.00  0.00    +0.402 N 
ATOM     12  H   UNL     1       2.238   4.695  -1.092  0.00  0.00    -0.077 HD
ENDBRANCH   1  11
BRANCH   1  13
ATOM     13  O   UNL     1       0.259   6.636  -0.705  0.00  0.00    -0.509 OA
BRANCH  13  17
ATOM     14  C   UNL     1       3.364   9.001   0.656  0.00  0.00    +0.001 A 
ATOM     15  C   UNL     1       3.582   8.066  -0.343  0.00  0.00    +0.004 A 
ATOM     16  C   UNL     1       2.548   7.272  -0.795  0.00  0.00    +0.046 A 
ATOM     17  C   UNL     1       1.277   7.412  -0.258  0.00  0.00    +0.132 A 
ATOM     18  C   UNL     1       1.051   8.356   0.754  0.00  0.00    +0.105 A 
ATOM     19  C   UNL     1       2.109   9.150   1.206  0.00  0.00    +0.019 A 
BRANCH  18  20
ATOM     20  C   UNL     1      -0.293   8.510   1.338  0.00  0.00    +0.390 C 
ATOM     21  O   UNL     1      -1.210   7.818   0.943  0.00  0.00    -0.240 OA
ATOM     22  O   UNL     1      -0.506   9.419   2.310  0.00  0.00    -0.240 OA
ENDBRANCH  18  20
ENDBRANCH  13  17
ENDBRANCH   1  13
TORSDOF 4
