REMARK  Name = ZINC66535250
REMARK  5 active torsions:
REMARK  status: ('A' for Active; 'I' for Inactive)
REMARK    1  A    between atoms: N_4  and  C_6
REMARK    2  A    between atoms: C_6  and  C_7
REMARK    3  A    between atoms: N_12  and  C_13
REMARK    4  A    between atoms: C_13  and  C_14
REMARK    5  A    between atoms: C_19  and  C_22
REMARK                            x       y       z     vdW  Elec       q    Type
REMARK                         _______ _______ _______ _____ _____    ______ ____
ROOT
ATOM      1  C   UNL     1      -2.133  -0.637  -0.176  0.00  0.00    +0.199 C 
ATOM      2  O   UNL     1      -2.814  -1.367  -0.865  0.00  0.00    -0.278 OA
ATOM      3  N   UNL     1      -2.645   0.517   0.295  0.00  0.00    -0.303 N 
ATOM      4  C   UNL     1      -1.800   1.466   1.032  0.00  0.00    +0.108 C 
ATOM      5  C   UNL     1      -2.467   1.780   2.375  0.00  0.00    +0.032 C 
ATOM      6  C   UNL     1      -3.895   2.272   2.127  0.00  0.00    +0.078 C 
ATOM      7  C   UNL     1      -4.702   1.173   1.433  0.00  0.00    +0.032 C 
ATOM      8  C   UNL     1      -4.058   0.854   0.075  0.00  0.00    +0.108 C 
ENDROOT
BRANCH   6   9
ATOM      9  C   UNL     1      -4.543   2.615   3.444  0.00  0.00    +0.219 C 
ATOM     10  O   UNL     1      -5.083   1.748   4.098  0.00  0.00    -0.275 OA
ATOM     11  N   UNL     1      -4.524   3.885   3.894  0.00  0.00    -0.301 N 
ATOM     12  C   UNL     1      -4.006   5.047   3.158  0.00  0.00    +0.108 C 
ATOM     13  C   UNL     1      -4.167   6.279   4.073  0.00  0.00    +0.020 C 
ATOM     14  C   UNL     1      -4.245   5.651   5.490  0.00  0.00    +0.020 C 
ATOM     15  C   UNL     1      -5.024   4.340   5.204  0.00  0.00    +0.108 C 
ENDBRANCH   6   9
BRANCH   1  16
ATOM     16  C   UNL     1      -0.713  -1.021   0.153  0.00  0.00    +0.019 C 
BRANCH  16  21
ATOM     17  C   UNL     1       0.981  -2.704  -0.143  0.00  0.00    -0.085 C 
ATOM     18  C   UNL     1       1.027  -3.972   0.736  0.00  0.00    -0.019 C 
ATOM     19  C   UNL     1      -0.366  -4.612   0.501  0.00  0.00    -0.020 C 
ATOM     20  C   UNL     1      -1.268  -3.359   0.370  0.00  0.00    -0.078 C 
ATOM     21  N   UNL     1      -0.439  -2.370  -0.359  0.00  0.00    +0.386 N 
ATOM     22  H   UNL     1      -0.651  -2.408  -1.345  0.00  0.00    -0.081 HD
BRANCH  17  23
ATOM     23  C   UNL     1       1.684  -1.549   0.572  0.00  0.00    -0.094 C 
BRANCH  23  27
ATOM     24  C   UNL     1       5.203  -1.307  -0.361  0.00  0.00    -0.020 C 
ATOM     25  C   UNL     1       5.273  -0.971   1.147  0.00  0.00    -0.020 C 
ATOM     26  C   UNL     1       3.782  -0.816   1.537  0.00  0.00    -0.079 C 
ATOM     27  N   UNL     1       3.109  -1.868   0.733  0.00  0.00    +0.379 N 
ATOM     28  C   UNL     1       3.784  -1.864  -0.583  0.00  0.00    -0.079 C 
ATOM     29  H   UNL     1       3.218  -2.768   1.177  0.00  0.00    -0.082 HD
ENDBRANCH  23  27
ENDBRANCH  17  23
ENDBRANCH  16  21
ENDBRANCH   1  16
TORSDOF 5
