REMARK  Name = ZINC11620168
REMARK  16 active torsions:
REMARK  status: ('A' for Active; 'I' for Inactive)
REMARK    1  A    between atoms: C_1  and  C_2
REMARK    2  A    between atoms: C_3  and  C_27
REMARK    3  A    between atoms: C_4  and  N_10
REMARK    4  A    between atoms: C_6  and  C_7
REMARK    5  A    between atoms: C_11  and  C_13
REMARK    6  A    between atoms: C_13  and  N_14
REMARK    7  A    between atoms: N_14  and  C_15
REMARK    8  A    between atoms: C_17  and  N_23
REMARK    9  A    between atoms: C_20  and  O_21
REMARK   10  A    between atoms: O_21  and  C_22
REMARK   11  A    between atoms: C_24  and  C_26
REMARK   12  A    between atoms: C_27  and  O_29
REMARK   13  A    between atoms: O_29  and  C_30
REMARK   14  A    between atoms: C_30  and  C_31
REMARK   15  A    between atoms: C_31  and  O_32
REMARK   16  A    between atoms: O_32  and  C_33
REMARK                            x       y       z     vdW  Elec       q    Type
REMARK                         _______ _______ _______ _____ _____    ______ ____
ROOT
ATOM      1  N   UNL     1       3.967   7.135   0.873  0.00  0.00    -0.278 N 
ATOM      2  C   UNL     1       3.742   5.820   0.681  0.00  0.00    +0.235 C 
ATOM      3  O   UNL     1       4.674   5.046   0.631  0.00  0.00    -0.274 OA
ATOM      4  H   UNL     1       3.222   7.755   0.913  0.00  0.00    +0.155 HD
ENDROOT
BRANCH   1   8
ATOM      5  C   UNL     1       7.617  10.515   1.544  0.00  0.00    +0.046 C 
ATOM      6  C   UNL     1       7.062   9.131   1.325  0.00  0.00    -0.015 A 
ATOM      7  C   UNL     1       5.697   8.915   1.215  0.00  0.00    +0.091 A 
ATOM      8  C   UNL     1       5.260   7.601   1.011  0.00  0.00    +0.087 A 
ATOM      9  S   UNL     1       6.741   6.701   0.984  0.00  0.00    -0.068 S 
ATOM     10  C   UNL     1       7.888   8.045   1.226  0.00  0.00    +0.079 A 
BRANCH  10  11
ATOM     11  C   UNL     1       9.349   7.997   1.306  0.00  0.00    +0.248 C 
ATOM     12  O   UNL     1       9.983   9.021   1.482  0.00  0.00    -0.270 OA
ATOM     13  N   UNL     1       9.992   6.819   1.185  0.00  0.00    -0.325 N 
ATOM     14  H   UNL     1       9.487   6.002   1.044  0.00  0.00    +0.145 HD
ATOM     15  H   UNL     1      10.960   6.787   1.237  0.00  0.00    +0.145 HD
ENDBRANCH  10  11
BRANCH   7  16
ATOM     16  C   UNL     1       4.742  10.025   1.308  0.00  0.00    +0.342 C 
ATOM     17  O   UNL     1       4.285  10.345   2.389  0.00  0.00    -0.245 OA
BRANCH  16  18
ATOM     18  O   UNL     1       4.372  10.691   0.196  0.00  0.00    -0.459 OA
BRANCH  18  19
ATOM     19  C   UNL     1       3.425  11.779   0.363  0.00  0.00    +0.260 C 
BRANCH  19  20
ATOM     20  C   UNL     1       3.127  12.410  -0.998  0.00  0.00    +0.200 C 
BRANCH  20  21
ATOM     21  O   UNL     1       2.464  11.456  -1.831  0.00  0.00    -0.380 OA
ATOM     22  C   UNL     1       2.139  11.948  -3.133  0.00  0.00    +0.194 C 
ENDBRANCH  20  21
ENDBRANCH  19  20
ENDBRANCH  18  19
ENDBRANCH  16  18
ENDBRANCH   7  16
ENDBRANCH   1   8
BRANCH   2  23
ATOM     23  C   UNL     1       2.331   5.312   0.530  0.00  0.00    +0.198 C 
BRANCH  23  24
ATOM     24  N   UNL     1       2.353   3.861   0.335  0.00  0.00    -0.333 N 
ATOM     25  H   UNL     1       3.199   3.386   0.320  0.00  0.00    +0.147 HD
BRANCH  24  26
ATOM     26  C   UNL     1       1.154   3.158   0.170  0.00  0.00    +0.072 A 
ATOM     27  C   UNL     1      -0.056   3.835   0.190  0.00  0.00    +0.050 A 
ATOM     28  C   UNL     1      -1.243   3.136   0.025  0.00  0.00    +0.035 A 
ATOM     29  C   UNL     1      -1.219   1.761  -0.165  0.00  0.00    +0.027 A 
ATOM     30  C   UNL     1      -0.013   1.084  -0.180  0.00  0.00    +0.049 A 
ATOM     31  C   UNL     1       1.174   1.778  -0.016  0.00  0.00    +0.141 A 
BRANCH  28  32
ATOM     32  N   UNL     1      -2.466   3.818   0.046  0.00  0.00    -0.286 N 
ATOM     33  C   UNL     1      -3.564   3.218   0.547  0.00  0.00    +0.214 C 
ATOM     34  O   UNL     1      -3.475   2.126   1.066  0.00  0.00    -0.276 OA
ATOM     35  C   UNL     1      -4.903   3.905   0.461  0.00  0.00    +0.109 C 
ATOM     36  H   UNL     1      -2.523   4.723  -0.300  0.00  0.00    +0.155 HD
ENDBRANCH  28  32
BRANCH  31  37
ATOM     37  O   UNL     1       2.360   1.111  -0.037  0.00  0.00    -0.493 OA
ATOM     38  C   UNL     1       2.306  -0.304  -0.233  0.00  0.00    +0.277 C 
ENDBRANCH  31  37
ENDBRANCH  24  26
ENDBRANCH  23  24
ENDBRANCH   2  23
TORSDOF 12
