REMARK  Name = ZINC43214537
REMARK  13 active torsions:
REMARK  status: ('A' for Active; 'I' for Inactive)
REMARK    1  A    between atoms: C_1  and  C_2
REMARK    2  A    between atoms: C_2  and  O_4
REMARK    3  A    between atoms: O_4  and  C_5
REMARK    4  A    between atoms: C_5  and  C_6
REMARK    5  A    between atoms: C_8  and  O_40
REMARK    6  A    between atoms: C_10  and  O_39
REMARK    7  A    between atoms: C_12  and  O_38
REMARK    8  A    between atoms: C_14  and  O_17
REMARK    9  A    between atoms: O_17  and  C_18
REMARK   10  A    between atoms: C_23  and  O_24
REMARK   11  A    between atoms: O_24  and  C_25
REMARK   12  A    between atoms: C_28  and  C_31
REMARK   13  A    between atoms: C_34  and  O_37
REMARK                            x       y       z     vdW  Elec       q    Type
REMARK                         _______ _______ _______ _____ _____    ______ ____
ROOT
ATOM      1  C   UNL     1      -5.442  -1.022   0.260  0.00  0.00    +0.169 A 
ATOM      2  C   UNL     1      -4.890  -0.235   1.253  0.00  0.00    +0.096 A 
ATOM      3  C   UNL     1      -5.095   1.139   1.246  0.00  0.00    +0.142 A 
ATOM      4  C   UNL     1      -5.862   1.712   0.216  0.00  0.00    +0.068 A 
ATOM      5  C   UNL     1      -6.420   0.914  -0.782  0.00  0.00    +0.064 A 
ATOM      6  C   UNL     1      -6.205  -0.449  -0.762  0.00  0.00    +0.163 A 
ATOM      7  C   UNL     1      -6.048   3.176   0.223  0.00  0.00    +0.200 A 
ATOM      8  O   UNL     1      -6.869   3.726  -0.490  0.00  0.00    -0.286 OA
ATOM      9  C   UNL     1      -5.180   3.933   1.145  0.00  0.00    +0.064 A 
ATOM     10  C   UNL     1      -4.485   3.241   2.085  0.00  0.00    +0.208 A 
ATOM     11  O   UNL     1      -4.569   1.915   2.215  0.00  0.00    -0.462 OA
ENDROOT
BRANCH   9  12
ATOM     12  C   UNL     1      -5.069   5.409   1.048  0.00  0.00    -0.011 A 
ATOM     13  C   UNL     1      -6.177   6.212   1.313  0.00  0.00    +0.012 A 
ATOM     14  C   UNL     1      -6.071   7.584   1.222  0.00  0.00    +0.046 A 
ATOM     15  C   UNL     1      -4.862   8.166   0.866  0.00  0.00    +0.117 A 
ATOM     16  C   UNL     1      -3.756   7.369   0.602  0.00  0.00    +0.046 A 
ATOM     17  C   UNL     1      -3.855   5.996   0.697  0.00  0.00    +0.012 A 
BRANCH  15  18
ATOM     18  O   UNL     1      -4.760   9.518   0.777  0.00  0.00    -0.507 OA
ATOM     19  H   UNL     1      -4.499   9.948   1.603  0.00  0.00    +0.292 HD
ENDBRANCH  15  18
ENDBRANCH   9  12
BRANCH   6  20
ATOM     20  O   UNL     1      -6.740  -1.236  -1.734  0.00  0.00    -0.491 OA
ATOM     21  C   UNL     1      -7.508  -0.584  -2.747  0.00  0.00    +0.277 C 
ENDBRANCH   6  20
BRANCH   1  22
ATOM     22  O   UNL     1      -5.237  -2.365   0.273  0.00  0.00    -0.457 OA
BRANCH  22  27
ATOM     23  C   UNL     1      -2.463  -2.721   0.011  0.00  0.00    +0.191 C 
ATOM     24  C   UNL     1      -2.365  -4.243  -0.123  0.00  0.00    +0.178 C 
ATOM     25  C   UNL     1      -3.772  -4.845  -0.052  0.00  0.00    +0.180 C 
ATOM     26  C   UNL     1      -4.432  -4.418   1.263  0.00  0.00    +0.214 C 
ATOM     27  C   UNL     1      -4.449  -2.889   1.344  0.00  0.00    +0.339 C 
ATOM     28  O   UNL     1      -3.113  -2.393   1.240  0.00  0.00    -0.330 OA
BRANCH  26  29
ATOM     29  O   UNL     1      -5.771  -4.915   1.309  0.00  0.00    -0.383 OA
ATOM     30  H   UNL     1      -6.250  -4.682   2.116  0.00  0.00    +0.210 HD
ENDBRANCH  26  29
BRANCH  25  31
ATOM     31  O   UNL     1      -4.550  -4.374  -1.154  0.00  0.00    -0.386 OA
ATOM     32  H   UNL     1      -5.455  -4.716  -1.172  0.00  0.00    +0.210 HD
ENDBRANCH  25  31
BRANCH  24  33
ATOM     33  O   UNL     1      -1.566  -4.766   0.940  0.00  0.00    -0.386 OA
ATOM     34  H   UNL     1      -1.462  -5.727   0.917  0.00  0.00    +0.210 HD
ENDBRANCH  24  33
BRANCH  23  35
ATOM     35  C   UNL     1      -1.057  -2.117   0.001  0.00  0.00    +0.266 C 
BRANCH  35  36
ATOM     36  O   UNL     1      -1.151  -0.691   0.009  0.00  0.00    -0.462 OA
BRANCH  36  38
ATOM     37  C   UNL     1      -0.018   1.503   0.010  0.00  0.00    +0.136 C 
ATOM     38  C   UNL     1       0.002  -0.004   0.002  0.00  0.00    +0.304 C 
ATOM     39  O   UNL     1       1.056  -0.594  -0.011  0.00  0.00    -0.251 OA
ENDBRANCH  36  38
ENDBRANCH  35  36
ENDBRANCH  23  35
ENDBRANCH  22  27
ENDBRANCH   1  22
TORSDOF 11
