REMARK  Name = ZINC43211235
REMARK  12 active torsions:
REMARK  status: ('A' for Active; 'I' for Inactive)
REMARK    1  A    between atoms: C_1  and  C_2
REMARK    2  A    between atoms: C_2  and  C_3
REMARK    3  A    between atoms: C_3  and  C_4
REMARK    4  A    between atoms: C_4  and  N_5
REMARK    5  A    between atoms: C_10  and  C_25
REMARK    6  A    between atoms: C_13  and  C_18
REMARK    7  A    between atoms: C_13  and  C_22
REMARK    8  A    between atoms: C_18  and  C_19
REMARK    9  A    between atoms: C_19  and  C_20
REMARK   10  A    between atoms: C_19  and  C_21
REMARK   11  A    between atoms: C_28  and  O_32
REMARK   12  A    between atoms: C_29  and  O_31
REMARK                            x       y       z     vdW  Elec       q    Type
REMARK                         _______ _______ _______ _____ _____    ______ ____
ROOT
ATOM      1  N   UNL     1      -1.597  -3.598  -0.353  0.00  0.00    -0.242 N 
ATOM      2  C   UNL     1      -2.181  -3.605   0.890  0.00  0.00    +0.224 C 
ATOM      3  O   UNL     1      -1.668  -3.319   1.950  0.00  0.00    -0.275 OA
ATOM      4  C   UNL     1      -3.541  -4.027   0.651  0.00  0.00    +0.077 C 
ATOM      5  C   UNL     1      -4.858  -4.009   1.303  0.00  0.00    -0.027 C 
ATOM      6  N   UNL     1      -5.829  -4.241   0.183  0.00  0.00    +0.395 N 
ATOM      7  C   UNL     1      -5.047  -4.261  -1.095  0.00  0.00    +0.048 C 
ATOM      8  C   UNL     1      -3.842  -3.360  -0.750  0.00  0.00    +0.086 C 
ATOM      9  C   UNL     1      -2.509  -3.687  -1.366  0.00  0.00    +0.225 C 
ATOM     10  O   UNL     1      -2.291  -3.974  -2.523  0.00  0.00    -0.275 OA
ATOM     11  H   UNL     1      -6.296  -5.126   0.313  0.00  0.00    -0.083 HD
ATOM     12  H   UNL     1      -6.508  -3.495   0.158  0.00  0.00    -0.083 HD
ENDROOT
BRANCH   5  13
ATOM     13  C   UNL     1      -5.107  -2.672   1.952  0.00  0.00    -0.057 A 
ATOM     14  C   UNL     1      -5.529  -1.602   1.185  0.00  0.00    +0.006 A 
ATOM     15  C   UNL     1      -5.759  -0.373   1.775  0.00  0.00    +0.049 A 
ATOM     16  C   UNL     1      -5.566  -0.211   3.138  0.00  0.00    +0.158 A 
ATOM     17  C   UNL     1      -5.142  -1.289   3.909  0.00  0.00    +0.158 A 
ATOM     18  C   UNL     1      -4.918  -2.519   3.312  0.00  0.00    +0.051 A 
BRANCH  17  19
ATOM     19  O   UNL     1      -4.952  -1.136   5.247  0.00  0.00    -0.503 OA
ATOM     20  H   UNL     1      -5.738  -1.318   5.780  0.00  0.00    +0.292 HD
ENDBRANCH  17  19
BRANCH  16  21
ATOM     21  O   UNL     1      -5.792   0.997   3.719  0.00  0.00    -0.503 OA
ATOM     22  H   UNL     1      -6.698   1.120   4.033  0.00  0.00    +0.292 HD
ENDBRANCH  16  21
ENDBRANCH   5  13
BRANCH   7  23
ATOM     23  C   UNL     1      -5.848  -3.660  -2.221  0.00  0.00    +0.346 C 
ATOM     24  O   UNL     1      -6.984  -3.266  -2.018  0.00  0.00    -0.248 OA
ATOM     25  O   UNL     1      -5.360  -3.567  -3.335  0.00  0.00    -0.248 OA
ENDBRANCH   7  23
BRANCH   1  26
ATOM     26  C   UNL     1      -0.152  -3.501  -0.570  0.00  0.00    +0.116 C 
BRANCH  26  27
ATOM     27  C   UNL     1       0.249  -2.028  -0.679  0.00  0.00    +0.019 C 
BRANCH  27  29
ATOM     28  C   UNL     1       2.159  -0.453  -1.015  0.00  0.00    +0.004 C 
ATOM     29  C   UNL     1       1.759  -1.926  -0.906  0.00  0.00    -0.002 C 
ENDBRANCH  27  29
ENDBRANCH  26  27
ENDBRANCH   1  26
BRANCH   7  30
ATOM     30  C   UNL     1      -4.608  -5.686  -1.440  0.00  0.00    +0.002 C 
BRANCH  30  31
ATOM     31  C   UNL     1      -5.835  -6.521  -1.812  0.00  0.00    -0.018 C 
ATOM     32  C   UNL     1      -5.383  -7.840  -2.442  0.00  0.00    +0.007 C 
ATOM     33  C   UNL     1      -6.655  -6.811  -0.554  0.00  0.00    +0.007 C 
ENDBRANCH  30  31
ENDBRANCH   7  30
TORSDOF 9
