REMARK  Name = ZINC58687068
REMARK  13 active torsions:
REMARK  status: ('A' for Active; 'I' for Inactive)
REMARK    1  A    between atoms: C_1  and  C_2
REMARK    2  A    between atoms: C_2  and  N_3
REMARK    3  A    between atoms: N_3  and  C_4
REMARK    4  A    between atoms: N_3  and  C_6
REMARK    5  A    between atoms: C_4  and  C_5
REMARK    6  A    between atoms: C_6  and  C_7
REMARK    7  A    between atoms: C_12  and  C_13
REMARK    8  A    between atoms: C_13  and  N_14
REMARK    9  A    between atoms: N_17  and  N_18
REMARK   10  A    between atoms: C_19  and  C_21
REMARK   11  A    between atoms: C_24  and  C_26
REMARK   12  A    between atoms: C_26  and  O_27
REMARK   13  A    between atoms: O_27  and  C_28
REMARK                            x       y       z     vdW  Elec       q    Type
REMARK                         _______ _______ _______ _____ _____    ______ ____
ROOT
ATOM      1  N   UNL     1       4.072  -3.551  -0.187  0.00  0.00    -0.294 N 
ATOM      2  C   UNL     1       4.613  -3.321   1.026  0.00  0.00    +0.316 C 
ATOM      3  O   UNL     1       5.079  -2.228   1.286  0.00  0.00    -0.251 OA
ATOM      4  N   UNL     1       4.638  -4.301   1.950  0.00  0.00    -0.218 N 
ATOM      5  H   UNL     1       3.700  -4.423  -0.394  0.00  0.00    +0.151 HD
ATOM      6  H   UNL     1       5.029  -4.136   2.822  0.00  0.00    +0.174 HD
ENDROOT
BRANCH   4   7
ATOM      7  N   UNL     1       4.101  -5.560   1.650  0.00  0.00    -0.227 N 
ATOM      8  C   UNL     1       4.127  -6.541   2.575  0.00  0.00    +0.295 C 
ATOM      9  O   UNL     1       4.616  -6.333   3.669  0.00  0.00    -0.265 OA
ATOM     10  H   UNL     1       3.712  -5.726   0.778  0.00  0.00    +0.173 HD
BRANCH   8  11
ATOM     11  C   UNL     1       3.564  -7.859   2.261  0.00  0.00    +0.191 A 
ATOM     12  C   UNL     1       3.521  -8.933   3.102  0.00  0.00    +0.055 A 
ATOM     13  C   UNL     1       2.902  -9.975   2.394  0.00  0.00    +0.049 A 
ATOM     14  C   UNL     1       2.599  -9.497   1.167  0.00  0.00    +0.143 A 
ATOM     15  O   UNL     1       2.995  -8.220   1.092  0.00  0.00    -0.452 OA
BRANCH  14  16
ATOM     16  C   UNL     1       1.922 -10.272   0.066  0.00  0.00    +0.303 C 
BRANCH  16  17
ATOM     17  O   UNL     1       0.506 -10.112   0.172  0.00  0.00    -0.484 OA
BRANCH  17  18
ATOM     18  C   UNL     1      -0.259 -10.751  -0.752  0.00  0.00    +0.121 A 
ATOM     19  C   UNL     1       0.342 -11.521  -1.738  0.00  0.00    +0.045 A 
ATOM     20  C   UNL     1      -0.438 -12.170  -2.676  0.00  0.00    +0.004 A 
ATOM     21  C   UNL     1      -1.815 -12.052  -2.633  0.00  0.00    +0.000 A 
ATOM     22  C   UNL     1      -2.415 -11.284  -1.653  0.00  0.00    +0.004 A 
ATOM     23  C   UNL     1      -1.641 -10.639  -0.708  0.00  0.00    +0.045 A 
ENDBRANCH  17  18
ENDBRANCH  16  17
ENDBRANCH  14  16
ENDBRANCH   8  11
ENDBRANCH   4   7
BRANCH   1  24
ATOM     24  C   UNL     1       4.044  -2.485  -1.191  0.00  0.00    +0.141 C 
BRANCH  24  30
ATOM     25  C   UNL     1       2.014  -3.101  -2.519  0.00  0.00    -0.059 A 
ATOM     26  C   UNL     1       1.414  -3.565  -3.675  0.00  0.00    +0.002 A 
ATOM     27  C   UNL     1       2.191  -3.930  -4.758  0.00  0.00    +0.000 A 
ATOM     28  C   UNL     1       3.568  -3.831  -4.686  0.00  0.00    +0.000 A 
ATOM     29  C   UNL     1       4.168  -3.366  -3.531  0.00  0.00    +0.005 A 
ATOM     30  C   UNL     1       3.390  -2.997  -2.449  0.00  0.00    -0.029 A 
BRANCH  25  31
ATOM     31  C   UNL     1       1.167  -2.703  -1.338  0.00  0.00    -0.043 C 
BRANCH  31  32
ATOM     32  N   UNL     1       1.019  -1.242  -1.312  0.00  0.00    +0.382 N 
ATOM     33  H   UNL     1       1.932  -0.811  -1.309  0.00  0.00    -0.081 HD
BRANCH  32  35
ATOM     34  C   UNL     1       0.229   0.726  -2.538  0.00  0.00    -0.017 C 
ATOM     35  C   UNL     1       0.275  -0.803  -2.500  0.00  0.00    -0.082 C 
ENDBRANCH  32  35
BRANCH  32  36
ATOM     36  C   UNL     1       0.287  -0.845  -0.102  0.00  0.00    -0.082 C 
ATOM     37  C   UNL     1       1.129  -1.171   1.133  0.00  0.00    -0.017 C 
ENDBRANCH  32  36
ENDBRANCH  31  32
ENDBRANCH  25  31
ENDBRANCH  24  30
ENDBRANCH   1  24
TORSDOF 11
