REMARK  Name = ZINC67144455
REMARK  7 active torsions:
REMARK  status: ('A' for Active; 'I' for Inactive)
REMARK    1  A    between atoms: C_3  and  N_8
REMARK    2  A    between atoms: N_8  and  N_9
REMARK    3  A    between atoms: C_10  and  C_12
REMARK    4  A    between atoms: C_12  and  C_13
REMARK    5  A    between atoms: C_13  and  C_14
REMARK    6  A    between atoms: C_14  and  C_15
REMARK    7  A    between atoms: C_15  and  C_16
REMARK                            x       y       z     vdW  Elec       q    Type
REMARK                         _______ _______ _______ _____ _____    ______ ____
ROOT
ATOM      1  C   UNL     1       7.277   1.392  -0.061  0.00  0.00    +0.097 C 
ENDROOT
BRANCH   1   3
ATOM      2  N   UNL     1       4.804   1.439  -0.036  0.00  0.00    -0.237 N 
ATOM      3  C   UNL     1       5.962   2.128  -0.044  0.00  0.00    +0.229 C 
ATOM      4  O   UNL     1       5.947   3.341  -0.038  0.00  0.00    -0.274 OA
ATOM      5  H   UNL     1       4.817   0.469  -0.041  0.00  0.00    +0.173 HD
BRANCH   2   6
ATOM      6  N   UNL     1       3.582   2.124  -0.021  0.00  0.00    -0.264 N 
ATOM      7  H   UNL     1       3.569   3.094  -0.016  0.00  0.00    +0.170 HD
BRANCH   6  10
ATOM      8  C   UNL     1      -0.017   1.378   0.010  0.00  0.00    +0.003 A 
ATOM      9  C   UNL     1       1.169   2.087   0.002  0.00  0.00    +0.024 A 
ATOM     10  C   UNL     1       2.382   1.410  -0.013  0.00  0.00    +0.046 A 
ATOM     11  C   UNL     1       2.398   0.021  -0.021  0.00  0.00    +0.044 A 
ATOM     12  C   UNL     1       1.208  -0.683  -0.013  0.00  0.00    +0.043 A 
ATOM     13  C   UNL     1       0.002  -0.004   0.002  0.00  0.00    +0.020 A 
ATOM     14 CL   UNL     1       1.227  -2.418  -0.023  0.00  0.00    -0.083 Cl
ENDBRANCH   6  10
ENDBRANCH   2   6
ENDBRANCH   1   3
BRANCH   1  15
ATOM     15  C   UNL     1       8.427   2.401  -0.067  0.00  0.00    +0.009 C 
BRANCH  15  16
ATOM     16  C   UNL     1       9.762   1.654  -0.084  0.00  0.00    +0.002 C 
BRANCH  16  17
ATOM     17  C   UNL     1      10.912   2.663  -0.090  0.00  0.00    +0.016 C 
BRANCH  17  18
ATOM     18  C   UNL     1      12.246   1.916  -0.106  0.00  0.00    +0.069 C 
ATOM     19  C   UNL     1      13.409   2.875  -0.080  0.00  0.00    +0.108 C 
ATOM     20  C   UNL     1      14.636   2.188  -0.753  0.00  0.00    +0.105 C 
ATOM     21  C   UNL     1      14.182   1.845  -2.170  0.00  0.00    +0.093 C 
ATOM     22  S   UNL     1      12.527   1.082  -1.738  0.00  0.00    -0.154 S 
ATOM     23  N   UNL     1      15.636   3.201  -0.506  0.00  0.00    -0.294 N 
ATOM     24  C   UNL     1      15.294   3.767   0.691  0.00  0.00    +0.300 C 
ATOM     25  O   UNL     1      16.037   4.480   1.336  0.00  0.00    -0.253 OA
ATOM     26  N   UNL     1      14.036   3.428   1.084  0.00  0.00    -0.294 N 
ATOM     27  H   UNL     1      16.391   3.432  -1.069  0.00  0.00    +0.151 HD
ATOM     28  H   UNL     1      13.647   3.543   1.965  0.00  0.00    +0.151 HD
ENDBRANCH  17  18
ENDBRANCH  16  17
ENDBRANCH  15  16
ENDBRANCH   1  15
TORSDOF 7
