REMARK  Name = ZINC67576423
REMARK  7 active torsions:
REMARK  status: ('A' for Active; 'I' for Inactive)
REMARK    1  A    between atoms: C_1  and  C_2
REMARK    2  A    between atoms: C_2  and  C_4
REMARK    3  A    between atoms: C_2  and  N_13
REMARK    4  A    between atoms: C_8  and  N_10
REMARK    5  A    between atoms: N_16  and  C_17
REMARK    6  A    between atoms: C_20  and  N_24
REMARK    7  A    between atoms: C_25  and  C_27
REMARK                            x       y       z     vdW  Elec       q    Type
REMARK                         _______ _______ _______ _____ _____    ______ ____
ROOT
ATOM      1  N   UNL     1      -1.373  -0.522   0.014  0.00  0.00    -0.293 N 
ATOM      2  C   UNL     1      -2.048  -0.661  -1.145  0.00  0.00    +0.304 C 
ATOM      3  O   UNL     1      -1.518  -0.360  -2.197  0.00  0.00    -0.252 OA
ATOM      4  N   UNL     1      -3.311  -1.132  -1.137  0.00  0.00    -0.268 N 
ATOM      5  H   UNL     1      -1.796  -0.762   0.853  0.00  0.00    +0.151 HD
ATOM      6  H   UNL     1      -3.705  -1.449  -0.310  0.00  0.00    +0.156 HD
ENDROOT
BRANCH   4   7
ATOM      7  C   UNL     1      -4.054  -1.165  -2.325  0.00  0.00    +0.053 A 
ATOM      8  C   UNL     1      -3.748  -0.291  -3.360  0.00  0.00    +0.026 A 
ATOM      9  C   UNL     1      -4.480  -0.322  -4.530  0.00  0.00    +0.025 A 
ATOM     10  C   UNL     1      -5.522  -1.229  -4.673  0.00  0.00    +0.035 A 
ATOM     11  C   UNL     1      -5.829  -2.103  -3.639  0.00  0.00    +0.045 A 
ATOM     12  C   UNL     1      -5.093  -2.076  -2.470  0.00  0.00    +0.064 A 
ATOM     13 CL   UNL     1      -5.471  -3.174  -1.180  0.00  0.00    -0.082 Cl
BRANCH  10  14
ATOM     14  N   UNL     1      -6.265  -1.260  -5.861  0.00  0.00    -0.286 N 
ATOM     15  C   UNL     1      -7.584  -1.533  -5.823  0.00  0.00    +0.214 C 
ATOM     16  O   UNL     1      -8.112  -1.835  -4.774  0.00  0.00    -0.276 OA
ATOM     17  C   UNL     1      -8.404  -1.462  -7.086  0.00  0.00    +0.109 C 
ATOM     18  H   UNL     1      -5.829  -1.086  -6.710  0.00  0.00    +0.155 HD
ENDBRANCH  10  14
ENDBRANCH   4   7
BRANCH   1  20
ATOM     19  C   UNL     1      -0.028   1.520   0.009  0.00  0.00    +0.033 C 
ATOM     20  C   UNL     1      -0.001  -0.010   0.005  0.00  0.00    +0.102 C 
BRANCH  20  21
ATOM     21  C   UNL     1       0.726  -0.502   1.230  0.00  0.00    -0.025 A 
ATOM     22  C   UNL     1       0.073  -0.556   2.447  0.00  0.00    +0.005 A 
ATOM     23  C   UNL     1       0.740  -1.007   3.571  0.00  0.00    +0.003 A 
ATOM     24  C   UNL     1       2.061  -1.405   3.477  0.00  0.00    +0.033 A 
ATOM     25  C   UNL     1       2.714  -1.353   2.260  0.00  0.00    +0.127 A 
ATOM     26  C   UNL     1       2.045  -0.905   1.135  0.00  0.00    +0.038 A 
BRANCH  25  27
ATOM     27  N   UNL     1       4.128  -1.779   2.159  0.00  0.00    +0.056 N 
ATOM     28  O   UNL     1       4.711  -2.173   3.142  0.00  0.00    -0.126 OA
ATOM     29  O   UNL     1       4.699  -1.732   1.095  0.00  0.00    -0.126 OA
ENDBRANCH  25  27
ENDBRANCH  20  21
ENDBRANCH   1  20
TORSDOF 5
