REMARK  Name = ZINC62755161
REMARK  5 active torsions:
REMARK  status: ('A' for Active; 'I' for Inactive)
REMARK    1  A    between atoms: C_1  and  C_2
REMARK    2  A    between atoms: C_8  and  N_10
REMARK    3  A    between atoms: N_10  and  C_11
REMARK    4  A    between atoms: N_10  and  C_12
REMARK    5  A    between atoms: C_18  and  C_20
REMARK                            x       y       z     vdW  Elec       q    Type
REMARK                         _______ _______ _______ _____ _____    ______ ____
ROOT
ATOM      1  N   UNL     1       2.233  -0.055   1.109  0.00  0.00    +0.382 N 
ATOM      2  C   UNL     1       2.975  -0.807   2.129  0.00  0.00    -0.095 C 
ATOM      3  H   UNL     1       2.337   0.934   1.278  0.00  0.00    -0.081 HD
ENDROOT
BRANCH   1  10
ATOM      4  C   UNL     1       0.297   1.295  -0.574  0.00  0.00    +0.006 C 
ATOM      5  C   UNL     1       0.161  -0.180  -0.192  0.00  0.00    -0.028 C 
ATOM      6  C   UNL     1      -1.321  -0.555  -0.124  0.00  0.00    +0.002 C 
ATOM      7  C   UNL     1      -2.018   0.311   0.927  0.00  0.00    +0.000 C 
ATOM      8  C   UNL     1      -1.369   0.076   2.293  0.00  0.00    -0.002 C 
ATOM      9  C   UNL     1       0.112   0.451   2.225  0.00  0.00    -0.015 C 
ATOM     10  C   UNL     1       0.810  -0.415   1.174  0.00  0.00    -0.066 C 
ENDBRANCH   1  10
BRANCH   1  11
ATOM     11  C   UNL     1       2.760  -0.384  -0.222  0.00  0.00    -0.055 C 
ATOM     12  C   UNL     1       2.037   0.454  -1.279  0.00  0.00    -0.014 C 
ATOM     13  C   UNL     1       2.586   0.112  -2.665  0.00  0.00    -0.002 C 
ATOM     14  C   UNL     1       2.361  -1.374  -2.950  0.00  0.00    +0.001 C 
ATOM     15  C   UNL     1       3.085  -2.212  -1.894  0.00  0.00    +0.013 C 
ATOM     16  C   UNL     1       2.535  -1.870  -0.508  0.00  0.00    +0.089 C 
BRANCH  16  17
ATOM     17  C   UNL     1       1.060  -2.172  -0.464  0.00  0.00    +0.357 C 
ATOM     18  O   UNL     1       0.591  -3.030  -1.192  0.00  0.00    -0.246 OA
ATOM     19  O   UNL     1       0.334  -1.558   0.300  0.00  0.00    -0.246 OA
ENDBRANCH  16  17
ENDBRANCH   1  11
TORSDOF 3
