REMARK  Name = ZINC04355530
REMARK  13 active torsions:
REMARK  status: ('A' for Active; 'I' for Inactive)
REMARK    1  A    between atoms: C_1  and  C_2
REMARK    2  A    between atoms: C_2  and  C_3
REMARK    3  A    between atoms: C_3  and  C_5
REMARK    4  A    between atoms: C_3  and  C_6
REMARK    5  A    between atoms: C_6  and  C_8
REMARK    6  A    between atoms: C_6  and  N_19
REMARK    7  A    between atoms: C_10  and  C_13
REMARK    8  A    between atoms: C_20  and  C_22
REMARK    9  A    between atoms: C_22  and  C_23
REMARK   10  A    between atoms: C_23  and  C_24
REMARK   11  A    between atoms: C_24  and  C_25
REMARK   12  A    between atoms: C_25  and  C_26
REMARK   13  A    between atoms: C_26  and  N_27
REMARK                            x       y       z     vdW  Elec       q    Type
REMARK                         _______ _______ _______ _____ _____    ______ ____
ROOT
ATOM      1  C   UNL     1      -0.161  -0.344   2.472  0.00  0.00    +0.164 C 
ENDROOT
BRANCH   1   2
ATOM      2  C   UNL     1      -0.397   1.139   2.599  0.00  0.00    +0.248 A 
ATOM      3  N   UNL     1      -1.483   1.769   2.254  0.00  0.00    -0.190 NA
ATOM      4  C   UNL     1      -1.353   3.084   2.505  0.00  0.00    +0.202 A 
ATOM      5  N   UNL     1      -0.166   3.296   3.018  0.00  0.00    -0.056 NA
ATOM      6  O   UNL     1       0.472   2.031   3.092  0.00  0.00    -0.336 OA
BRANCH   4   7
ATOM      7  C   UNL     1      -2.381   4.122   2.244  0.00  0.00    +0.022 A 
ATOM      8  C   UNL     1      -3.612   3.764   1.697  0.00  0.00    +0.012 A 
ATOM      9  C   UNL     1      -4.565   4.733   1.456  0.00  0.00    +0.001 A 
ATOM     10  C   UNL     1      -4.300   6.057   1.756  0.00  0.00    +0.000 A 
ATOM     11  C   UNL     1      -3.080   6.418   2.300  0.00  0.00    +0.001 A 
ATOM     12  C   UNL     1      -2.122   5.456   2.550  0.00  0.00    +0.012 A 
ENDBRANCH   4   7
ENDBRANCH   1   2
BRANCH   1  13
ATOM     13  N   UNL     1       0.407  -0.857   3.721  0.00  0.00    -0.304 N 
ATOM     14  C   UNL     1       0.245  -2.153   4.053  0.00  0.00    +0.214 C 
ATOM     15  O   UNL     1      -0.371  -2.895   3.317  0.00  0.00    -0.276 OA
ATOM     16  H   UNL     1       0.900  -0.264   4.309  0.00  0.00    +0.149 HD
BRANCH  14  17
ATOM     17  C   UNL     1       0.830  -2.681   5.338  0.00  0.00    +0.096 C 
BRANCH  17  18
ATOM     18  C   UNL     1       0.504  -4.170   5.473  0.00  0.00    +0.009 C 
BRANCH  18  19
ATOM     19  C   UNL     1       1.097  -4.705   6.777  0.00  0.00    -0.001 C 
BRANCH  19  20
ATOM     20  C   UNL     1       0.771  -6.194   6.912  0.00  0.00    -0.020 C 
BRANCH  20  21
ATOM     21  C   UNL     1       1.365  -6.730   8.216  0.00  0.00    -0.086 C 
BRANCH  21  22
ATOM     22  N   UNL     1       1.052  -8.159   8.346  0.00  0.00    +0.378 N 
ATOM     23  H   UNL     1       0.051  -8.285   8.355  0.00  0.00    -0.090 HD
ATOM     24  H   UNL     1       1.447  -8.662   7.565  0.00  0.00    -0.090 HD
ATOM     25  H   UNL     1       1.443  -8.513   9.206  0.00  0.00    -0.090 HD
ENDBRANCH  21  22
ENDBRANCH  20  21
ENDBRANCH  19  20
ENDBRANCH  18  19
ENDBRANCH  17  18
ENDBRANCH  14  17
ENDBRANCH   1  13
BRANCH   1  26
ATOM     26  C   UNL     1       0.814  -0.608   1.322  0.00  0.00    +0.015 C 
ATOM     27  C   UNL     1       1.006  -2.117   1.153  0.00  0.00    +0.010 C 
BRANCH  26  29
ATOM     28  C   UNL     1       1.280  -0.162  -1.091  0.00  0.00    +0.004 C 
ATOM     29  C   UNL     1       0.248  -0.018   0.029  0.00  0.00    +0.002 C 
ENDBRANCH  26  29
ENDBRANCH   1  26
TORSDOF 11
