REMARK  Name = ZINC48698579
REMARK  9 active torsions:
REMARK  status: ('A' for Active; 'I' for Inactive)
REMARK    1  A    between atoms: C_1  and  C_2
REMARK    2  A    between atoms: C_5  and  N_20
REMARK    3  A    between atoms: C_7  and  N_8
REMARK    4  A    between atoms: C_9  and  C_11
REMARK    5  A    between atoms: N_13  and  C_14
REMARK    6  A    between atoms: C_14  and  C_16
REMARK    7  A    between atoms: C_14  and  C_17
REMARK    8  A    between atoms: C_17  and  C_18
REMARK    9  A    between atoms: C_17  and  C_19
REMARK                            x       y       z     vdW  Elec       q    Type
REMARK                         _______ _______ _______ _____ _____    ______ ____
ROOT
ATOM      1  N   UNL     1       0.025  -0.016   2.416  0.00  0.00    -0.277 N 
ATOM      2  C   UNL     1      -0.056  -0.696   3.577  0.00  0.00    +0.303 C 
ATOM      3  O   UNL     1      -0.040  -1.910   3.572  0.00  0.00    -0.265 OA
ATOM      4  H   UNL     1       0.078   0.952   2.424  0.00  0.00    +0.155 HD
ENDROOT
BRANCH   1  11
ATOM      5  C   UNL     1      -1.268   1.182   0.182  0.00  0.00    +0.045 C 
ATOM      6  C   UNL     1      -0.586  -0.159   0.085  0.00  0.00    -0.029 A 
ATOM      7  C   UNL     1      -0.571  -0.841  -1.116  0.00  0.00    +0.007 A 
ATOM      8  C   UNL     1       0.055  -2.071  -1.206  0.00  0.00    +0.033 A 
ATOM      9  C   UNL     1       0.667  -2.622  -0.095  0.00  0.00    +0.128 A 
ATOM     10  C   UNL     1       0.655  -1.946   1.108  0.00  0.00    +0.056 A 
ATOM     11  C   UNL     1       0.033  -0.706   1.201  0.00  0.00    +0.039 A 
BRANCH   9  12
ATOM     12  N   UNL     1       1.335  -3.939  -0.197  0.00  0.00    +0.056 N 
ATOM     13  O   UNL     1       1.345  -4.532  -1.250  0.00  0.00    -0.126 OA
ATOM     14  O   UNL     1       1.870  -4.422   0.774  0.00  0.00    -0.126 OA
ENDBRANCH   9  12
ENDBRANCH   1  11
BRANCH   2  15
ATOM     15  C   UNL     1      -0.167   0.044   4.869  0.00  0.00    +0.300 C 
ATOM     16  O   UNL     1      -0.183   1.257   4.874  0.00  0.00    -0.265 OA
ATOM     17  N   UNL     1      -0.248  -0.636   6.030  0.00  0.00    -0.305 N 
ATOM     18  H   UNL     1      -0.235  -1.606   6.026  0.00  0.00    +0.149 HD
BRANCH  17  19
ATOM     19  C   UNL     1      -0.356   0.090   7.298  0.00  0.00    +0.073 C 
ATOM     20  C   UNL     1      -1.823   0.433   7.566  0.00  0.00    +0.028 C 
BRANCH  19  21
ATOM     21  C   UNL     1       0.178  -0.785   8.434  0.00  0.00    +0.003 C 
ATOM     22  C   UNL     1       1.645  -1.128   8.166  0.00  0.00    +0.009 C 
ATOM     23  C   UNL     1       0.065  -0.027   9.758  0.00  0.00    +0.009 C 
ENDBRANCH  19  21
ENDBRANCH  17  19
ENDBRANCH   2  15
TORSDOF 5
