REMARK  Name = ZINC39663272
REMARK  3 active torsions:
REMARK  status: ('A' for Active; 'I' for Inactive)
REMARK    1  A    between atoms: C_7  and  C_10
REMARK    2  A    between atoms: C_14  and  C_23
REMARK    3  A    between atoms: N_25  and  C_26
REMARK                            x       y       z     vdW  Elec       q    Type
REMARK                         _______ _______ _______ _____ _____    ______ ____
ROOT
ATOM      1  C   UNL     1       0.382  -3.115  -0.015  0.00  0.00    +0.248 C 
ATOM      2  O   UNL     1      -0.767  -2.734   0.106  0.00  0.00    -0.270 OA
ATOM      3  N   UNL     1       0.648  -4.431  -0.127  0.00  0.00    -0.296 N 
ATOM      4  C   UNL     1       1.974  -5.091  -0.156  0.00  0.00    +0.121 C 
ATOM      5  C   UNL     1       1.787  -6.380   0.675  0.00  0.00    +0.100 C 
ATOM      6  C   UNL     1       0.280  -6.675   0.608  0.00  0.00    -0.004 C 
ATOM      7  C   UNL     1      -0.322  -5.547  -0.243  0.00  0.00    +0.115 C 
ATOM      8  C   UNL     1       0.034  -8.027  -0.054  0.00  0.00    -0.010 C 
ATOM      9  C   UNL     1      -1.468  -8.324  -0.057  0.00  0.00    -0.082 C 
ATOM     10  N   UNL     1      -1.969  -8.335   1.323  0.00  0.00    +0.379 N 
ATOM     11  C   UNL     1      -1.814  -7.004   1.922  0.00  0.00    -0.082 C 
ATOM     12  C   UNL     1      -0.326  -6.651   2.009  0.00  0.00    -0.010 C 
ATOM     13  H   UNL     1      -2.945  -8.591   1.323  0.00  0.00    -0.086 HD
ATOM     14  H   UNL     1      -1.447  -9.009   1.863  0.00  0.00    -0.086 HD
ENDROOT
BRANCH   1  21
ATOM     15  C   UNL     1       0.338   0.985   1.836  0.00  0.00    +0.001 A 
ATOM     16  C   UNL     1       1.489   1.747   1.696  0.00  0.00    +0.001 A 
ATOM     17  C   UNL     1       2.572   1.231   1.012  0.00  0.00    +0.015 A 
ATOM     18  C   UNL     1       2.497  -0.037   0.476  0.00  0.00    +0.020 A 
ATOM     19  C   UNL     1       1.341  -0.831   0.605  0.00  0.00    +0.001 A 
ATOM     20  C   UNL     1       0.253  -0.278   1.307  0.00  0.00    +0.010 A 
ATOM     21  C   UNL     1       1.480  -2.140  -0.039  0.00  0.00    +0.052 A 
ATOM     22  C   UNL     1       2.655  -2.424  -0.657  0.00  0.00    +0.059 A 
ATOM     23  S   UNL     1       3.610  -1.061  -0.447  0.00  0.00    -0.096 S 
ENDBRANCH   1  21
BRANCH   5  24
ATOM     24  C   UNL     1       2.217  -6.151   2.102  0.00  0.00    +0.218 C 
ATOM     25  O   UNL     1       2.034  -5.072   2.624  0.00  0.00    -0.275 OA
ATOM     26  N   UNL     1       2.804  -7.146   2.796  0.00  0.00    -0.314 N 
ATOM     27  H   UNL     1       2.950  -8.009   2.378  0.00  0.00    +0.149 HD
BRANCH  26  28
ATOM     28  C   UNL     1       3.222  -6.924   4.183  0.00  0.00    +0.059 C 
ATOM     29  C   UNL     1       2.039  -7.175   5.121  0.00  0.00    -0.056 C 
ATOM     30  N   UNL     1       2.361  -8.255   6.056  0.00  0.00    +0.381 N 
ATOM     31  C   UNL     1       2.620  -9.503   5.333  0.00  0.00    -0.078 C 
ATOM     32  C   UNL     1       3.822  -9.329   4.402  0.00  0.00    -0.014 C 
ATOM     33  C   UNL     1       4.355  -7.894   4.540  0.00  0.00    +0.004 C 
ATOM     34  C   UNL     1       4.745  -7.664   6.006  0.00  0.00    -0.014 C 
ATOM     35  C   UNL     1       3.512  -7.892   6.887  0.00  0.00    -0.078 C 
ATOM     36  H   UNL     1       1.566  -8.403   6.659  0.00  0.00    -0.082 HD
ENDBRANCH  26  28
ENDBRANCH   5  24
TORSDOF 3
