REMARK  Name = ZINC37014984
REMARK  8 active torsions:
REMARK  status: ('A' for Active; 'I' for Inactive)
REMARK    1  A    between atoms: C_1  and  C_2
REMARK    2  A    between atoms: C_2  and  C_3
REMARK    3  A    between atoms: C_3  and  C_5
REMARK    4  A    between atoms: C_3  and  C_6
REMARK    5  A    between atoms: C_6  and  C_8
REMARK    6  A    between atoms: C_6  and  N_23
REMARK    7  A    between atoms: N_10  and  C_11
REMARK    8  A    between atoms: C_16  and  N_17
REMARK                            x       y       z     vdW  Elec       q    Type
REMARK                         _______ _______ _______ _____ _____    ______ ____
ROOT
ATOM      1  C   UNL     1       1.335  -2.510  -2.568  0.00  0.00    +0.203 C 
ATOM      2  O   UNL     1       2.457  -2.963  -2.489  0.00  0.00    -0.277 OA
ATOM      3  N   UNL     1       0.715  -2.450  -3.764  0.00  0.00    -0.285 N 
ATOM      4  H   UNL     1      -0.210  -2.162  -3.817  0.00  0.00    +0.155 HD
ENDROOT
BRANCH   3   5
ATOM      5  C   UNL     1       1.406  -2.803  -4.929  0.00  0.00    +0.060 A 
ATOM      6  C   UNL     1       2.789  -2.710  -4.973  0.00  0.00    +0.045 A 
ATOM      7  C   UNL     1       3.469  -3.060  -6.124  0.00  0.00    +0.043 A 
ATOM      8  C   UNL     1       2.773  -3.503  -7.236  0.00  0.00    +0.022 A 
ATOM      9  C   UNL     1       1.395  -3.598  -7.200  0.00  0.00    +0.031 A 
ATOM     10  C   UNL     1       0.706  -3.255  -6.047  0.00  0.00    +0.088 A 
ATOM     11 CL   UNL     1       5.201  -2.943  -6.177  0.00  0.00    -0.083 Cl
BRANCH  10  12
ATOM     12  N   UNL     1      -0.693  -3.356  -6.007  0.00  0.00    -0.218 N 
ATOM     13  C   UNL     1      -1.493  -3.865  -6.964  0.00  0.00    +0.225 A 
ATOM     14  N   UNL     1      -2.730  -3.778  -6.545  0.00  0.00    -0.222 NA
ATOM     15  C   UNL     1      -2.760  -3.224  -5.334  0.00  0.00    +0.245 A 
ATOM     16  N   UNL     1      -1.537  -2.954  -4.959  0.00  0.00    -0.153 NA
ENDBRANCH  10  12
ENDBRANCH   3   5
BRANCH   1  17
ATOM     17  C   UNL     1       0.634  -2.013  -1.330  0.00  0.00    +0.016 C 
BRANCH  17  18
ATOM     18  N   UNL     1       1.267  -2.598  -0.141  0.00  0.00    +0.386 N 
ATOM     19  H   UNL     1       0.798  -2.266   0.688  0.00  0.00    -0.089 HD
ATOM     20  H   UNL     1       1.200  -3.604  -0.185  0.00  0.00    -0.089 HD
ATOM     21  H   UNL     1       2.239  -2.327  -0.109  0.00  0.00    -0.089 HD
ENDBRANCH  17  18
BRANCH  17  22
ATOM     22  C   UNL     1       0.735  -0.488  -1.264  0.00  0.00    -0.020 C 
ATOM     23  C   UNL     1       2.208  -0.076  -1.216  0.00  0.00    +0.006 C 
BRANCH  22  25
ATOM     24  C   UNL     1       0.017   1.546  -0.004  0.00  0.00    +0.004 C 
ATOM     25  C   UNL     1       0.024   0.016  -0.007  0.00  0.00    -0.001 C 
ENDBRANCH  22  25
ENDBRANCH  17  22
ENDBRANCH   1  17
TORSDOF 6
