REMARK  Name = ZINC06627251
REMARK  6 active torsions:
REMARK  status: ('A' for Active; 'I' for Inactive)
REMARK    1  A    between atoms: C_1  and  C_2
REMARK    2  A    between atoms: C_5  and  C_8
REMARK    3  A    between atoms: C_8  and  N_9
REMARK    4  A    between atoms: C_10  and  C_12
REMARK    5  A    between atoms: C_15  and  C_17
REMARK    6  A    between atoms: C_22  and  N_23
REMARK                            x       y       z     vdW  Elec       q    Type
REMARK                         _______ _______ _______ _____ _____    ______ ____
ROOT
ATOM      1  C   UNL     1      -4.264  -0.079  -0.564  0.00  0.00    +0.164 A 
ATOM      2  C   UNL     1      -4.809   1.169  -0.531  0.00  0.00    +0.230 A 
ATOM      3  O   UNL     1      -3.798   2.039  -0.375  0.00  0.00    -0.443 OA
ATOM      4  C   UNL     1      -2.650   1.341  -0.312  0.00  0.00    +0.230 A 
ATOM      5  N   UNL     1      -2.920   0.064  -0.430  0.00  0.00    -0.204 NA
ENDROOT
BRANCH   4   6
ATOM      6  C   UNL     1      -1.302   1.920  -0.143  0.00  0.00    +0.057 A 
ATOM      7  C   UNL     1      -0.252   1.503  -0.962  0.00  0.00    +0.015 A 
ATOM      8  C   UNL     1       1.004   2.051  -0.804  0.00  0.00    +0.001 A 
ATOM      9  C   UNL     1       1.229   3.011   0.168  0.00  0.00    +0.002 A 
ATOM     10  C   UNL     1       0.201   3.429   0.989  0.00  0.00    +0.023 A 
ATOM     11  C   UNL     1      -1.069   2.888   0.844  0.00  0.00    +0.037 A 
BRANCH  11  12
ATOM     12  N   UNL     1      -2.108   3.308   1.671  0.00  0.00    -0.357 N 
ATOM     13  H   UNL     1      -1.970   4.044   2.287  0.00  0.00    +0.142 HD
ATOM     14  H   UNL     1      -2.970   2.865   1.630  0.00  0.00    +0.142 HD
ENDBRANCH  11  12
ENDBRANCH   4   6
BRANCH   1  16
ATOM     15  N   UNL     1      -4.325  -2.517  -0.736  0.00  0.00    -0.306 N 
ATOM     16  C   UNL     1      -4.997  -1.349  -0.721  0.00  0.00    +0.266 C 
ATOM     17  O   UNL     1      -6.208  -1.342  -0.837  0.00  0.00    -0.268 OA
ATOM     18  H   UNL     1      -3.359  -2.522  -0.643  0.00  0.00    +0.149 HD
BRANCH  15  19
ATOM     19  C   UNL     1      -5.053  -3.779  -0.892  0.00  0.00    +0.140 C 
BRANCH  19  24
ATOM     20  C   UNL     1      -1.311  -8.182  -0.833  0.00  0.00    +0.044 C 
ATOM     21  C   UNL     1      -2.287  -7.034  -0.848  0.00  0.00    -0.050 A 
ATOM     22  C   UNL     1      -2.848  -6.588   0.334  0.00  0.00    +0.003 A 
ATOM     23  C   UNL     1      -3.743  -5.535   0.320  0.00  0.00    +0.005 A 
ATOM     24  C   UNL     1      -4.077  -4.927  -0.876  0.00  0.00    -0.030 A 
ATOM     25  C   UNL     1      -3.519  -5.376  -2.059  0.00  0.00    +0.005 A 
ATOM     26  C   UNL     1      -2.621  -6.426  -2.044  0.00  0.00    +0.003 A 
ENDBRANCH  19  24
ENDBRANCH  15  19
ENDBRANCH   1  16
TORSDOF 5
