REMARK  7 active torsions:
REMARK  status: ('A' for Active; 'I' for Inactive)
REMARK    1  A    between atoms: S1_1  and  N4_4 
REMARK    2  A    between atoms: S1_1  and  C10_7 
REMARK    3  A    between atoms: C15_10  and  C20_13 
REMARK    4  A    between atoms: C23_17  and  C34_25 
REMARK    5  A    between atoms: C37_27  and  O52_35 
REMARK    6  A    between atoms: C38_28  and  O47_33 
REMARK    7  A    between atoms: C39_29  and  O42_31 
ROOT
HETATM    1  C20 NVB A1133     116.906  66.085   8.327  1.00 21.05     0.003 A 
HETATM    2  C21 NVB A1133     117.109  66.801   9.509  1.00 17.95     0.070 A 
HETATM    3  N22 NVB A1133     116.158  66.823  10.469  1.00 20.46    -0.352 N 
ATOM      4  H22 NVB A1133     115.305  66.276  10.353  1.00  0.00     0.166 HD
HETATM    5  C23 NVB A1133     116.337  67.572  11.587  1.00 21.48     0.058 A 
HETATM    6  C24 NVB A1133     117.516  68.296  11.766  1.00 16.20     0.118 A 
HETATM    7  N26 NVB A1133     118.452  68.278  10.798  1.00 21.81    -0.362 N 
ATOM      8  H26 NVB A1133     119.312  68.812  10.924  1.00  0.00     0.165 HD
HETATM    9  C27 NVB A1133     118.274  67.568   9.666  1.00 17.19     0.059 A 
HETATM   10  C28 NVB A1133     119.275  67.565   8.672  1.00 19.39     0.032 A 
HETATM   11  C30 NVB A1133     119.105  66.813   7.498  1.00 17.10     0.003 A 
HETATM   12  C32 NVB A1133     117.913  66.090   7.328  1.00 21.48     0.014 A 
ENDROOT
BRANCH   1  13
HETATM   13  C15 NVB A1133     115.678  65.280   8.097  1.00 17.16    -0.024 A 
HETATM   14  C16 NVB A1133     115.156  65.222   6.789  1.00 23.17     0.014 A 
HETATM   15  C18 NVB A1133     114.021  64.447   6.511  1.00 23.15     0.026 A 
HETATM   16  C10 NVB A1133     113.393  63.740   7.565  1.00 25.83     0.079 A 
HETATM   17  C11 NVB A1133     113.895  63.816   8.873  1.00 19.42     0.026 A 
HETATM   18  C13 NVB A1133     115.045  64.556   9.144  1.00 19.30     0.014 A 
BRANCH  16  19
HETATM   19  S1  NVB A1133     111.954  62.743   7.258  1.00 31.16     0.258 S 
HETATM   20  O2  NVB A1133     111.095  62.662   8.410  1.00 37.31    -0.201 OA
HETATM   21  O3  NVB A1133     112.360  61.532   6.627  1.00 32.49    -0.201 OA
BRANCH  19  22
HETATM   22  N4  NVB A1133     111.097  63.616   6.203  1.00 36.18    -0.320 N 
HETATM   23  C6  NVB A1133     110.242  64.681   6.698  1.00 37.39     0.159 C 
ATOM     24  H4  NVB A1133     111.155  63.422   5.203  1.00  0.00     0.171 HD
ENDBRANCH  19  22
ENDBRANCH  16  19
ENDBRANCH   1  13
BRANCH   5  25
HETATM   25  C34 NVB A1133     115.255  67.514  12.607  1.00 20.04    -0.003 A 
HETATM   26  C35 NVB A1133     114.051  66.916  12.294  1.00 19.60     0.053 A 
HETATM   27  C37 NVB A1133     113.024  66.834  13.252  1.00 23.38     0.105 A 
HETATM   28  C38 NVB A1133     113.242  67.315  14.546  1.00 21.91     0.135 A 
HETATM   29  C39 NVB A1133     114.459  67.879  14.882  1.00 21.92     0.105 A 
HETATM   30  C40 NVB A1133     115.482  67.980  13.905  1.00 20.97     0.053 A 
BRANCH  27  31
HETATM   31  O52 NVB A1133     111.779  66.283  12.967  1.00 23.46    -0.353 OA
HETATM   32  C53 NVB A1133     111.340  65.848  11.645  1.00 21.52     0.210 C 
ENDBRANCH  27  31
BRANCH  28  33
HETATM   33  O47 NVB A1133     112.254  67.206  15.511  1.00 29.89    -0.351 OA
HETATM   34  C48 NVB A1133     112.169  65.959  16.247  1.00 29.39     0.210 C 
ENDBRANCH  28  33
BRANCH  29  35
HETATM   35  O42 NVB A1133     114.618  68.365  16.172  1.00 24.33    -0.353 OA
HETATM   36  C43 NVB A1133     115.489  69.461  16.486  1.00 21.81     0.210 C 
ENDBRANCH  29  35
ENDBRANCH   5  25
TORSDOF 7
