REMARK  Name = CHEMBL521638
REMARK  1 active torsions:
REMARK  status: ('A' for Active; 'I' for Inactive)
REMARK    1  A    between atoms: C_22  and  C_24
REMARK                            x       y       z     vdW  Elec       q    Type
REMARK                         _______ _______ _______ _____ _____    ______ ____
ROOT
ATOM      1  C   UNL     1      -0.017   1.382   0.010  0.00  0.00    +0.001 A 
ATOM      2  C   UNL     1       1.165   2.098   0.002  0.00  0.00    +0.001 A 
ATOM      3  C   UNL     1       2.385   1.440  -0.014  0.00  0.00    +0.012 A 
ATOM      4  C   UNL     1       2.421   0.051  -0.022  0.00  0.00    +0.033 A 
ATOM      5  C   UNL     1       1.218  -0.677  -0.013  0.00  0.00    +0.033 A 
ATOM      6  C   UNL     1       0.002  -0.004   0.002  0.00  0.00    +0.012 A 
ATOM      7  C   UNL     1       1.273  -2.152  -0.020  0.00  0.00    +0.193 C 
ATOM      8  O   UNL     1       0.244  -2.797  -0.013  0.00  0.00    -0.287 OA
ATOM      9  C   UNL     1       2.579  -2.849  -0.035  0.00  0.00    +0.043 C 
ATOM     10  C   UNL     1       3.724  -2.161  -0.045  0.00  0.00    +0.052 C 
ATOM     11  C   UNL     1       3.703  -0.678  -0.039  0.00  0.00    +0.194 C 
ATOM     12  O   UNL     1       4.748  -0.060  -0.048  0.00  0.00    -0.287 OA
ATOM     13  C   UNL     1       5.077  -2.829  -0.066  0.00  0.00    +0.240 C 
ATOM     14  C   UNL     1       4.958  -4.360   0.049  0.00  0.00    +0.175 C 
ATOM     15  C   UNL     1       4.810  -4.518   1.583  0.00  0.00    +0.156 C 
ATOM     16  C   UNL     1       5.634  -3.351   2.103  0.00  0.00    +0.310 C 
ATOM     17  O   UNL     1       6.087  -3.259   3.220  0.00  0.00    -0.251 OA
ATOM     18  O   UNL     1       5.786  -2.429   1.122  0.00  0.00    -0.454 OA
ATOM     19  O   UNL     1       3.807  -4.834  -0.629  0.00  0.00    -0.359 OA
ATOM     20  C   UNL     1       2.572  -4.358  -0.037  0.00  0.00    +0.184 C 
ENDROOT
BRANCH  20  21
ATOM     21  C   UNL     1       1.417  -4.854  -0.868  0.00  0.00    -0.007 A 
ATOM     22  C   UNL     1       0.211  -5.176  -0.272  0.00  0.00    +0.014 A 
ATOM     23  C   UNL     1      -0.808  -5.620  -1.048  0.00  0.00    +0.045 A 
ATOM     24  S   UNL     1      -0.072  -5.593  -2.675  0.00  0.00    -0.105 S 
ATOM     25  C   UNL     1       1.542  -4.987  -2.211  0.00  0.00    +0.051 A 
ENDBRANCH  20  21
TORSDOF 1
