REMARK  Name = CHEMBL575428
REMARK  12 active torsions:
REMARK  status: ('A' for Active; 'I' for Inactive)
REMARK    1  A    between atoms: C_1  and  C_2
REMARK    2  A    between atoms: C_5  and  C_12
REMARK    3  A    between atoms: C_14  and  O_18
REMARK    4  A    between atoms: O_18  and  C_19
REMARK    5  A    between atoms: C_19  and  C_20
REMARK    6  A    between atoms: C_20  and  C_22
REMARK    7  A    between atoms: C_20  and  N_38
REMARK    8  A    between atoms: C_22  and  C_23
REMARK    9  A    between atoms: C_27  and  O_29
REMARK   10  A    between atoms: O_29  and  C_30
REMARK   11  A    between atoms: C_30  and  C_31
REMARK   12  A    between atoms: C_31  and  N_32
REMARK                            x       y       z     vdW  Elec       q    Type
REMARK                         _______ _______ _______ _____ _____    ______ ____
ROOT
ATOM      1  C   UNL     1      -0.382  -4.486  -9.919  0.00  0.00    -0.033 C 
ENDROOT
BRANCH   1   2
ATOM      2  N   UNL     1      -1.660  -5.184  -9.724  0.00  0.00    +0.382 N 
ATOM      3  H   UNL     1      -1.717  -5.965 -10.360  0.00  0.00    -0.089 HD
ATOM      4  H   UNL     1      -1.719  -5.518  -8.774  0.00  0.00    -0.089 HD
ATOM      5  H   UNL     1      -2.422  -4.547  -9.904  0.00  0.00    -0.089 HD
ENDBRANCH   1   2
BRANCH   1   6
ATOM      6  C   UNL     1      -0.296  -3.301  -8.955  0.00  0.00    +0.213 C 
BRANCH   6   7
ATOM      7  O   UNL     1      -0.262  -3.783  -7.611  0.00  0.00    -0.492 OA
BRANCH   7  10
ATOM      8  C   UNL     1      -0.067  -2.247  -4.313  0.00  0.00    +0.022 A 
ATOM      9  C   UNL     1      -0.147  -3.241  -5.291  0.00  0.00    +0.058 A 
ATOM     10  C   UNL     1      -0.185  -2.852  -6.623  0.00  0.00    +0.139 A 
ATOM     11  C   UNL     1      -0.141  -1.500  -6.934  0.00  0.00    +0.156 A 
ATOM     12  N   UNL     1      -0.066  -0.587  -5.985  0.00  0.00    -0.259 NA
ATOM     13  C   UNL     1      -0.034  -0.912  -4.709  0.00  0.00    +0.121 A 
BRANCH   8  18
ATOM     14  C   UNL     1      -0.099   0.251   0.791  0.00  0.00    +0.068 C 
ATOM     15  C   UNL     1      -0.030  -1.248   0.652  0.00  0.00    +0.068 A 
ATOM     16  C   UNL     1      -0.016  -1.963  -0.566  0.00  0.00    +0.026 A 
ATOM     17  C   UNL     1      -0.057  -1.604  -1.919  0.00  0.00    +0.040 A 
ATOM     18  C   UNL     1      -0.025  -2.607  -2.874  0.00  0.00    +0.073 A 
ATOM     19  N   UNL     1       0.042  -3.890  -2.522  0.00  0.00    -0.253 NA
ATOM     20  C   UNL     1       0.082  -4.273  -1.266  0.00  0.00    +0.139 A 
ATOM     21  C   UNL     1       0.055  -3.334  -0.239  0.00  0.00    +0.084 A 
ATOM     22  N   UNL     1       0.082  -3.406   1.129  0.00  0.00    -0.275 N 
ATOM     23  H   UNL     1       0.131  -4.219   1.656  0.00  0.00    +0.189 HD
ATOM     24  N   UNL     1       0.033  -2.100   1.635  0.00  0.00    -0.178 NA
ENDBRANCH   8  18
ENDBRANCH   7  10
ENDBRANCH   6   7
ENDBRANCH   1   6
BRANCH   1  25
ATOM     25  C   UNL     1      -0.293  -3.979 -11.360  0.00  0.00    +0.022 C 
BRANCH  25  26
ATOM     26  C   UNL     1      -0.255  -5.152 -12.305  0.00  0.00    -0.045 A 
ATOM     27  C   UNL     1       0.958  -5.710 -12.665  0.00  0.00    +0.004 A 
ATOM     28  C   UNL     1       0.997  -6.787 -13.531  0.00  0.00    +0.004 A 
ATOM     29  C   UNL     1      -0.177  -7.309 -14.039  0.00  0.00    +0.045 A 
ATOM     30  C   UNL     1      -1.396  -6.751 -13.680  0.00  0.00    +0.121 A 
ATOM     31  C   UNL     1      -1.432  -5.674 -12.805  0.00  0.00    +0.049 A 
BRANCH  30  32
ATOM     32  O   UNL     1      -2.552  -7.262 -14.178  0.00  0.00    -0.491 OA
BRANCH  32  33
ATOM     33  C   UNL     1      -2.439  -8.374 -15.068  0.00  0.00    +0.244 C 
BRANCH  33  34
ATOM     34  C   UNL     1      -3.834  -8.808 -15.522  0.00  0.00    +0.125 C 
BRANCH  34  35
ATOM     35  N   UNL     1      -4.445  -7.736 -16.318  0.00  0.00    -0.295 NA
ATOM     36  C   UNL     1      -5.905  -7.895 -16.384  0.00  0.00    +0.112 C 
ATOM     37  C   UNL     1      -6.506  -6.727 -17.171  0.00  0.00    +0.175 C 
ATOM     38  O   UNL     1      -5.908  -6.676 -18.469  0.00  0.00    -0.377 OA
ATOM     39  C   UNL     1      -4.486  -6.520 -18.442  0.00  0.00    +0.175 C 
ATOM     40  C   UNL     1      -3.865  -7.686 -17.668  0.00  0.00    +0.112 C 
ENDBRANCH  34  35
ENDBRANCH  33  34
ENDBRANCH  32  33
ENDBRANCH  30  32
ENDBRANCH  25  26
ENDBRANCH   1  25
TORSDOF 11
