REMARK  Name = CHEMBL596583
REMARK  10 active torsions:
REMARK  status: ('A' for Active; 'I' for Inactive)
REMARK    1  A    between atoms: C_1  and  C_2
REMARK    2  A    between atoms: C_10  and  C_12
REMARK    3  A    between atoms: C_14  and  O_24
REMARK    4  A    between atoms: C_17  and  C_18
REMARK    5  A    between atoms: C_22  and  C_23
REMARK    6  A    between atoms: O_24  and  C_25
REMARK    7  A    between atoms: C_25  and  C_26
REMARK    8  A    between atoms: C_26  and  C_28
REMARK    9  A    between atoms: C_26  and  N_39
REMARK   10  A    between atoms: C_28  and  C_29
REMARK                            x       y       z     vdW  Elec       q    Type
REMARK                         _______ _______ _______ _____ _____    ______ ____
ROOT
ATOM      1  C   UNL     1       1.040  -1.358  -5.290  0.00  0.00    +0.031 A 
ATOM      2  C   UNL     1       0.900  -0.050  -5.754  0.00  0.00    +0.059 A 
ATOM      3  C   UNL     1      -0.153   0.238  -6.613  0.00  0.00    +0.139 A 
ATOM      4  C   UNL     1      -1.028  -0.776  -6.981  0.00  0.00    +0.157 A 
ATOM      5  N   UNL     1      -0.875  -2.004  -6.530  0.00  0.00    -0.251 NA
ATOM      6  C   UNL     1       0.117  -2.330  -5.713  0.00  0.00    +0.084 A 
ENDROOT
BRANCH   1  16
ATOM      7  C   UNL     1       5.225  -4.984  -5.024  0.00  0.00    +0.070 C 
ATOM      8  C   UNL     1       4.999  -3.994  -3.911  0.00  0.00    +0.087 A 
ATOM      9  C   UNL     1       3.969  -3.022  -3.866  0.00  0.00    +0.131 A 
ATOM     10  C   UNL     1       4.128  -2.315  -2.655  0.00  0.00    +0.175 A 
ATOM     11  N   UNL     1       5.214  -2.861  -2.024  0.00  0.00    -0.259 N 
ATOM     12  H   UNL     1       5.573  -2.584  -1.166  0.00  0.00    +0.191 HD
ATOM     13  N   UNL     1       5.714  -3.892  -2.829  0.00  0.00    -0.175 NA
ATOM     14  N   UNL     1       3.289  -1.333  -2.346  0.00  0.00    -0.233 NA
ATOM     15  C   UNL     1       2.311  -1.020  -3.170  0.00  0.00    +0.141 A 
ATOM     16  C   UNL     1       2.146  -1.719  -4.373  0.00  0.00    +0.092 A 
ATOM     17  N   UNL     1       2.976  -2.701  -4.694  0.00  0.00    -0.240 NA
ENDBRANCH   1  16
BRANCH   6  18
ATOM     18  C   UNL     1       0.251  -3.726  -5.238  0.00  0.00    +0.042 A 
ATOM     19  C   UNL     1       0.171  -4.202  -3.852  0.00  0.00    +0.051 A 
ATOM     20  C   UNL     1       0.350  -5.532  -3.906  0.00  0.00    +0.196 A 
ATOM     21  O   UNL     1       0.528  -5.898  -5.184  0.00  0.00    -0.467 OA
ATOM     22  C   UNL     1       0.466  -4.834  -5.996  0.00  0.00    +0.111 A 
ATOM     23  C   UNL     1       0.614  -4.860  -7.496  0.00  0.00    +0.087 C 
ENDBRANCH   6  18
BRANCH   3  24
ATOM     24  O   UNL     1      -0.327   1.500  -7.088  0.00  0.00    -0.492 OA
BRANCH  24  25
ATOM     25  C   UNL     1      -1.433   1.716  -7.966  0.00  0.00    +0.213 C 
BRANCH  25  26
ATOM     26  C   UNL     1      -1.465   3.185  -8.393  0.00  0.00    -0.033 C 
BRANCH  26  27
ATOM     27  N   UNL     1      -0.270   3.489  -9.191  0.00  0.00    +0.382 N 
ATOM     28  H   UNL     1      -0.254   2.901 -10.011  0.00  0.00    -0.089 HD
ATOM     29  H   UNL     1      -0.291   4.458  -9.473  0.00  0.00    -0.089 HD
ATOM     30  H   UNL     1       0.556   3.318  -8.638  0.00  0.00    -0.089 HD
ENDBRANCH  26  27
BRANCH  26  31
ATOM     31  C   UNL     1      -2.718   3.445  -9.232  0.00  0.00    +0.024 C 
BRANCH  31  32
ATOM     32  C   UNL     1      -2.814   4.915  -9.549  0.00  0.00    -0.024 A 
ATOM     33  C   UNL     1      -3.509   5.836  -8.863  0.00  0.00    +0.087 A 
ATOM     34  N   UNL     1      -3.360   7.064  -9.448  0.00  0.00    -0.360 N 
ATOM     35  H   UNL     1      -3.768   7.885  -9.132  0.00  0.00    +0.165 HD
ATOM     36  C   UNL     1      -2.545   6.960 -10.553  0.00  0.00    +0.047 A 
ATOM     37  C   UNL     1      -2.162   5.611 -10.661  0.00  0.00    +0.003 A 
ATOM     38  C   UNL     1      -1.320   5.206 -11.699  0.00  0.00    +0.010 A 
ATOM     39  C   UNL     1      -0.869   6.125 -12.604  0.00  0.00    +0.001 A 
ATOM     40  C   UNL     1      -1.240   7.459 -12.499  0.00  0.00    +0.002 A 
ATOM     41  C   UNL     1      -2.078   7.878 -11.488  0.00  0.00    +0.026 A 
ENDBRANCH  31  32
ENDBRANCH  26  31
ENDBRANCH  25  26
ENDBRANCH  24  25
ENDBRANCH   3  24
TORSDOF 8
