REMARK  Name = CHEMBL207139
REMARK  12 active torsions:
REMARK  status: ('A' for Active; 'I' for Inactive)
REMARK    1  A    between atoms: C_1  and  C_2
REMARK    2  A    between atoms: C_2  and  C_3
REMARK    3  A    between atoms: C_2  and  C_4
REMARK    4  A    between atoms: C_2  and  C_10
REMARK    5  A    between atoms: C_4  and  C_5
REMARK    6  A    between atoms: C_13  and  C_20
REMARK    7  A    between atoms: C_22  and  O_26
REMARK    8  A    between atoms: O_26  and  C_27
REMARK    9  A    between atoms: C_27  and  C_28
REMARK   10  A    between atoms: C_28  and  C_30
REMARK   11  A    between atoms: C_28  and  N_41
REMARK   12  A    between atoms: C_30  and  C_31
REMARK                            x       y       z     vdW  Elec       q    Type
REMARK                         _______ _______ _______ _____ _____    ______ ____
ROOT
ATOM      1  C   UNL     1       5.555   0.693  -0.260  0.00  0.00    +0.004 A 
ATOM      2  C   UNL     1       6.708   1.314  -0.746  0.00  0.00    +0.057 A 
ATOM      3  C   UNL     1       7.820   1.379   0.085  0.00  0.00    +0.139 A 
ATOM      4  C   UNL     1       7.747   0.829   1.357  0.00  0.00    +0.156 A 
ATOM      5  N   UNL     1       6.641   0.250   1.783  0.00  0.00    -0.259 NA
ATOM      6  C   UNL     1       5.562   0.172   1.032  0.00  0.00    +0.119 A 
ENDROOT
BRANCH   1  10
ATOM      7  C   UNL     1       0.694  -0.694  -1.173  0.00  0.00    +0.113 C 
ATOM      8  C   UNL     1       2.067  -0.105  -1.401  0.00  0.00    -0.013 A 
ATOM      9  C   UNL     1       3.189  -0.020  -0.612  0.00  0.00    +0.014 A 
ATOM     10  C   UNL     1       4.340   0.596  -1.105  0.00  0.00    -0.016 A 
ATOM     11  C   UNL     1       4.339   1.121  -2.397  0.00  0.00    +0.010 A 
ATOM     12  C   UNL     1       3.211   1.032  -3.181  0.00  0.00    +0.024 A 
ATOM     13  C   UNL     1       2.060   0.416  -2.690  0.00  0.00    +0.037 A 
ATOM     14  N   UNL     1       0.816   0.208  -3.286  0.00  0.00    -0.285 N 
ATOM     15  C   UNL     1      -0.039  -0.432  -2.471  0.00  0.00    +0.225 C 
ATOM     16  O   UNL     1      -1.184  -0.741  -2.727  0.00  0.00    -0.275 OA
ATOM     17  H   UNL     1       0.593   0.494  -4.186  0.00  0.00    +0.155 HD
BRANCH   7  19
ATOM     18  C   UNL     1      -0.063   1.516  -0.287  0.00  0.00    +0.012 C 
ATOM     19  C   UNL     1      -0.005   0.012  -0.009  0.00  0.00    -0.021 C 
ATOM     20  C   UNL     1       0.775  -0.238   1.283  0.00  0.00    +0.012 C 
BRANCH  19  21
ATOM     21  C   UNL     1      -1.427  -0.534   0.139  0.00  0.00    -0.008 C 
BRANCH  21  22
ATOM     22  C   UNL     1      -2.074   0.060   1.391  0.00  0.00    -0.071 C 
ATOM     23  C   UNL     1      -3.439  -0.613   1.647  0.00  0.00    -0.018 C 
ATOM     24  C   UNL     1      -4.322   0.563   2.140  0.00  0.00    -0.021 C 
ATOM     25  C   UNL     1      -3.783   1.738   1.286  0.00  0.00    -0.082 C 
ATOM     26  N   UNL     1      -2.327   1.499   1.190  0.00  0.00    +0.381 N 
ATOM     27  H   UNL     1      -1.848   2.030   1.901  0.00  0.00    -0.086 HD
ATOM     28  H   UNL     1      -1.996   1.778   0.279  0.00  0.00    -0.086 HD
ENDBRANCH  21  22
ENDBRANCH  19  21
ENDBRANCH   7  19
ENDBRANCH   1  10
BRANCH   3  29
ATOM     29  O   UNL     1       8.965   1.973  -0.343  0.00  0.00    -0.492 OA
BRANCH  29  30
ATOM     30  C   UNL     1      10.063   1.998   0.570  0.00  0.00    +0.213 C 
BRANCH  30  31
ATOM     31  C   UNL     1      11.254   2.702  -0.083  0.00  0.00    -0.033 C 
BRANCH  31  32
ATOM     32  N   UNL     1      10.918   4.111  -0.326  0.00  0.00    +0.382 N 
ATOM     33  H   UNL     1      10.701   4.561   0.550  0.00  0.00    -0.089 HD
ATOM     34  H   UNL     1      11.704   4.575  -0.758  0.00  0.00    -0.089 HD
ATOM     35  H   UNL     1      10.118   4.165  -0.939  0.00  0.00    -0.089 HD
ENDBRANCH  31  32
BRANCH  31  36
ATOM     36  C   UNL     1      12.468   2.620   0.845  0.00  0.00    +0.024 C 
BRANCH  36  37
ATOM     37  C   UNL     1      13.671   3.203   0.151  0.00  0.00    -0.024 A 
ATOM     38  C   UNL     1      14.599   2.526  -0.544  0.00  0.00    +0.087 A 
ATOM     39  N   UNL     1      15.542   3.390  -1.029  0.00  0.00    -0.360 N 
ATOM     40  H   UNL     1      16.311   3.134  -1.562  0.00  0.00    +0.165 HD
ATOM     41  C   UNL     1      15.237   4.678  -0.648  0.00  0.00    +0.047 A 
ATOM     42  C   UNL     1      14.049   4.618   0.103  0.00  0.00    +0.003 A 
ATOM     43  C   UNL     1      13.492   5.789   0.621  0.00  0.00    +0.010 A 
ATOM     44  C   UNL     1      14.104   6.989   0.392  0.00  0.00    +0.001 A 
ATOM     45  C   UNL     1      15.274   7.054  -0.351  0.00  0.00    +0.002 A 
ATOM     46  C   UNL     1      15.845   5.910  -0.864  0.00  0.00    +0.026 A 
ENDBRANCH  36  37
ENDBRANCH  31  36
ENDBRANCH  30  31
ENDBRANCH  29  30
ENDBRANCH   3  29
TORSDOF 10
