REMARK  Name = CHEMBL206183
REMARK  8 active torsions:
REMARK  status: ('A' for Active; 'I' for Inactive)
REMARK    1  A    between atoms: C_7  and  C_10
REMARK    2  A    between atoms: C_10  and  C_11
REMARK    3  A    between atoms: C_11  and  C_13
REMARK    4  A    between atoms: C_11  and  N_29
REMARK    5  A    between atoms: C_13  and  O_14
REMARK    6  A    between atoms: O_14  and  C_15
REMARK    7  A    between atoms: C_17  and  C_21
REMARK    8  A    between atoms: C_22  and  C_23
REMARK                            x       y       z     vdW  Elec       q    Type
REMARK                         _______ _______ _______ _____ _____    ______ ____
ROOT
ATOM      1  C   UNL     1      -1.311  -4.376  -1.458  0.00  0.00    +0.213 C 
ENDROOT
BRANCH   1   2
ATOM      2  C   UNL     1      -0.207  -3.317  -1.450  0.00  0.00    -0.033 C 
BRANCH   2   3
ATOM      3  N   UNL     1      -0.737  -2.054  -1.983  0.00  0.00    +0.382 N 
ATOM      4  H   UNL     1      -1.506  -1.743  -1.409  0.00  0.00    -0.089 HD
ATOM      5  H   UNL     1      -0.009  -1.356  -1.978  0.00  0.00    -0.089 HD
ATOM      6  H   UNL     1      -1.059  -2.197  -2.928  0.00  0.00    -0.089 HD
ENDBRANCH   2   3
BRANCH   2   7
ATOM      7  C   UNL     1       0.282  -3.100  -0.017  0.00  0.00    +0.023 C 
BRANCH   7  14
ATOM      8  C   UNL     1      -0.016   1.355   0.009  0.00  0.00    +0.001 A 
ATOM      9  C   UNL     1       1.157   2.097   0.002  0.00  0.00    +0.001 A 
ATOM     10  C   UNL     1       2.374   1.445  -0.013  0.00  0.00    +0.015 A 
ATOM     11  C   UNL     1       2.406   0.067  -0.020  0.00  0.00    +0.020 A 
ATOM     12  C   UNL     1       1.228  -0.711  -0.013  0.00  0.00    -0.008 A 
ATOM     13  C   UNL     1       0.002  -0.004   0.002  0.00  0.00    +0.009 A 
ATOM     14  C   UNL     1       1.451  -2.149  -0.023  0.00  0.00    -0.034 A 
ATOM     15  C   UNL     1       2.706  -2.619  -0.038  0.00  0.00    +0.050 A 
ATOM     16  S   UNL     1       3.704  -1.142  -0.039  0.00  0.00    -0.096 S 
ENDBRANCH   7  14
ENDBRANCH   2   7
ENDBRANCH   1   2
BRANCH   1  17
ATOM     17  O   UNL     1      -1.687  -4.663  -2.806  0.00  0.00    -0.492 OA
BRANCH  17  18
ATOM     18  C   UNL     1      -2.663  -5.591  -2.991  0.00  0.00    +0.139 A 
ATOM     19  C   UNL     1      -3.079  -5.928  -4.272  0.00  0.00    +0.056 A 
ATOM     20  C   UNL     1      -4.088  -6.888  -4.409  0.00  0.00    -0.003 A 
ATOM     21  C   UNL     1      -4.633  -7.466  -3.259  0.00  0.00    +0.118 A 
ATOM     22  N   UNL     1      -4.206  -7.113  -2.064  0.00  0.00    -0.259 NA
ATOM     23  C   UNL     1      -3.253  -6.216  -1.900  0.00  0.00    +0.156 A 
BRANCH  20  24
ATOM     24  C   UNL     1      -4.569  -7.284  -5.745  0.00  0.00    +0.010 C 
ATOM     25  C   UNL     1      -5.537  -8.207  -5.864  0.00  0.00    +0.008 C 
BRANCH  25  26
ATOM     26  C   UNL     1      -6.017  -8.602  -7.200  0.00  0.00    -0.022 A 
ATOM     27  C   UNL     1      -5.473  -8.033  -8.360  0.00  0.00    +0.027 A 
ATOM     28  C   UNL     1      -5.953  -8.433  -9.589  0.00  0.00    +0.111 A 
ATOM     29  N   UNL     1      -6.910  -9.337  -9.681  0.00  0.00    -0.263 NA
ATOM     30  C   UNL     1      -7.450  -9.899  -8.616  0.00  0.00    +0.111 A 
ATOM     31  C   UNL     1      -7.027  -9.563  -7.348  0.00  0.00    +0.027 A 
ENDBRANCH  25  26
ENDBRANCH  20  24
ENDBRANCH  17  18
ENDBRANCH   1  17
TORSDOF 8
