REMARK  Name = CHEMBL572907
REMARK  8 active torsions:
REMARK  status: ('A' for Active; 'I' for Inactive)
REMARK    1  A    between atoms: C_7  and  C_11
REMARK    2  A    between atoms: C_11  and  C_12
REMARK    3  A    between atoms: C_12  and  C_14
REMARK    4  A    between atoms: C_12  and  N_35
REMARK    5  A    between atoms: C_14  and  O_15
REMARK    6  A    between atoms: O_15  and  C_16
REMARK    7  A    between atoms: C_18  and  C_22
REMARK    8  A    between atoms: C_28  and  C_32
REMARK                            x       y       z     vdW  Elec       q    Type
REMARK                         _______ _______ _______ _____ _____    ______ ____
ROOT
ATOM      1  C   UNL     1      -1.673  -6.334  -3.003  0.00  0.00    +0.139 A 
ATOM      2  C   UNL     1      -2.006  -6.750  -4.286  0.00  0.00    +0.057 A 
ATOM      3  C   UNL     1      -2.783  -7.902  -4.426  0.00  0.00    +0.004 A 
ATOM      4  C   UNL     1      -3.192  -8.585  -3.282  0.00  0.00    +0.119 A 
ATOM      5  N   UNL     1      -2.853  -8.154  -2.085  0.00  0.00    -0.259 NA
ATOM      6  C   UNL     1      -2.115  -7.074  -1.915  0.00  0.00    +0.156 A 
ENDROOT
BRANCH   3   7
ATOM      7  C   UNL     1      -3.169  -8.391  -5.774  0.00  0.00    -0.016 A 
ATOM      8  C   UNL     1      -2.747  -7.698  -6.915  0.00  0.00    +0.010 A 
ATOM      9  C   UNL     1      -3.091  -8.133  -8.160  0.00  0.00    +0.028 A 
ATOM     10  C   UNL     1      -3.870  -9.278  -8.311  0.00  0.00    +0.066 A 
ATOM     11  C   UNL     1      -4.301  -9.985  -7.172  0.00  0.00    +0.024 A 
ATOM     12  C   UNL     1      -3.940  -9.536  -5.898  0.00  0.00    +0.020 A 
ATOM     13  C   UNL     1      -5.085 -11.115  -7.662  0.00  0.00    +0.074 A 
ATOM     14  N   UNL     1      -5.098 -11.055  -8.962  0.00  0.00    -0.177 NA
ATOM     15  N   UNL     1      -4.367  -9.947  -9.400  0.00  0.00    -0.277 N 
ATOM     16  H   UNL     1      -4.232  -9.691 -10.326  0.00  0.00    +0.189 HD
BRANCH  13  17
ATOM     17  C   UNL     1      -5.758 -12.163  -6.814  0.00  0.00    +0.040 C 
ATOM     18  C   UNL     1      -6.697 -13.145  -7.518  0.00  0.00    +0.010 C 
ATOM     19  C   UNL     1      -5.331 -13.618  -7.016  0.00  0.00    +0.010 C 
ENDBRANCH  13  17
ENDBRANCH   3   7
BRANCH   1  20
ATOM     20  O   UNL     1      -0.919  -5.219  -2.816  0.00  0.00    -0.492 OA
BRANCH  20  21
ATOM     21  C   UNL     1      -0.614  -4.861  -1.466  0.00  0.00    +0.213 C 
BRANCH  21  22
ATOM     22  C   UNL     1       0.236  -3.589  -1.455  0.00  0.00    -0.033 C 
BRANCH  22  23
ATOM     23  N   UNL     1      -0.552  -2.469  -1.986  0.00  0.00    +0.382 N 
ATOM     24  H   UNL     1      -1.370  -2.331  -1.412  0.00  0.00    -0.089 HD
ATOM     25  H   UNL     1       0.009  -1.630  -1.979  0.00  0.00    -0.089 HD
ATOM     26  H   UNL     1      -0.836  -2.676  -2.932  0.00  0.00    -0.089 HD
ENDBRANCH  22  23
BRANCH  22  27
ATOM     27  C   UNL     1       0.666  -3.275  -0.021  0.00  0.00    +0.024 C 
BRANCH  27  34
ATOM     28  C   UNL     1      -0.017   1.362   0.009  0.00  0.00    +0.001 A 
ATOM     29  C   UNL     1       1.170   2.083   0.002  0.00  0.00    +0.002 A 
ATOM     30  C   UNL     1       2.386   1.436  -0.013  0.00  0.00    +0.026 A 
ATOM     31  C   UNL     1       2.428   0.046  -0.021  0.00  0.00    +0.047 A 
ATOM     32  C   UNL     1       1.223  -0.681  -0.013  0.00  0.00    +0.003 A 
ATOM     33  C   UNL     1       0.002  -0.004   0.002  0.00  0.00    +0.010 A 
ATOM     34  C   UNL     1       1.604  -2.095  -0.025  0.00  0.00    -0.024 A 
ATOM     35  C   UNL     1       2.945  -2.141  -0.038  0.00  0.00    +0.087 A 
ATOM     36  N   UNL     1       3.455  -0.871  -0.036  0.00  0.00    -0.360 N 
ATOM     37  H   UNL     1       4.399  -0.650  -0.044  0.00  0.00    +0.165 HD
ENDBRANCH  27  34
ENDBRANCH  22  27
ENDBRANCH  21  22
ENDBRANCH  20  21
ENDBRANCH   1  20
TORSDOF 8
