REMARK  Name = CHEMBL603852
REMARK  6 active torsions:
REMARK  status: ('A' for Active; 'I' for Inactive)
REMARK    1  A    between atoms: C_1  and  C_2
REMARK    2  A    between atoms: C_7  and  N_8
REMARK    3  A    between atoms: N_9  and  C_10
REMARK    4  A    between atoms: C_13  and  S_16
REMARK    5  A    between atoms: S_16  and  N_19
REMARK    6  A    between atoms: C_26  and  C_28
REMARK                            x       y       z     vdW  Elec       q    Type
REMARK                         _______ _______ _______ _____ _____    ______ ____
ROOT
ATOM      1  N   UNL     1       0.980  -0.205   2.724  0.00  0.00    -0.168 NA
ATOM      2  N   UNL     1       1.304  -1.285   3.239  0.00  0.00    -0.154 NA
ENDROOT
BRANCH   1   9
ATOM      3  C   UNL     1      -0.002   1.849   4.990  0.00  0.00    +0.065 C 
ATOM      4  C   UNL     1      -0.446   1.598   3.572  0.00  0.00    +0.070 C 
ATOM      5  N   UNL     1      -0.924   2.462   2.765  0.00  0.00    -0.176 NA
ATOM      6  N   UNL     1      -1.243   1.930   1.519  0.00  0.00    -0.121 N 
ATOM      7  C   UNL     1      -0.964   0.610   1.468  0.00  0.00    +0.274 C 
ATOM      8  O   UNL     1      -1.125  -0.143   0.532  0.00  0.00    -0.271 OA
ATOM      9  C   UNL     1      -0.400   0.276   2.836  0.00  0.00    +0.261 C 
ATOM     10  C   UNL     1      -1.763   2.639   0.497  0.00  0.00    +0.273 C 
ATOM     11  O   UNL     1      -1.938   2.109  -0.582  0.00  0.00    -0.268 OA
BRANCH  10  12
ATOM     12  C   UNL     1      -2.119   4.058   0.690  0.00  0.00    +0.039 A 
ATOM     13  C   UNL     1      -1.785   4.710   1.879  0.00  0.00    +0.014 A 
ATOM     14  C   UNL     1      -2.120   6.036   2.053  0.00  0.00    +0.021 A 
ATOM     15  C   UNL     1      -2.787   6.722   1.051  0.00  0.00    +0.041 A 
ATOM     16  C   UNL     1      -3.122   6.081  -0.131  0.00  0.00    +0.021 A 
ATOM     17  C   UNL     1      -2.788   4.757  -0.318  0.00  0.00    +0.014 A 
ATOM     18 CL   UNL     1      -3.207   8.391   1.278  0.00  0.00    -0.084 Cl
ENDBRANCH  10  12
ENDBRANCH   1   9
BRANCH   2  19
ATOM     19  C   UNL     1       0.340  -2.198   3.579  0.00  0.00    +0.086 A 
ATOM     20  C   UNL     1      -0.797  -2.348   2.783  0.00  0.00    +0.031 A 
ATOM     21  C   UNL     1      -1.763  -3.269   3.131  0.00  0.00    +0.031 A 
ATOM     22  C   UNL     1      -1.608  -4.043   4.268  0.00  0.00    +0.109 A 
ATOM     23  C   UNL     1      -0.484  -3.899   5.062  0.00  0.00    +0.031 A 
ATOM     24  C   UNL     1       0.493  -2.987   4.721  0.00  0.00    +0.031 A 
BRANCH  22  25
ATOM     25  S   UNL     1      -2.848  -5.215   4.706  0.00  0.00    +0.075 S 
ATOM     26  O   UNL     1      -2.728  -5.428   6.106  0.00  0.00    -0.150 OA
ATOM     27  O   UNL     1      -4.056  -4.774   4.103  0.00  0.00    -0.150 OA
BRANCH  25  28
ATOM     28  N   UNL     1      -2.449  -6.646   3.974  0.00  0.00    -0.184 N 
ATOM     29  C   UNL     1      -1.292  -7.312   4.341  0.00  0.00    +0.235 A 
ATOM     30  N   UNL     1      -0.373  -6.671   5.048  0.00  0.00    -0.222 NA
ATOM     31  C   UNL     1       0.743  -7.279   5.415  0.00  0.00    +0.116 A 
ATOM     32  C   UNL     1       0.945  -8.601   5.050  0.00  0.00    +0.039 A 
ATOM     33  C   UNL     1      -0.037  -9.241   4.311  0.00  0.00    +0.116 A 
ATOM     34  N   UNL     1      -1.132  -8.577   3.981  0.00  0.00    -0.222 NA
ATOM     35  H   UNL     1      -3.026  -7.018   3.289  0.00  0.00    +0.177 HD
ENDBRANCH  25  28
ENDBRANCH  22  25
ENDBRANCH   2  19
TORSDOF 5
