REMARK  Name = CHEMBL575384
REMARK  9 active torsions:
REMARK  status: ('A' for Active; 'I' for Inactive)
REMARK    1  A    between atoms: C_1  and  C_2
REMARK    2  A    between atoms: C_2  and  C_35
REMARK    3  A    between atoms: C_6  and  C_13
REMARK    4  A    between atoms: C_15  and  O_19
REMARK    5  A    between atoms: O_19  and  C_20
REMARK    6  A    between atoms: C_20  and  C_21
REMARK    7  A    between atoms: C_21  and  C_23
REMARK    8  A    between atoms: C_21  and  N_34
REMARK    9  A    between atoms: C_23  and  C_24
REMARK                            x       y       z     vdW  Elec       q    Type
REMARK                         _______ _______ _______ _____ _____    ______ ____
ROOT
ATOM      1  C   UNL     1       0.141  -5.661   0.373  0.00  0.00    +0.004 A 
ATOM      2  C   UNL     1       0.653  -6.959   0.440  0.00  0.00    +0.057 A 
ATOM      3  C   UNL     1      -0.243  -8.014   0.555  0.00  0.00    +0.139 A 
ATOM      4  C   UNL     1      -1.604  -7.745   0.599  0.00  0.00    +0.156 A 
ATOM      5  N   UNL     1      -2.053  -6.507   0.533  0.00  0.00    -0.259 NA
ATOM      6  C   UNL     1      -1.239  -5.476   0.430  0.00  0.00    +0.119 A 
ENDROOT
BRANCH   1  12
ATOM      7  C   UNL     1      -0.019   1.502   0.031  0.00  0.00    +0.039 C 
ATOM      8  C   UNL     1       0.002  -0.004   0.002  0.00  0.00    -0.063 C 
ATOM      9  C   UNL     1       1.175  -0.660  -0.013  0.00  0.00    +0.045 C 
ATOM     10  C   UNL     1       1.395  -2.126   0.074  0.00  0.00    +0.009 A 
ATOM     11  C   UNL     1       0.534  -3.207   0.189  0.00  0.00    +0.019 A 
ATOM     12  C   UNL     1       1.053  -4.497   0.249  0.00  0.00    -0.016 A 
ATOM     13  C   UNL     1       2.433  -4.692   0.193  0.00  0.00    +0.010 A 
ATOM     14  C   UNL     1       3.287  -3.617   0.080  0.00  0.00    +0.024 A 
ATOM     15  C   UNL     1       2.780  -2.322   0.018  0.00  0.00    +0.042 A 
ATOM     16  N   UNL     1       3.416  -1.090  -0.096  0.00  0.00    -0.281 N 
ATOM     17  C   UNL     1       2.532  -0.079  -0.126  0.00  0.00    +0.249 C 
ATOM     18  O   UNL     1       2.800   1.103  -0.224  0.00  0.00    -0.270 OA
ATOM     19  C   UNL     1      -1.292  -0.776  -0.011  0.00  0.00    +0.039 C 
ATOM     20  H   UNL     1       4.378  -0.976  -0.151  0.00  0.00    +0.155 HD
ENDBRANCH   1  12
BRANCH   3  21
ATOM     21  O   UNL     1       0.208  -9.295   0.623  0.00  0.00    -0.492 OA
BRANCH  21  22
ATOM     22  C   UNL     1      -0.777 -10.324   0.741  0.00  0.00    +0.213 C 
BRANCH  22  23
ATOM     23  C   UNL     1      -0.085 -11.687   0.803  0.00  0.00    -0.033 C 
BRANCH  23  24
ATOM     24  N   UNL     1       0.716 -11.774   2.032  0.00  0.00    +0.382 N 
ATOM     25  H   UNL     1       1.172 -12.673   2.073  0.00  0.00    -0.089 HD
ATOM     26  H   UNL     1       1.412 -11.043   2.032  0.00  0.00    -0.089 HD
ATOM     27  H   UNL     1       0.114 -11.665   2.834  0.00  0.00    -0.089 HD
ENDBRANCH  23  24
BRANCH  23  28
ATOM     28  C   UNL     1      -1.141 -12.795   0.804  0.00  0.00    +0.024 C 
BRANCH  28  29
ATOM     29  C   UNL     1      -0.460 -14.138   0.742  0.00  0.00    -0.024 A 
ATOM     30  C   UNL     1      -0.211 -14.857  -0.365  0.00  0.00    +0.087 A 
ATOM     31  N   UNL     1       0.422 -16.023  -0.031  0.00  0.00    -0.360 N 
ATOM     32  H   UNL     1       0.703 -16.704  -0.661  0.00  0.00    +0.165 HD
ATOM     33  C   UNL     1       0.602 -16.084   1.333  0.00  0.00    +0.047 A 
ATOM     34  C   UNL     1       0.063 -14.903   1.876  0.00  0.00    +0.003 A 
ATOM     35  C   UNL     1       0.110 -14.685   3.254  0.00  0.00    +0.010 A 
ATOM     36  C   UNL     1       0.682 -15.621   4.069  0.00  0.00    +0.001 A 
ATOM     37  C   UNL     1       1.219 -16.785   3.538  0.00  0.00    +0.002 A 
ATOM     38  C   UNL     1       1.175 -17.024   2.182  0.00  0.00    +0.026 A 
ENDBRANCH  28  29
ENDBRANCH  23  28
ENDBRANCH  22  23
ENDBRANCH  21  22
ENDBRANCH   3  21
TORSDOF 7
