REMARK  Name = CHEMBL407733
REMARK  6 active torsions:
REMARK  status: ('A' for Active; 'I' for Inactive)
REMARK    1  A    between atoms: C_4  and  C_7
REMARK    2  A    between atoms: C_16  and  C_17
REMARK    3  A    between atoms: C_20  and  C_23
REMARK    4  A    between atoms: C_23  and  N_24
REMARK    5  A    between atoms: C_27  and  C_30
REMARK    6  A    between atoms: C_32  and  C_36
REMARK                            x       y       z     vdW  Elec       q    Type
REMARK                         _______ _______ _______ _____ _____    ______ ____
ROOT
ATOM      1  C   UNL     1       2.906  -2.084   1.877  0.00  0.00    +0.001 A 
ATOM      2  C   UNL     1       2.078  -1.097   2.411  0.00  0.00    +0.010 A 
ATOM      3  C   UNL     1       1.107  -1.438   3.330  0.00  0.00    +0.002 A 
ATOM      4  C   UNL     1       0.954  -2.756   3.722  0.00  0.00    -0.064 A 
ATOM      5  C   UNL     1       1.772  -3.739   3.196  0.00  0.00    +0.002 A 
ATOM      6  C   UNL     1       2.743  -3.412   2.272  0.00  0.00    +0.010 A 
ENDROOT
BRANCH   1  16
ATOM      7  C   UNL     1       3.698  -0.688  -0.037  0.00  0.00    +0.009 A 
ATOM      8  C   UNL     1       4.676  -0.348  -0.958  0.00  0.00    +0.022 A 
ATOM      9  C   UNL     1       5.887  -1.062  -0.931  0.00  0.00    +0.020 A 
ATOM     10  C   UNL     1       6.925  -0.771  -1.834  0.00  0.00    +0.013 A 
ATOM     11  C   UNL     1       8.075  -1.504  -1.752  0.00  0.00    +0.020 A 
ATOM     12  C   UNL     1       8.191  -2.506  -0.792  0.00  0.00    +0.113 A 
ATOM     13  N   UNL     1       7.221  -2.773   0.049  0.00  0.00    -0.236 NA
ATOM     14  C   UNL     1       6.068  -2.095   0.024  0.00  0.00    +0.160 A 
ATOM     15  N   UNL     1       5.092  -2.383   0.889  0.00  0.00    -0.227 NA
ATOM     16  C   UNL     1       3.950  -1.725   0.889  0.00  0.00    +0.081 A 
BRANCH   7  20
ATOM     17  C   UNL     1      -0.017   1.379   0.010  0.00  0.00    +0.000 A 
ATOM     18  C   UNL     1       1.169   2.092   0.002  0.00  0.00    +0.001 A 
ATOM     19  C   UNL     1       2.377   1.427  -0.013  0.00  0.00    +0.008 A 
ATOM     20  C   UNL     1       2.403   0.033  -0.021  0.00  0.00    -0.016 A 
ATOM     21  C   UNL     1       1.205  -0.680  -0.013  0.00  0.00    +0.008 A 
ATOM     22  C   UNL     1       0.002  -0.004   0.002  0.00  0.00    +0.001 A 
ENDBRANCH   7  20
ENDBRANCH   1  16
BRANCH   4  23
ATOM     23  C   UNL     1      -0.108  -3.121   4.727  0.00  0.00    -0.043 C 
BRANCH  23  24
ATOM     24  N   UNL     1      -1.358  -3.441   4.024  0.00  0.00    +0.382 N 
ATOM     25  C   UNL     1      -1.854  -2.240   3.341  0.00  0.00    -0.078 C 
ATOM     26  C   UNL     1      -3.112  -2.587   2.542  0.00  0.00    -0.009 C 
ATOM     27  C   UNL     1      -4.187  -3.115   3.495  0.00  0.00    +0.034 C 
ATOM     28  C   UNL     1      -3.632  -4.323   4.257  0.00  0.00    -0.009 C 
ATOM     29  C   UNL     1      -2.355  -3.911   4.993  0.00  0.00    -0.078 C 
ATOM     30  H   UNL     1      -1.184  -4.165   3.344  0.00  0.00    -0.081 HD
BRANCH  27  31
ATOM     31  C   UNL     1      -5.401  -3.532   2.705  0.00  0.00    +0.040 A 
ATOM     32  C   UNL     1      -6.687  -3.413   3.102  0.00  0.00    +0.053 A 
ATOM     33  C   UNL     1      -7.505  -3.920   2.074  0.00  0.00    +0.094 A 
ATOM     34  N   UNL     1      -6.722  -4.326   1.097  0.00  0.00    -0.174 NA
ATOM     35  H   UNL     1      -4.607  -4.283   0.942  0.00  0.00    +0.189 HD
ATOM     36  N   UNL     1      -5.395  -4.085   1.473  0.00  0.00    -0.281 N 
BRANCH  33  37
ATOM     37  C   UNL     1      -8.988  -3.984   2.089  0.00  0.00    +0.020 A 
ATOM     38  C   UNL     1      -9.682  -4.611   1.051  0.00  0.00    +0.013 A 
ATOM     39  C   UNL     1     -11.064  -4.644   1.112  0.00  0.00    +0.020 A 
ATOM     40  C   UNL     1     -11.708  -4.062   2.189  0.00  0.00    +0.111 A 
ATOM     41  N   UNL     1     -11.026  -3.477   3.154  0.00  0.00    -0.263 NA
ATOM     42  C   UNL     1      -9.709  -3.426   3.142  0.00  0.00    +0.120 A 
ENDBRANCH  33  37
ENDBRANCH  27  31
ENDBRANCH  23  24
ENDBRANCH   4  23
TORSDOF 6
