REMARK  Name = CHEMBL381610
REMARK  10 active torsions:
REMARK  status: ('A' for Active; 'I' for Inactive)
REMARK    1  A    between atoms: C_4  and  C_7
REMARK    2  A    between atoms: C_7  and  N_8
REMARK    3  A    between atoms: C_11  and  C_15
REMARK    4  A    between atoms: C_16  and  C_17
REMARK    5  A    between atoms: C_19  and  O_23
REMARK    6  A    between atoms: O_23  and  C_24
REMARK    7  A    between atoms: C_24  and  C_25
REMARK    8  A    between atoms: C_25  and  C_27
REMARK    9  A    between atoms: C_25  and  N_38
REMARK   10  A    between atoms: C_27  and  C_28
REMARK                            x       y       z     vdW  Elec       q    Type
REMARK                         _______ _______ _______ _____ _____    ______ ____
ROOT
ATOM      1  C   UNL     1      10.178  -4.305  -1.179  0.00  0.00    -0.003 A 
ATOM      2  C   UNL     1      11.376  -4.981  -0.912  0.00  0.00    +0.056 A 
ATOM      3  C   UNL     1      12.143  -5.406  -1.988  0.00  0.00    +0.139 A 
ATOM      4  C   UNL     1      11.701  -5.148  -3.280  0.00  0.00    +0.156 A 
ATOM      5  N   UNL     1      10.568  -4.508  -3.496  0.00  0.00    -0.259 NA
ATOM      6  C   UNL     1       9.804  -4.092  -2.508  0.00  0.00    +0.118 A 
ENDROOT
BRANCH   1   8
ATOM      7  C   UNL     1       8.175  -3.191  -0.342  0.00  0.00    +0.009 C 
ATOM      8  C   UNL     1       9.323  -3.833  -0.074  0.00  0.00    +0.010 C 
BRANCH   7  12
ATOM      9  N   UNL     1       4.152  -0.952   1.338  0.00  0.00    -0.325 N 
ATOM     10  C   UNL     1       5.348  -1.621   1.576  0.00  0.00    +0.119 A 
ATOM     11  C   UNL     1       6.121  -2.048   0.505  0.00  0.00    +0.051 A 
ATOM     12  C   UNL     1       7.321  -2.718   0.762  0.00  0.00    -0.020 A 
ATOM     13  C   UNL     1       7.689  -2.929   2.100  0.00  0.00    +0.028 A 
ATOM     14  C   UNL     1       6.863  -2.473   3.103  0.00  0.00    +0.113 A 
ATOM     15  N   UNL     1       5.739  -1.839   2.823  0.00  0.00    -0.240 NA
ATOM     16  H   UNL     1       3.610  -0.648   2.082  0.00  0.00    +0.148 HD
BRANCH   9  17
ATOM     17  C   UNL     1       3.711  -0.707  -0.038  0.00  0.00    +0.138 C 
BRANCH  17  21
ATOM     18  C   UNL     1      -0.017   1.378   0.010  0.00  0.00    +0.000 A 
ATOM     19  C   UNL     1       1.171   2.086   0.002  0.00  0.00    +0.000 A 
ATOM     20  C   UNL     1       2.377   1.411  -0.013  0.00  0.00    +0.005 A 
ATOM     21  C   UNL     1       2.396   0.029  -0.020  0.00  0.00    -0.030 A 
ATOM     22  C   UNL     1       1.208  -0.679  -0.012  0.00  0.00    +0.005 A 
ATOM     23  C   UNL     1       0.002  -0.004   0.002  0.00  0.00    +0.000 A 
ENDBRANCH  17  21
ENDBRANCH   9  17
ENDBRANCH   7  12
ENDBRANCH   1   8
BRANCH   3  24
ATOM     24  O   UNL     1      13.313  -6.065  -1.781  0.00  0.00    -0.492 OA
BRANCH  24  25
ATOM     25  C   UNL     1      14.045  -6.469  -2.940  0.00  0.00    +0.213 C 
BRANCH  25  26
ATOM     26  C   UNL     1      15.323  -7.191  -2.510  0.00  0.00    -0.033 C 
BRANCH  26  27
ATOM     27  N   UNL     1      14.972  -8.438  -1.819  0.00  0.00    +0.382 N 
ATOM     28  H   UNL     1      15.816  -8.915  -1.535  0.00  0.00    -0.089 HD
ATOM     29  H   UNL     1      14.416  -8.226  -1.004  0.00  0.00    -0.089 HD
ATOM     30  H   UNL     1      14.444  -9.031  -2.441  0.00  0.00    -0.089 HD
ENDBRANCH  26  27
BRANCH  26  31
ATOM     31  C   UNL     1      16.167  -7.513  -3.746  0.00  0.00    +0.024 C 
BRANCH  31  32
ATOM     32  C   UNL     1      17.480  -8.113  -3.314  0.00  0.00    -0.024 A 
ATOM     33  C   UNL     1      18.636  -7.456  -3.129  0.00  0.00    +0.087 A 
ATOM     34  N   UNL     1      19.613  -8.330  -2.738  0.00  0.00    -0.360 N 
ATOM     35  H   UNL     1      20.532  -8.089  -2.545  0.00  0.00    +0.165 HD
ATOM     36  C   UNL     1      19.097  -9.604  -2.661  0.00  0.00    +0.047 A 
ATOM     37  C   UNL     1      17.737  -9.523  -3.012  0.00  0.00    +0.003 A 
ATOM     38  C   UNL     1      16.948 -10.675  -3.016  0.00  0.00    +0.010 A 
ATOM     39  C   UNL     1      17.502 -11.877  -2.674  0.00  0.00    +0.001 A 
ATOM     40  C   UNL     1      18.842 -11.962  -2.323  0.00  0.00    +0.002 A 
ATOM     41  C   UNL     1      19.640 -10.839  -2.321  0.00  0.00    +0.026 A 
ENDBRANCH  31  32
ENDBRANCH  26  31
ENDBRANCH  25  26
ENDBRANCH  24  25
ENDBRANCH   3  24
TORSDOF 10
