REMARK  Name = CHEMBL512305
REMARK  6 active torsions:
REMARK  status: ('A' for Active; 'I' for Inactive)
REMARK    1  A    between atoms: C_4  and  C_7
REMARK    2  A    between atoms: C_7  and  C_8
REMARK    3  A    between atoms: C_7  and  N_10
REMARK    4  A    between atoms: C_8  and  N_9
REMARK    5  A    between atoms: C_11  and  C_13
REMARK    6  A    between atoms: C_15  and  C_18
REMARK                            x       y       z     vdW  Elec       q    Type
REMARK                         _______ _______ _______ _____ _____    ______ ____
ROOT
ATOM      1  N   UNL     1       3.611  -1.865  -0.930  0.00  0.00    -0.306 N 
ATOM      2  C   UNL     1       4.721  -2.370  -1.504  0.00  0.00    +0.251 C 
ATOM      3  O   UNL     1       5.806  -1.866  -1.281  0.00  0.00    -0.270 OA
ATOM      4  H   UNL     1       2.747  -2.267  -1.108  0.00  0.00    +0.150 HD
ENDROOT
BRANCH   2   5
ATOM      5  C   UNL     1       4.621  -3.529  -2.397  0.00  0.00    +0.074 A 
ATOM      6  C   UNL     1       5.630  -4.194  -3.072  0.00  0.00    +0.029 A 
ATOM      7  C   UNL     1       5.229  -5.265  -3.851  0.00  0.00    -0.008 A 
ATOM      8  C   UNL     1       3.890  -5.578  -3.893  0.00  0.00    +0.054 A 
ATOM      9  S   UNL     1       3.172  -4.444  -2.884  0.00  0.00    -0.091 S 
BRANCH   7  10
ATOM     10  C   UNL     1       6.220  -6.057  -4.624  0.00  0.00    +0.009 A 
ATOM     11  C   UNL     1       7.177  -5.571  -5.448  0.00  0.00    +0.093 A 
ATOM     12  N   UNL     1       7.898  -6.607  -5.981  0.00  0.00    -0.345 N 
ATOM     13  H   UNL     1       8.637  -6.507  -6.600  0.00  0.00    +0.167 HD
ATOM     14  C   UNL     1       7.423  -7.808  -5.510  0.00  0.00    +0.139 A 
ATOM     15  C   UNL     1       6.357  -7.520  -4.636  0.00  0.00    +0.026 A 
ATOM     16  C   UNL     1       5.686  -8.566  -4.004  0.00  0.00    +0.013 A 
ATOM     17  C   UNL     1       6.103  -9.859  -4.263  0.00  0.00    +0.020 A 
ATOM     18  C   UNL     1       7.162 -10.070  -5.132  0.00  0.00    +0.113 A 
ATOM     19  N   UNL     1       7.778  -9.068  -5.724  0.00  0.00    -0.237 NA
ENDBRANCH   7  10
ENDBRANCH   2   5
BRANCH   1  20
ATOM     20  C   UNL     1       3.711  -0.707  -0.038  0.00  0.00    +0.086 C 
BRANCH  20  24
ATOM     21  C   UNL     1      -0.017   1.378   0.010  0.00  0.00    +0.000 A 
ATOM     22  C   UNL     1       1.171   2.086   0.002  0.00  0.00    +0.000 A 
ATOM     23  C   UNL     1       2.377   1.411  -0.013  0.00  0.00    +0.005 A 
ATOM     24  C   UNL     1       2.396   0.029  -0.020  0.00  0.00    -0.029 A 
ATOM     25  C   UNL     1       1.208  -0.679  -0.012  0.00  0.00    +0.005 A 
ATOM     26  C   UNL     1       0.002  -0.004   0.002  0.00  0.00    +0.000 A 
ENDBRANCH  20  24
BRANCH  20  27
ATOM     27  C   UNL     1       4.049  -1.182   1.377  0.00  0.00    -0.059 C 
BRANCH  27  28
ATOM     28  N   UNL     1       5.268  -2.000   1.341  0.00  0.00    +0.380 N 
ATOM     29  H   UNL     1       5.119  -2.800   0.745  0.00  0.00    -0.090 HD
ATOM     30  H   UNL     1       6.032  -1.450   0.980  0.00  0.00    -0.090 HD
ATOM     31  H   UNL     1       5.491  -2.313   2.274  0.00  0.00    -0.090 HD
ENDBRANCH  27  28
ENDBRANCH  20  27
ENDBRANCH   1  20
TORSDOF 6
