REMARK  Name = CHEMBL403354
REMARK  9 active torsions:
REMARK  status: ('A' for Active; 'I' for Inactive)
REMARK    1  A    between atoms: C_1  and  S_2
REMARK    2  A    between atoms: S_2  and  C_3
REMARK    3  A    between atoms: C_8  and  C_29
REMARK    4  A    between atoms: C_9  and  C_13
REMARK    5  A    between atoms: C_16  and  C_19
REMARK    6  A    between atoms: C_19  and  N_20
REMARK    7  A    between atoms: N_20  and  C_21
REMARK    8  A    between atoms: C_21  and  C_22
REMARK    9  A    between atoms: C_22  and  C_23
REMARK                            x       y       z     vdW  Elec       q    Type
REMARK                         _______ _______ _______ _____ _____    ______ ____
ROOT
ATOM      1  C   UNL     1       0.877  -0.427   1.472  0.00  0.00    +0.190 A 
ATOM      2  N   UNL     1       1.317   0.555   2.258  0.00  0.00    -0.230 NA
ATOM      3  C   UNL     1       1.977   0.301   3.369  0.00  0.00    +0.125 A 
ATOM      4  C   UNL     1       2.211  -1.041   3.719  0.00  0.00    +0.038 A 
ATOM      5  C   UNL     1       2.905  -1.392   4.886  0.00  0.00    +0.023 A 
ATOM      6  C   UNL     1       3.091  -2.741   5.153  0.00  0.00    +0.009 A 
ATOM      7  C   UNL     1       2.582  -3.702   4.252  0.00  0.00    +0.081 A 
ATOM      8  N   UNL     1       1.933  -3.345   3.159  0.00  0.00    -0.227 NA
ATOM      9  C   UNL     1       1.728  -2.063   2.858  0.00  0.00    +0.165 A 
ATOM     10  N   UNL     1       1.064  -1.703   1.752  0.00  0.00    -0.202 NA
ENDROOT
BRANCH   7  11
ATOM     11  C   UNL     1       2.782  -5.141   4.539  0.00  0.00    +0.001 A 
ATOM     12  C   UNL     1       3.953  -5.576   5.159  0.00  0.00    +0.010 A 
ATOM     13  C   UNL     1       4.133  -6.918   5.424  0.00  0.00    +0.005 A 
ATOM     14  C   UNL     1       3.155  -7.832   5.075  0.00  0.00    -0.034 A 
ATOM     15  C   UNL     1       1.991  -7.407   4.459  0.00  0.00    +0.005 A 
ATOM     16  C   UNL     1       1.797  -6.067   4.195  0.00  0.00    +0.010 A 
BRANCH  14  17
ATOM     17  C   UNL     1       3.358  -9.297   5.367  0.00  0.00    +0.116 C 
BRANCH  17  18
ATOM     18  N   UNL     1       2.828  -9.608   6.702  0.00  0.00    -0.312 NA
ATOM     19  H   UNL     1       3.253  -9.023   7.405  0.00  0.00    +0.122 HD
BRANCH  18  20
ATOM     20  C   UNL     1       3.009 -11.030   7.021  0.00  0.00    +0.086 C 
BRANCH  20  21
ATOM     21  C   UNL     1       2.446 -11.316   8.415  0.00  0.00    +0.052 C 
BRANCH  21  22
ATOM     22  C   UNL     1       2.632 -12.775   8.743  0.00  0.00    -0.028 A 
ATOM     23  C   UNL     1       1.654 -13.699   8.410  0.00  0.00    +0.006 A 
ATOM     24  C   UNL     1       1.867 -15.031   8.730  0.00  0.00    +0.020 A 
ATOM     25  C   UNL     1       3.040 -15.390   9.367  0.00  0.00    +0.111 A 
ATOM     26  N   UNL     1       3.949 -14.484   9.669  0.00  0.00    -0.263 NA
ATOM     27  C   UNL     1       3.782 -13.209   9.374  0.00  0.00    +0.114 A 
ENDBRANCH  21  22
ENDBRANCH  20  21
ENDBRANCH  18  20
ENDBRANCH  17  18
ENDBRANCH  14  17
ENDBRANCH   7  11
BRANCH   6  28
ATOM     28  C   UNL     1       3.817  -3.169   6.372  0.00  0.00    -0.016 A 
ATOM     29  C   UNL     1       3.265  -4.134   7.213  0.00  0.00    +0.008 A 
ATOM     30  C   UNL     1       3.946  -4.529   8.346  0.00  0.00    +0.001 A 
ATOM     31  C   UNL     1       5.174  -3.969   8.649  0.00  0.00    +0.000 A 
ATOM     32  C   UNL     1       5.727  -3.011   7.818  0.00  0.00    +0.001 A 
ATOM     33  C   UNL     1       5.058  -2.612   6.679  0.00  0.00    +0.008 A 
ENDBRANCH   6  28
BRANCH   1  35
ATOM     34  C   UNL     1      -0.022   1.810   0.012  0.00  0.00    +0.093 C 
ATOM     35  S   UNL     1       0.002  -0.004   0.002  0.00  0.00    -0.089 S 
ENDBRANCH   1  35
TORSDOF 8
