REMARK  Name = CHEMBL576733
REMARK  8 active torsions:
REMARK  status: ('A' for Active; 'I' for Inactive)
REMARK    1  A    between atoms: C_7  and  C_11
REMARK    2  A    between atoms: C_11  and  C_12
REMARK    3  A    between atoms: C_12  and  C_14
REMARK    4  A    between atoms: C_12  and  N_37
REMARK    5  A    between atoms: C_14  and  O_15
REMARK    6  A    between atoms: O_15  and  C_16
REMARK    7  A    between atoms: C_18  and  C_22
REMARK    8  A    between atoms: C_28  and  C_32
REMARK                            x       y       z     vdW  Elec       q    Type
REMARK                         _______ _______ _______ _____ _____    ______ ____
ROOT
ATOM      1  C   UNL     1      -1.673  -6.334  -3.003  0.00  0.00    +0.139 A 
ATOM      2  C   UNL     1      -2.006  -6.750  -4.286  0.00  0.00    +0.057 A 
ATOM      3  C   UNL     1      -2.783  -7.902  -4.426  0.00  0.00    +0.004 A 
ATOM      4  C   UNL     1      -3.191  -8.586  -3.282  0.00  0.00    +0.119 A 
ATOM      5  N   UNL     1      -2.852  -8.155  -2.085  0.00  0.00    -0.259 NA
ATOM      6  C   UNL     1      -2.115  -7.074  -1.915  0.00  0.00    +0.156 A 
ENDROOT
BRANCH   3   7
ATOM      7  C   UNL     1      -3.168  -8.392  -5.773  0.00  0.00    -0.016 A 
ATOM      8  C   UNL     1      -2.747  -7.699  -6.915  0.00  0.00    +0.010 A 
ATOM      9  C   UNL     1      -3.092  -8.134  -8.159  0.00  0.00    +0.028 A 
ATOM     10  C   UNL     1      -3.871  -9.281  -8.309  0.00  0.00    +0.066 A 
ATOM     11  C   UNL     1      -4.300  -9.986  -7.169  0.00  0.00    +0.028 A 
ATOM     12  C   UNL     1      -3.939  -9.537  -5.899  0.00  0.00    +0.020 A 
ATOM     13  C   UNL     1      -5.088 -11.124  -7.660  0.00  0.00    +0.107 A 
ATOM     14  N   UNL     1      -5.098 -11.059  -8.971  0.00  0.00    -0.172 NA
ATOM     15  N   UNL     1      -4.366  -9.948  -9.400  0.00  0.00    -0.276 N 
ATOM     16  H   UNL     1      -4.230  -9.689 -10.325  0.00  0.00    +0.189 HD
BRANCH  13  17
ATOM     17  C   UNL     1      -5.747 -12.152  -6.831  0.00  0.00    +0.040 A 
ATOM     18  C   UNL     1      -6.930 -12.809  -7.048  0.00  0.00    +0.018 A 
ATOM     19  C   UNL     1      -7.349 -13.740  -6.123  0.00  0.00    +0.008 A 
ATOM     20  C   UNL     1      -6.581 -13.978  -5.029  0.00  0.00    +0.046 A 
ATOM     21  S   UNL     1      -5.206 -12.870  -5.288  0.00  0.00    -0.095 S 
ENDBRANCH  13  17
ENDBRANCH   3   7
BRANCH   1  22
ATOM     22  O   UNL     1      -0.919  -5.219  -2.816  0.00  0.00    -0.492 OA
BRANCH  22  23
ATOM     23  C   UNL     1      -0.614  -4.861  -1.466  0.00  0.00    +0.213 C 
BRANCH  23  24
ATOM     24  C   UNL     1       0.236  -3.589  -1.455  0.00  0.00    -0.033 C 
BRANCH  24  25
ATOM     25  N   UNL     1      -0.552  -2.469  -1.986  0.00  0.00    +0.382 N 
ATOM     26  H   UNL     1      -0.836  -2.676  -2.932  0.00  0.00    -0.089 HD
ATOM     27  H   UNL     1      -1.370  -2.331  -1.412  0.00  0.00    -0.089 HD
ATOM     28  H   UNL     1       0.009  -1.630  -1.979  0.00  0.00    -0.089 HD
ENDBRANCH  24  25
BRANCH  24  29
ATOM     29  C   UNL     1       0.666  -3.275  -0.021  0.00  0.00    +0.024 C 
BRANCH  29  36
ATOM     30  C   UNL     1      -0.017   1.362   0.009  0.00  0.00    +0.001 A 
ATOM     31  C   UNL     1       1.170   2.083   0.002  0.00  0.00    +0.002 A 
ATOM     32  C   UNL     1       2.386   1.436  -0.013  0.00  0.00    +0.026 A 
ATOM     33  C   UNL     1       2.428   0.046  -0.021  0.00  0.00    +0.047 A 
ATOM     34  C   UNL     1       1.223  -0.681  -0.013  0.00  0.00    +0.003 A 
ATOM     35  C   UNL     1       0.002  -0.004   0.002  0.00  0.00    +0.010 A 
ATOM     36  C   UNL     1       1.604  -2.095  -0.025  0.00  0.00    -0.024 A 
ATOM     37  C   UNL     1       2.945  -2.141  -0.038  0.00  0.00    +0.087 A 
ATOM     38  N   UNL     1       3.455  -0.871  -0.036  0.00  0.00    -0.360 N 
ATOM     39  H   UNL     1       4.399  -0.650  -0.044  0.00  0.00    +0.165 HD
ENDBRANCH  29  36
ENDBRANCH  24  29
ENDBRANCH  23  24
ENDBRANCH  22  23
ENDBRANCH   1  22
TORSDOF 8
