REMARK  Name = CHEMBL259968
REMARK  6 active torsions:
REMARK  status: ('A' for Active; 'I' for Inactive)
REMARK    1  A    between atoms: C_4  and  C_7
REMARK    2  A    between atoms: C_16  and  C_17
REMARK    3  A    between atoms: C_20  and  C_23
REMARK    4  A    between atoms: C_23  and  N_24
REMARK    5  A    between atoms: C_27  and  C_30
REMARK    6  A    between atoms: C_32  and  C_36
REMARK                            x       y       z     vdW  Elec       q    Type
REMARK                         _______ _______ _______ _____ _____    ______ ____
ROOT
ATOM      1  C   UNL     1       2.904  -2.083   1.877  0.00  0.00    +0.001 A 
ATOM      2  C   UNL     1       2.078  -1.095   2.410  0.00  0.00    +0.010 A 
ATOM      3  C   UNL     1       1.106  -1.434   3.330  0.00  0.00    +0.002 A 
ATOM      4  C   UNL     1       0.951  -2.752   3.723  0.00  0.00    -0.064 A 
ATOM      5  C   UNL     1       1.768  -3.736   3.197  0.00  0.00    +0.002 A 
ATOM      6  C   UNL     1       2.740  -3.410   2.273  0.00  0.00    +0.010 A 
ENDROOT
BRANCH   1  16
ATOM      7  C   UNL     1       3.698  -0.688  -0.038  0.00  0.00    +0.009 A 
ATOM      8  C   UNL     1       4.675  -0.346  -0.960  0.00  0.00    +0.020 A 
ATOM      9  C   UNL     1       5.883  -1.061  -0.932  0.00  0.00    +0.004 A 
ATOM     10  C   UNL     1       6.933  -0.787  -1.826  0.00  0.00    +0.030 A 
ATOM     11  C   UNL     1       8.076  -1.523  -1.739  0.00  0.00    +0.111 A 
ATOM     12  N   UNL     1       8.220  -2.484  -0.837  0.00  0.00    -0.261 NA
ATOM     13  C   UNL     1       7.283  -2.794   0.028  0.00  0.00    +0.139 A 
ATOM     14  C   UNL     1       6.062  -2.095   0.024  0.00  0.00    +0.090 A 
ATOM     15  N   UNL     1       5.090  -2.385   0.890  0.00  0.00    -0.245 NA
ATOM     16  C   UNL     1       3.949  -1.726   0.889  0.00  0.00    +0.079 A 
BRANCH   7  20
ATOM     17  C   UNL     1      -0.017   1.379   0.010  0.00  0.00    +0.000 A 
ATOM     18  C   UNL     1       1.169   2.092   0.002  0.00  0.00    +0.001 A 
ATOM     19  C   UNL     1       2.377   1.427  -0.013  0.00  0.00    +0.008 A 
ATOM     20  C   UNL     1       2.403   0.033  -0.021  0.00  0.00    -0.016 A 
ATOM     21  C   UNL     1       1.205  -0.680  -0.013  0.00  0.00    +0.008 A 
ATOM     22  C   UNL     1       0.002  -0.004   0.002  0.00  0.00    +0.001 A 
ENDBRANCH   7  20
ENDBRANCH   1  16
BRANCH   4  23
ATOM     23  C   UNL     1      -0.111  -3.115   4.728  0.00  0.00    -0.043 C 
BRANCH  23  24
ATOM     24  N   UNL     1      -1.361  -3.434   4.025  0.00  0.00    +0.382 N 
ATOM     25  C   UNL     1      -1.856  -2.233   3.341  0.00  0.00    -0.078 C 
ATOM     26  C   UNL     1      -3.114  -2.579   2.541  0.00  0.00    -0.007 C 
ATOM     27  C   UNL     1      -4.190  -3.105   3.495  0.00  0.00    +0.055 C 
ATOM     28  C   UNL     1      -3.637  -4.313   4.257  0.00  0.00    -0.007 C 
ATOM     29  C   UNL     1      -2.360  -3.903   4.993  0.00  0.00    -0.078 C 
ATOM     30  H   UNL     1      -1.188  -4.159   3.344  0.00  0.00    -0.081 HD
BRANCH  27  31
ATOM     31  C   UNL     1      -5.404  -3.521   2.705  0.00  0.00    +0.154 A 
ATOM     32  N   UNL     1      -6.623  -3.008   2.839  0.00  0.00    -0.210 NA
ATOM     33  C   UNL     1      -7.449  -3.595   1.997  0.00  0.00    +0.175 A 
ATOM     34  N   UNL     1      -6.744  -4.514   1.299  0.00  0.00    -0.257 N 
ATOM     35  H   UNL     1      -7.081  -5.104   0.607  0.00  0.00    +0.191 HD
ATOM     36  N   UNL     1      -5.424  -4.441   1.774  0.00  0.00    -0.157 NA
BRANCH  33  37
ATOM     37  C   UNL     1      -8.892  -3.302   1.844  0.00  0.00    +0.107 A 
ATOM     38  C   UNL     1      -9.486  -2.319   2.634  0.00  0.00    +0.031 A 
ATOM     39  C   UNL     1     -10.835  -2.056   2.478  0.00  0.00    +0.004 A 
ATOM     40  C   UNL     1     -11.548  -2.785   1.537  0.00  0.00    +0.020 A 
ATOM     41  C   UNL     1     -10.896  -3.747   0.787  0.00  0.00    +0.111 A 
ATOM     42  N   UNL     1      -9.609  -3.974   0.951  0.00  0.00    -0.252 NA
ENDBRANCH  33  37
ENDBRANCH  27  31
ENDBRANCH  23  24
ENDBRANCH   4  23
TORSDOF 6
