REMARK  Name = CHEMBL203329
REMARK  8 active torsions:
REMARK  status: ('A' for Active; 'I' for Inactive)
REMARK    1  A    between atoms: C_7  and  C_11
REMARK    2  A    between atoms: C_11  and  C_12
REMARK    3  A    between atoms: C_12  and  C_14
REMARK    4  A    between atoms: C_12  and  N_31
REMARK    5  A    between atoms: C_14  and  C_15
REMARK    6  A    between atoms: C_15  and  C_16
REMARK    7  A    between atoms: C_18  and  C_23
REMARK    8  A    between atoms: C_24  and  C_25
REMARK                            x       y       z     vdW  Elec       q    Type
REMARK                         _______ _______ _______ _____ _____    ______ ____
ROOT
ATOM      1  C   UNL     1      -0.614  -4.861  -1.466  0.00  0.00    -0.011 C 
ENDROOT
BRANCH   1   2
ATOM      2  C   UNL     1       0.236  -3.589  -1.455  0.00  0.00    -0.070 C 
BRANCH   2   3
ATOM      3  N   UNL     1      -0.552  -2.469  -1.986  0.00  0.00    +0.380 N 
ATOM      4  H   UNL     1       0.009  -1.630  -1.979  0.00  0.00    -0.090 HD
ATOM      5  H   UNL     1      -0.836  -2.676  -2.932  0.00  0.00    -0.090 HD
ATOM      6  H   UNL     1      -1.370  -2.331  -1.412  0.00  0.00    -0.090 HD
ENDBRANCH   2   3
BRANCH   2   7
ATOM      7  C   UNL     1       0.666  -3.275  -0.021  0.00  0.00    +0.021 C 
BRANCH   7  14
ATOM      8  C   UNL     1      -0.017   1.362   0.009  0.00  0.00    +0.001 A 
ATOM      9  C   UNL     1       1.170   2.083   0.002  0.00  0.00    +0.002 A 
ATOM     10  C   UNL     1       2.386   1.436  -0.013  0.00  0.00    +0.026 A 
ATOM     11  C   UNL     1       2.428   0.046  -0.021  0.00  0.00    +0.047 A 
ATOM     12  C   UNL     1       1.223  -0.681  -0.013  0.00  0.00    +0.003 A 
ATOM     13  C   UNL     1       0.002  -0.004   0.002  0.00  0.00    +0.010 A 
ATOM     14  C   UNL     1       1.604  -2.095  -0.025  0.00  0.00    -0.024 A 
ATOM     15  C   UNL     1       2.945  -2.141  -0.038  0.00  0.00    +0.087 A 
ATOM     16  N   UNL     1       3.455  -0.871  -0.036  0.00  0.00    -0.360 N 
ATOM     17  H   UNL     1       4.399  -0.650  -0.044  0.00  0.00    +0.165 HD
ENDBRANCH   7  14
ENDBRANCH   2   7
ENDBRANCH   1   2
BRANCH   1  18
ATOM     18  C   UNL     1      -0.940  -5.244  -2.911  0.00  0.00    +0.035 C 
BRANCH  18  19
ATOM     19  C   UNL     1      -1.778  -6.497  -2.921  0.00  0.00    -0.029 A 
ATOM     20  C   UNL     1      -1.174  -7.741  -2.969  0.00  0.00    +0.016 A 
ATOM     21  C   UNL     1      -1.993  -8.877  -2.977  0.00  0.00    +0.012 A 
ATOM     22  C   UNL     1      -3.381  -8.708  -2.937  0.00  0.00    +0.136 A 
ATOM     23  N   UNL     1      -3.907  -7.501  -2.893  0.00  0.00    -0.243 NA
ATOM     24  C   UNL     1      -3.158  -6.415  -2.878  0.00  0.00    +0.116 A 
ATOM     25 CL   UNL     1      -4.419 -10.100  -2.946  0.00  0.00    -0.061 Cl
BRANCH  21  26
ATOM     26  C   UNL     1      -1.403 -10.227  -3.027  0.00  0.00    +0.011 C 
ATOM     27  C   UNL     1      -0.069 -10.375  -3.065  0.00  0.00    +0.009 C 
BRANCH  27  28
ATOM     28  C   UNL     1       0.520 -11.725  -3.115  0.00  0.00    -0.022 A 
ATOM     29  C   UNL     1      -0.292 -12.866  -3.129  0.00  0.00    +0.027 A 
ATOM     30  C   UNL     1       0.302 -14.109  -3.176  0.00  0.00    +0.111 A 
ATOM     31  N   UNL     1       1.616 -14.231  -3.207  0.00  0.00    -0.263 NA
ATOM     32  C   UNL     1       2.418 -13.184  -3.195  0.00  0.00    +0.111 A 
ATOM     33  C   UNL     1       1.910 -11.903  -3.155  0.00  0.00    +0.027 A 
ENDBRANCH  27  28
ENDBRANCH  21  26
ENDBRANCH  18  19
ENDBRANCH   1  18
TORSDOF 8
