REMARK  Name = CHEMBL251860
REMARK  11 active torsions:
REMARK  status: ('A' for Active; 'I' for Inactive)
REMARK    1  A    between atoms: C_1  and  N_2
REMARK    2  A    between atoms: N_5  and  C_8
REMARK    3  A    between atoms: C_8  and  C_9
REMARK    4  A    between atoms: C_9  and  C_10
REMARK    5  A    between atoms: C_10  and  N_11
REMARK    6  A    between atoms: N_11  and  C_12
REMARK    7  A    between atoms: C_12  and  C_13
REMARK    8  A    between atoms: C_16  and  C_19
REMARK    9  A    between atoms: C_20  and  C_31
REMARK   10  A    between atoms: C_25  and  S_29
REMARK   11  A    between atoms: S_29  and  C_30
REMARK                            x       y       z     vdW  Elec       q    Type
REMARK                         _______ _______ _______ _____ _____    ______ ____
ROOT
ATOM      1  C   UNL     1       0.962  -8.409   5.247  0.00  0.00    -0.064 A 
ATOM      2  C   UNL     1       2.318  -8.636   5.399  0.00  0.00    +0.002 A 
ATOM      3  C   UNL     1       2.816  -9.065   6.612  0.00  0.00    +0.010 A 
ATOM      4  C   UNL     1       1.950  -9.271   7.686  0.00  0.00    +0.001 A 
ATOM      5  C   UNL     1       0.584  -9.040   7.526  0.00  0.00    +0.010 A 
ATOM      6  C   UNL     1       0.098  -8.606   6.309  0.00  0.00    +0.002 A 
ENDROOT
BRANCH   4   7
ATOM      7  C   UNL     1       2.479  -9.732   8.990  0.00  0.00    +0.081 A 
ATOM      8  C   UNL     1       1.878  -9.269  10.182  0.00  0.00    +0.009 A 
ATOM      9  C   UNL     1       2.371  -9.700  11.405  0.00  0.00    +0.023 A 
ATOM     10  C   UNL     1       3.458 -10.587  11.401  0.00  0.00    +0.038 A 
ATOM     11  C   UNL     1       4.022 -11.075  12.594  0.00  0.00    +0.125 A 
ATOM     12  N   UNL     1       5.041 -11.905  12.513  0.00  0.00    -0.230 NA
ATOM     13  C   UNL     1       5.537 -12.283  11.335  0.00  0.00    +0.190 A 
ATOM     14  N   UNL     1       5.049 -11.856  10.186  0.00  0.00    -0.202 NA
ATOM     15  C   UNL     1       4.011 -11.009  10.163  0.00  0.00    +0.165 A 
ATOM     16  N   UNL     1       3.498 -10.570   9.014  0.00  0.00    -0.227 NA
BRANCH   8  17
ATOM     17  C   UNL     1       0.731  -8.331  10.126  0.00  0.00    -0.016 A 
ATOM     18  C   UNL     1       0.803  -7.184   9.338  0.00  0.00    +0.008 A 
ATOM     19  C   UNL     1      -0.268  -6.315   9.290  0.00  0.00    +0.001 A 
ATOM     20  C   UNL     1      -1.411  -6.580  10.022  0.00  0.00    +0.000 A 
ATOM     21  C   UNL     1      -1.488  -7.717  10.806  0.00  0.00    +0.001 A 
ATOM     22  C   UNL     1      -0.426  -8.597  10.857  0.00  0.00    +0.008 A 
ENDBRANCH   8  17
BRANCH  13  23
ATOM     23  S   UNL     1       6.902 -13.397  11.312  0.00  0.00    -0.089 S 
ATOM     24  C   UNL     1       7.240 -13.714  13.066  0.00  0.00    +0.093 C 
ENDBRANCH  13  23
ENDBRANCH   4   7
BRANCH   1  25
ATOM     25  C   UNL     1       0.424  -7.940   3.919  0.00  0.00    -0.047 C 
BRANCH  25  26
ATOM     26  N   UNL     1       0.431  -6.472   3.879  0.00  0.00    +0.382 N 
ATOM     27  H   UNL     1       1.376  -6.137   3.997  0.00  0.00    -0.085 HD
ATOM     28  H   UNL     1      -0.148  -6.112   4.623  0.00  0.00    -0.085 HD
BRANCH  26  29
ATOM     29  C   UNL     1      -0.093  -6.015   2.586  0.00  0.00    -0.081 C 
BRANCH  29  30
ATOM     30  C   UNL     1      -0.086  -4.485   2.544  0.00  0.00    -0.004 C 
BRANCH  30  31
ATOM     31  C   UNL     1      -0.632  -4.009   1.196  0.00  0.00    +0.082 C 
BRANCH  31  36
ATOM     32  C   UNL     1      -0.018   1.465   0.010  0.00  0.00    -0.096 C 
ATOM     33  N   UNL     1       0.002  -0.004   0.002  0.00  0.00    +0.379 N 
ATOM     34  C   UNL     1      -1.376  -0.512   0.011  0.00  0.00    -0.064 C 
ATOM     35  C   UNL     1      -1.356  -2.042  -0.017  0.00  0.00    +0.066 C 
ATOM     36  N   UNL     1      -0.624  -2.541   1.156  0.00  0.00    -0.306 NA
ATOM     37  C   UNL     1       0.750  -2.020   1.175  0.00  0.00    +0.066 C 
ATOM     38  C   UNL     1       0.713  -0.490   1.192  0.00  0.00    -0.064 C 
ATOM     39  H   UNL     1       0.475  -0.329  -0.828  0.00  0.00    -0.082 HD
ENDBRANCH  31  36
ENDBRANCH  30  31
ENDBRANCH  29  30
ENDBRANCH  26  29
ENDBRANCH  25  26
ENDBRANCH   1  25
TORSDOF 9
