REMARK  Name = CHEMBL575448
REMARK  4 active torsions:
REMARK  status: ('A' for Active; 'I' for Inactive)
REMARK    1  A    between atoms: C_1  and  C_2
REMARK    2  A    between atoms: C_2  and  C_26
REMARK    3  A    between atoms: C_19  and  C_23
REMARK    4  A    between atoms: N_28  and  C_29
REMARK                            x       y       z     vdW  Elec       q    Type
REMARK                         _______ _______ _______ _____ _____    ______ ____
ROOT
ATOM      1  C   UNL     1       1.754  -2.614   1.591  0.00  0.00    +0.042 C 
ATOM      2  C   UNL     1       1.937  -1.197   1.043  0.00  0.00    +0.111 C 
ATOM      3  C   UNL     1       2.300  -1.258  -0.456  0.00  0.00    +0.037 C 
ATOM      4  C   UNL     1       1.520  -0.055  -1.051  0.00  0.00    +0.022 C 
ATOM      5  C   UNL     1       0.229  -0.067  -0.194  0.00  0.00    +0.109 C 
ATOM      6  N   UNL     1       0.677  -0.450   1.157  0.00  0.00    -0.286 N 
ATOM      7  C   UNL     1       0.017  -0.153   2.342  0.00  0.00    +0.213 A 
ATOM      8  N   UNL     1      -1.177   0.445   2.286  0.00  0.00    -0.198 NA
ATOM      9  C   UNL     1      -1.851   0.750   3.382  0.00  0.00    +0.153 A 
ATOM     10  C   UNL     1      -1.295   0.438   4.645  0.00  0.00    +0.103 A 
ATOM     11  C   UNL     1      -1.724   0.615   5.947  0.00  0.00    +0.032 A 
ATOM     12  C   UNL     1      -0.729   0.095   6.774  0.00  0.00    +0.022 A 
ATOM     13  C   UNL     1       0.268  -0.380   5.980  0.00  0.00    +0.111 A 
ATOM     14  N   UNL     1      -0.062  -0.179   4.691  0.00  0.00    -0.257 N 
ATOM     15  N   UNL     1       0.583  -0.473   3.481  0.00  0.00    -0.264 N 
ATOM     16  N   UNL     1      -3.082   1.368   3.295  0.00  0.00    -0.281 N 
ATOM     17  C   UNL     1      -3.674   1.577   2.043  0.00  0.00    +0.146 A 
ATOM     18  C   UNL     1      -3.090   1.298   0.797  0.00  0.00    +0.068 A 
ATOM     19  C   UNL     1      -3.978   1.638  -0.164  0.00  0.00    +0.041 A 
ATOM     20  N   UNL     1      -5.084   2.115   0.445  0.00  0.00    -0.280 N 
ATOM     21  H   UNL     1      -5.886   2.434   0.002  0.00  0.00    +0.189 HD
ATOM     22  N   UNL     1      -4.875   2.062   1.829  0.00  0.00    -0.158 NA
ATOM     23  H   UNL     1      -3.538   1.658   4.101  0.00  0.00    +0.155 HD
ATOM     24  H   UNL     1       1.449  -0.909   3.487  0.00  0.00    +0.190 HD
ENDROOT
BRANCH   2  25
ATOM     25  C   UNL     1       3.025  -0.489   1.808  0.00  0.00    +0.241 C 
ATOM     26  O   UNL     1       3.884  -1.131   2.376  0.00  0.00    -0.273 OA
ATOM     27  N   UNL     1       3.043   0.858   1.862  0.00  0.00    -0.282 N 
ATOM     28  H   UNL     1       2.315   1.369   1.477  0.00  0.00    +0.155 HD
BRANCH  27  29
ATOM     29  C   UNL     1       4.115   1.519   2.476  0.00  0.00    +0.052 A 
ATOM     30  C   UNL     1       5.406   1.004   2.389  0.00  0.00    +0.029 A 
ATOM     31  C   UNL     1       6.433   1.692   3.011  0.00  0.00    +0.061 A 
ATOM     32  C   UNL     1       6.146   2.863   3.695  0.00  0.00    +0.213 A 
ATOM     33  N   UNL     1       4.910   3.324   3.758  0.00  0.00    -0.226 NA
ATOM     34  C   UNL     1       3.906   2.700   3.174  0.00  0.00    +0.137 A 
ATOM     35  F   UNL     1       7.142   3.540   4.305  0.00  0.00    -0.184 F 
ENDBRANCH  27  29
ENDBRANCH   2  25
BRANCH  19  36
ATOM     36  C   UNL     1      -3.770   1.509  -1.651  0.00  0.00    +0.037 C 
ATOM     37  C   UNL     1      -4.417   2.564  -2.549  0.00  0.00    +0.010 C 
ATOM     38  C   UNL     1      -4.986   1.145  -2.505  0.00  0.00    +0.010 C 
ENDBRANCH  19  36
TORSDOF 3
