REMARK  Name = CHEMBL1173349
REMARK  2 active torsions:
REMARK  status: ('A' for Active; 'I' for Inactive)
REMARK    1  A    between atoms: C_10  and  N_11
REMARK    2  A    between atoms: C_15  and  N_17
REMARK                            x       y       z     vdW  Elec       q    Type
REMARK                         _______ _______ _______ _____ _____    ______ ____
ROOT
ATOM      1  C   UNL     1       2.384  -0.538   3.278  0.00  0.00    +0.105 A 
ATOM      2  C   UNL     1       3.143   0.331   2.588  0.00  0.00    +0.071 A 
ATOM      3  C   UNL     1       3.001  -0.015   1.174  0.00  0.00    +0.077 A 
ATOM      4  C   UNL     1       2.127  -1.117   1.124  0.00  0.00    +0.145 A 
ATOM      5  N   UNL     1       1.771  -1.409   2.412  0.00  0.00    -0.344 N 
ATOM      6  H   UNL     1       1.173  -2.126   2.675  0.00  0.00    +0.167 HD
ATOM      7  N   UNL     1       1.826  -1.637  -0.065  0.00  0.00    -0.218 NA
ATOM      8  C   UNL     1       2.335  -1.131  -1.168  0.00  0.00    +0.225 A 
ATOM      9  N   UNL     1       3.159  -0.099  -1.166  0.00  0.00    -0.220 NA
ATOM     10  C   UNL     1       3.519   0.489  -0.029  0.00  0.00    +0.135 A 
ATOM     11 CL   UNL     1       4.105   1.616   3.248  0.00  0.00    -0.081 Cl
ENDROOT
BRANCH  10  12
ATOM     12  N   UNL     1       4.381   1.570  -0.031  0.00  0.00    -0.316 N 
ATOM     13  C   UNL     1       3.862   2.942  -0.124  0.00  0.00    +0.106 C 
ATOM     14  C   UNL     1       4.556   3.654  -1.289  0.00  0.00    +0.017 C 
ATOM     15  C   UNL     1       6.073   3.567  -1.104  0.00  0.00    -0.013 C 
ATOM     16  C   UNL     1       6.506   2.099  -1.109  0.00  0.00    -0.057 C 
ATOM     17  C   UNL     1       5.834   1.370   0.064  0.00  0.00    +0.090 C 
BRANCH  16  18
ATOM     18  N   UNL     1       7.965   2.018  -0.963  0.00  0.00    +0.381 N 
ATOM     19  H   UNL     1       8.241   2.447  -0.092  0.00  0.00    -0.090 HD
ATOM     20  H   UNL     1       8.250   1.050  -0.966  0.00  0.00    -0.090 HD
ATOM     21  H   UNL     1       8.408   2.501  -1.730  0.00  0.00    -0.090 HD
ENDBRANCH  16  18
ENDBRANCH  10  12
TORSDOF 2
