REMARK  Name = CHEMBL493066
REMARK  4 active torsions:
REMARK  status: ('A' for Active; 'I' for Inactive)
REMARK    1  A    between atoms: C_1  and  C_2
REMARK    2  A    between atoms: C_2  and  N_3
REMARK    3  A    between atoms: C_5  and  C_18
REMARK    4  A    between atoms: C_11  and  C_12
REMARK                            x       y       z     vdW  Elec       q    Type
REMARK                         _______ _______ _______ _____ _____    ______ ____
ROOT
ATOM      1  N   UNL     1       0.701  -0.273  -1.290  0.00  0.00    -0.322 N 
ATOM      2  C   UNL     1       0.101  -0.740  -2.428  0.00  0.00    +0.084 A 
ATOM      3  C   UNL     1      -1.226  -0.891  -2.864  0.00  0.00    +0.080 A 
ATOM      4  C   UNL     1      -1.453  -1.422  -4.132  0.00  0.00    +0.126 A 
ATOM      5  N   UNL     1      -0.450  -1.778  -4.911  0.00  0.00    -0.260 NA
ATOM      6  C   UNL     1       0.810  -1.655  -4.547  0.00  0.00    +0.140 A 
ATOM      7  C   UNL     1       1.141  -1.133  -3.295  0.00  0.00    +0.108 A 
ATOM      8  N   UNL     1       2.307  -0.890  -2.651  0.00  0.00    -0.224 NA
ATOM      9  C   UNL     1       2.056  -0.378  -1.471  0.00  0.00    +0.167 A 
ENDROOT
BRANCH   3  10
ATOM     10  C   UNL     1      -2.353  -0.496  -1.997  0.00  0.00    +0.250 C 
ATOM     11  O   UNL     1      -2.498  -1.023  -0.911  0.00  0.00    -0.270 OA
ATOM     12  N   UNL     1      -3.221   0.448  -2.410  0.00  0.00    -0.295 N 
ATOM     13  C   UNL     1      -3.129   1.019  -3.763  0.00  0.00    +0.123 C 
ATOM     14  C   UNL     1      -3.123   2.547  -3.647  0.00  0.00    +0.100 C 
ATOM     15  N   UNL     1      -4.291   2.980  -2.868  0.00  0.00    -0.313 NA
ATOM     16  C   UNL     1      -4.234   2.467  -1.492  0.00  0.00    +0.100 C 
ATOM     17  C   UNL     1      -4.289   0.931  -1.522  0.00  0.00    +0.123 C 
ATOM     18  H   UNL     1      -4.378   3.986  -2.875  0.00  0.00    +0.122 HD
ENDBRANCH   3  10
BRANCH   9  19
ATOM     19  C   UNL     1       3.080   0.023  -0.482  0.00  0.00    +0.190 A 
ATOM     20  C   UNL     1       4.535  -0.076  -0.660  0.00  0.00    +0.191 A 
ATOM     21  N   UNL     1       5.112   0.371   0.421  0.00  0.00    -0.033 NA
ATOM     22  O   UNL     1       4.096   0.769   1.325  0.00  0.00    -0.240 OA
ATOM     23  N   UNL     1       2.847   0.532   0.701  0.00  0.00    -0.044 NA
ATOM     24  N   UNL     1       5.184  -0.563  -1.787  0.00  0.00    -0.339 N 
ATOM     25  H   UNL     1       4.669  -0.876  -2.546  0.00  0.00    +0.144 HD
ATOM     26  H   UNL     1       6.154  -0.591  -1.814  0.00  0.00    +0.144 HD
ENDBRANCH   9  19
BRANCH   1  28
ATOM     27  C   UNL     1      -0.113   1.768  -0.216  0.00  0.00    +0.027 C 
ATOM     28  C   UNL     1       0.021   0.248  -0.101  0.00  0.00    +0.120 C 
ENDBRANCH   1  28
TORSDOF 3
