REMARK  Name = CHEMBL273160
REMARK  6 active torsions:
REMARK  status: ('A' for Active; 'I' for Inactive)
REMARK    1  A    between atoms: C_4  and  C_7
REMARK    2  A    between atoms: C_8  and  C_20
REMARK    3  A    between atoms: C_12  and  C_17
REMARK    4  A    between atoms: C_23  and  C_26
REMARK    5  A    between atoms: C_26  and  N_27
REMARK    6  A    between atoms: C_30  and  N_33
REMARK                            x       y       z     vdW  Elec       q    Type
REMARK                         _______ _______ _______ _____ _____    ______ ____
ROOT
ATOM      1  C   UNL     1       2.761  -2.410   1.594  0.00  0.00    +0.002 A 
ATOM      2  C   UNL     1       1.821  -1.528   2.126  0.00  0.00    +0.010 A 
ATOM      3  C   UNL     1       0.785  -2.011   2.900  0.00  0.00    +0.002 A 
ATOM      4  C   UNL     1       0.679  -3.368   3.148  0.00  0.00    -0.064 A 
ATOM      5  C   UNL     1       1.608  -4.248   2.623  0.00  0.00    +0.002 A 
ATOM      6  C   UNL     1       2.645  -3.778   1.844  0.00  0.00    +0.010 A 
ENDROOT
BRANCH   1   8
ATOM      7  C   UNL     1       3.618  -0.897  -0.273  0.00  0.00    +0.098 A 
ATOM      8  C   UNL     1       3.874  -1.898   0.762  0.00  0.00    +0.098 A 
ATOM      9  N   UNL     1       5.103  -2.342   0.952  0.00  0.00    -0.243 NA
ATOM     10  C   UNL     1       6.106  -1.875   0.199  0.00  0.00    +0.091 A 
ATOM     11  C   UNL     1       7.415  -2.345   0.397  0.00  0.00    +0.045 A 
ATOM     12  C   UNL     1       8.445  -1.853  -0.391  0.00  0.00    +0.065 A 
ATOM     13  C   UNL     1       8.185  -0.890  -1.384  0.00  0.00    +0.017 A 
ATOM     14  C   UNL     1       6.926  -0.427  -1.589  0.00  0.00    +0.031 A 
ATOM     15  C   UNL     1       5.858  -0.905  -0.806  0.00  0.00    +0.090 A 
ATOM     16  N   UNL     1       4.617  -0.450  -1.012  0.00  0.00    -0.243 NA
BRANCH   7  20
ATOM     17  C   UNL     1      -0.325   0.552  -0.913  0.00  0.00    +0.000 A 
ATOM     18  C   UNL     1       0.736   1.439  -0.870  0.00  0.00    +0.001 A 
ATOM     19  C   UNL     1       2.019   0.974  -0.662  0.00  0.00    +0.010 A 
ATOM     20  C   UNL     1       2.244  -0.392  -0.496  0.00  0.00    +0.002 A 
ATOM     21  C   UNL     1       1.170  -1.281  -0.540  0.00  0.00    +0.010 A 
ATOM     22  C   UNL     1      -0.108  -0.804  -0.749  0.00  0.00    +0.001 A 
ENDBRANCH   7  20
BRANCH  12  23
ATOM     23  C   UNL     1       9.821  -2.343  -0.187  0.00  0.00    +0.387 C 
ATOM     24  O   UNL     1      10.051  -3.179   0.674  0.00  0.00    -0.241 OA
ATOM     25  O   UNL     1      10.732  -1.912  -0.880  0.00  0.00    -0.241 OA
ENDBRANCH  12  23
ENDBRANCH   1   8
BRANCH   4  26
ATOM     26  C   UNL     1      -0.454  -3.890   3.994  0.00  0.00    -0.043 C 
BRANCH  26  27
ATOM     27  N   UNL     1      -1.603  -4.205   3.134  0.00  0.00    +0.382 N 
ATOM     28  C   UNL     1      -2.104  -2.971   2.517  0.00  0.00    -0.076 C 
ATOM     29  C   UNL     1      -3.248  -3.305   1.558  0.00  0.00    +0.006 C 
ATOM     30  C   UNL     1      -4.379  -3.983   2.337  0.00  0.00    +0.089 C 
ATOM     31  C   UNL     1      -3.827  -5.229   3.037  0.00  0.00    +0.006 C 
ATOM     32  C   UNL     1      -2.661  -4.824   3.941  0.00  0.00    -0.076 C 
ATOM     33  H   UNL     1      -1.314  -4.847   2.411  0.00  0.00    -0.081 HD
BRANCH  30  34
ATOM     34  N   UNL     1      -5.446  -4.374   1.411  0.00  0.00    -0.289 N 
ATOM     35  C   UNL     1      -6.765  -3.930   1.455  0.00  0.00    +0.070 A 
ATOM     36  C   UNL     1      -7.451  -3.065   2.294  0.00  0.00    +0.028 A 
ATOM     37  C   UNL     1      -8.792  -2.817   2.078  0.00  0.00    +0.002 A 
ATOM     38  C   UNL     1      -9.455  -3.430   1.029  0.00  0.00    +0.002 A 
ATOM     39  C   UNL     1      -8.781  -4.294   0.189  0.00  0.00    +0.028 A 
ATOM     40  C   UNL     1      -7.434  -4.548   0.397  0.00  0.00    +0.067 A 
ATOM     41  N   UNL     1      -6.500  -5.348  -0.258  0.00  0.00    -0.306 N 
ATOM     42  H   UNL     1      -6.672  -5.901  -1.036  0.00  0.00    +0.170 HD
ATOM     43  C   UNL     1      -5.316  -5.217   0.370  0.00  0.00    +0.328 A 
ATOM     44  O   UNL     1      -4.286  -5.780   0.048  0.00  0.00    -0.247 OA
ENDBRANCH  30  34
ENDBRANCH  26  27
ENDBRANCH   4  26
TORSDOF 6
