REMARK  Name = CHEMBL203275
REMARK  9 active torsions:
REMARK  status: ('A' for Active; 'I' for Inactive)
REMARK    1  A    between atoms: C_7  and  C_11
REMARK    2  A    between atoms: C_11  and  C_12
REMARK    3  A    between atoms: C_12  and  C_14
REMARK    4  A    between atoms: C_12  and  N_34
REMARK    5  A    between atoms: C_14  and  O_15
REMARK    6  A    between atoms: O_15  and  C_16
REMARK    7  A    between atoms: C_18  and  C_22
REMARK    8  A    between atoms: C_23  and  C_24
REMARK    9  A    between atoms: N_30  and  C_31
REMARK                            x       y       z     vdW  Elec       q    Type
REMARK                         _______ _______ _______ _____ _____    ______ ____
ROOT
ATOM      1  C   UNL     1      -1.223  -6.631  -3.054  0.00  0.00    +0.139 A 
ATOM      2  C   UNL     1      -1.630  -6.998  -4.329  0.00  0.00    +0.056 A 
ATOM      3  C   UNL     1      -2.445  -8.129  -4.464  0.00  0.00    -0.003 A 
ATOM      4  C   UNL     1      -2.814  -8.836  -3.317  0.00  0.00    +0.118 A 
ATOM      5  N   UNL     1      -2.403  -8.449  -2.128  0.00  0.00    -0.259 NA
ATOM      6  C   UNL     1      -1.629  -7.393  -1.967  0.00  0.00    +0.156 A 
ENDROOT
BRANCH   3   7
ATOM      7  C   UNL     1      -2.907  -8.564  -5.795  0.00  0.00    +0.010 C 
ATOM      8  C   UNL     1      -3.689  -9.650  -5.911  0.00  0.00    +0.009 C 
BRANCH   8   9
ATOM      9  C   UNL     1      -4.151 -10.085  -7.241  0.00  0.00    -0.020 A 
ATOM     10  C   UNL     1      -3.781  -9.383  -8.399  0.00  0.00    +0.025 A 
ATOM     11  C   UNL     1      -4.233  -9.823  -9.623  0.00  0.00    +0.084 A 
ATOM     12  N   UNL     1      -5.006 -10.889  -9.720  0.00  0.00    -0.350 N 
ATOM     13  C   UNL     1      -5.381 -11.584  -8.656  0.00  0.00    +0.097 A 
ATOM     14  C   UNL     1      -4.966 -11.213  -7.384  0.00  0.00    +0.049 A 
ATOM     15  N   UNL     1      -6.196 -12.699  -8.816  0.00  0.00    -0.328 N 
ATOM     16  H   UNL     1      -6.521 -12.940  -9.697  0.00  0.00    +0.148 HD
ATOM     17  H   UNL     1      -5.308 -11.172 -10.597  0.00  0.00    +0.166 HD
BRANCH  15  18
ATOM     18  C   UNL     1      -6.563 -13.510  -7.652  0.00  0.00    +0.072 C 
ATOM     19  C   UNL     1      -6.346 -15.022  -7.748  0.00  0.00    +0.024 C 
ATOM     20  C   UNL     1      -7.764 -14.448  -7.796  0.00  0.00    +0.024 C 
ENDBRANCH  15  18
ENDBRANCH   8   9
ENDBRANCH   3   7
BRANCH   1  21
ATOM     21  O   UNL     1      -0.431  -5.541  -2.872  0.00  0.00    -0.492 OA
BRANCH  21  22
ATOM     22  C   UNL     1      -0.050  -5.232  -1.530  0.00  0.00    +0.213 C 
BRANCH  22  23
ATOM     23  C   UNL     1       0.833  -3.983  -1.525  0.00  0.00    -0.033 C 
BRANCH  23  24
ATOM     24  N   UNL     1       0.050  -2.828  -1.982  0.00  0.00    +0.382 N 
ATOM     25  H   UNL     1      -0.735  -2.687  -1.363  0.00  0.00    -0.089 HD
ATOM     26  H   UNL     1       0.632  -2.004  -1.978  0.00  0.00    -0.089 HD
ATOM     27  H   UNL     1      -0.286  -2.998  -2.918  0.00  0.00    -0.089 HD
ENDBRANCH  23  24
BRANCH  23  28
ATOM     28  C   UNL     1       1.342  -3.724  -0.105  0.00  0.00    +0.024 C 
BRANCH  28  35
ATOM     29  C   UNL     1       0.785   0.925   0.096  0.00  0.00    +0.001 A 
ATOM     30  C   UNL     1       1.988   1.617   0.050  0.00  0.00    +0.002 A 
ATOM     31  C   UNL     1       3.184   0.940  -0.046  0.00  0.00    +0.026 A 
ATOM     32  C   UNL     1       3.189  -0.450  -0.097  0.00  0.00    +0.047 A 
ATOM     33  C   UNL     1       1.968  -1.146  -0.049  0.00  0.00    +0.003 A 
ATOM     34  C   UNL     1       0.767  -0.440   0.048  0.00  0.00    +0.010 A 
ATOM     35  C   UNL     1       2.309  -2.569  -0.121  0.00  0.00    -0.024 A 
ATOM     36  C   UNL     1       3.647  -2.647  -0.204  0.00  0.00    +0.087 A 
ATOM     37  N   UNL     1       4.190  -1.391  -0.191  0.00  0.00    -0.360 N 
ATOM     38  H   UNL     1       5.138  -1.194  -0.240  0.00  0.00    +0.165 HD
ENDBRANCH  28  35
ENDBRANCH  23  28
ENDBRANCH  22  23
ENDBRANCH  21  22
ENDBRANCH   1  21
TORSDOF 9
