REMARK  Name = CHEMBL180058
REMARK  7 active torsions:
REMARK  status: ('A' for Active; 'I' for Inactive)
REMARK    1  A    between atoms: C_1  and  N_2
REMARK    2  A    between atoms: C_4  and  C_7
REMARK    3  A    between atoms: C_14  and  C_23
REMARK    4  A    between atoms: C_15  and  C_17
REMARK    5  A    between atoms: C_26  and  C_29
REMARK    6  A    between atoms: C_29  and  N_30
REMARK    7  A    between atoms: C_33  and  N_36
REMARK                            x       y       z     vdW  Elec       q    Type
REMARK                         _______ _______ _______ _____ _____    ______ ____
ROOT
ATOM      1  C   UNL     1      -0.606  -9.152  -1.497  0.00  0.00    +0.002 A 
ATOM      2  C   UNL     1      -1.389 -10.051  -2.220  0.00  0.00    +0.010 A 
ATOM      3  C   UNL     1      -1.709 -11.277  -1.675  0.00  0.00    +0.002 A 
ATOM      4  C   UNL     1      -1.255 -11.616  -0.413  0.00  0.00    -0.064 A 
ATOM      5  C   UNL     1      -0.477 -10.729   0.310  0.00  0.00    +0.002 A 
ATOM      6  C   UNL     1      -0.145  -9.502  -0.227  0.00  0.00    +0.010 A 
ENDROOT
BRANCH   1  14
ATOM      7  C   UNL     1       0.193  -3.167  -1.656  0.00  0.00    +0.025 A 
ATOM      8  C   UNL     1       0.623  -3.094  -2.991  0.00  0.00    +0.014 A 
ATOM      9  C   UNL     1       0.723  -4.213  -3.753  0.00  0.00    +0.030 A 
ATOM     10  C   UNL     1       0.394  -5.468  -3.209  0.00  0.00    +0.090 A 
ATOM     11  C   UNL     1      -0.041  -5.555  -1.861  0.00  0.00    +0.091 A 
ATOM     12  C   UNL     1      -0.132  -4.385  -1.089  0.00  0.00    +0.041 A 
ATOM     13  N   UNL     1      -0.355  -6.745  -1.336  0.00  0.00    -0.243 NA
ATOM     14  C   UNL     1      -0.258  -7.834  -2.076  0.00  0.00    +0.098 A 
ATOM     15  C   UNL     1       0.176  -7.748  -3.422  0.00  0.00    +0.098 A 
ATOM     16  N   UNL     1       0.488  -6.578  -3.949  0.00  0.00    -0.243 NA
BRANCH   7  20
ATOM     17  C   UNL     1       0.340   1.546  -0.276  0.00  0.00    +0.199 C 
ATOM     18  N   UNL     1       0.155   0.092  -0.253  0.00  0.00    -0.166 N 
ATOM     19  N   UNL     1       0.366  -0.702  -1.245  0.00  0.00    -0.131 NA
ATOM     20  C   UNL     1       0.093  -1.928  -0.846  0.00  0.00    +0.205 A 
ATOM     21  N   UNL     1      -0.294  -1.838   0.434  0.00  0.00    -0.108 NA
ATOM     22  N   UNL     1      -0.239  -0.592   0.764  0.00  0.00    -0.046 NA
ENDBRANCH   7  20
BRANCH  15  23
ATOM     23  C   UNL     1       0.281  -8.977  -4.242  0.00  0.00    +0.002 A 
ATOM     24  C   UNL     1      -0.212  -8.992  -5.547  0.00  0.00    +0.010 A 
ATOM     25  C   UNL     1      -0.111 -10.140  -6.306  0.00  0.00    +0.001 A 
ATOM     26  C   UNL     1       0.478 -11.274  -5.776  0.00  0.00    +0.000 A 
ATOM     27  C   UNL     1       0.969 -11.265  -4.482  0.00  0.00    +0.001 A 
ATOM     28  C   UNL     1       0.879 -10.122  -3.715  0.00  0.00    +0.010 A 
ENDBRANCH  15  23
ENDBRANCH   1  14
BRANCH   4  29
ATOM     29  C   UNL     1      -1.609 -12.957   0.177  0.00  0.00    -0.043 C 
BRANCH  29  30
ATOM     30  N   UNL     1      -0.581 -13.940  -0.190  0.00  0.00    +0.382 N 
ATOM     31  C   UNL     1      -0.588 -14.133  -1.645  0.00  0.00    -0.076 C 
ATOM     32  C   UNL     1       0.535 -15.095  -2.040  0.00  0.00    +0.006 C 
ATOM     33  C   UNL     1       0.315 -16.441  -1.344  0.00  0.00    +0.089 C 
ATOM     34  C   UNL     1       0.249 -16.218   0.169  0.00  0.00    +0.006 C 
ATOM     35  C   UNL     1      -0.863 -15.214   0.483  0.00  0.00    -0.076 C 
ATOM     36  H   UNL     1       0.325 -13.602   0.099  0.00  0.00    -0.081 HD
BRANCH  33  37
ATOM     37  N   UNL     1       1.426 -17.343  -1.659  0.00  0.00    -0.289 N 
ATOM     38  C   UNL     1       1.322 -18.571  -2.307  0.00  0.00    +0.070 A 
ATOM     39  C   UNL     1       0.252 -19.287  -2.822  0.00  0.00    +0.028 A 
ATOM     40  C   UNL     1       0.469 -20.510  -3.424  0.00  0.00    +0.002 A 
ATOM     41  C   UNL     1       1.751 -21.025  -3.515  0.00  0.00    +0.002 A 
ATOM     42  C   UNL     1       2.823 -20.320  -3.005  0.00  0.00    +0.028 A 
ATOM     43  C   UNL     1       2.615 -19.090  -2.399  0.00  0.00    +0.067 A 
ATOM     44  N   UNL     1       3.465 -18.161  -1.804  0.00  0.00    -0.306 N 
ATOM     45  C   UNL     1       2.724 -17.122  -1.375  0.00  0.00    +0.328 A 
ATOM     46  O   UNL     1       3.160 -16.135  -0.813  0.00  0.00    -0.247 OA
ATOM     47  H   UNL     1       4.427 -18.246  -1.717  0.00  0.00    +0.170 HD
ENDBRANCH  33  37
ENDBRANCH  29  30
ENDBRANCH   4  29
TORSDOF 6
