REMARK  Name = CHEMBL574268
REMARK  7 active torsions:
REMARK  status: ('A' for Active; 'I' for Inactive)
REMARK    1  A    between atoms: C_7  and  C_11
REMARK    2  A    between atoms: C_11  and  C_12
REMARK    3  A    between atoms: C_12  and  C_14
REMARK    4  A    between atoms: C_12  and  N_33
REMARK    5  A    between atoms: C_14  and  O_15
REMARK    6  A    between atoms: O_15  and  C_16
REMARK    7  A    between atoms: C_18  and  C_22
REMARK                            x       y       z     vdW  Elec       q    Type
REMARK                         _______ _______ _______ _____ _____    ______ ____
ROOT
ATOM      1  O   UNL     1      -0.919  -5.219  -2.816  0.00  0.00    -0.492 OA
ENDROOT
BRANCH   1   2
ATOM      2  C   UNL     1      -1.673  -6.334  -3.003  0.00  0.00    +0.139 A 
ATOM      3  C   UNL     1      -2.006  -6.750  -4.286  0.00  0.00    +0.057 A 
ATOM      4  C   UNL     1      -2.783  -7.902  -4.426  0.00  0.00    +0.004 A 
ATOM      5  C   UNL     1      -3.191  -8.586  -3.282  0.00  0.00    +0.119 A 
ATOM      6  N   UNL     1      -2.852  -8.155  -2.085  0.00  0.00    -0.259 NA
ATOM      7  C   UNL     1      -2.115  -7.074  -1.915  0.00  0.00    +0.156 A 
BRANCH   4   8
ATOM      8  C   UNL     1      -3.168  -8.392  -5.773  0.00  0.00    -0.016 A 
ATOM      9  C   UNL     1      -2.750  -7.704  -6.914  0.00  0.00    +0.010 A 
ATOM     10  C   UNL     1      -3.103  -8.149  -8.171  0.00  0.00    +0.024 A 
ATOM     11  C   UNL     1      -3.880  -9.292  -8.319  0.00  0.00    +0.045 A 
ATOM     12  C   UNL     1      -4.302  -9.988  -7.172  0.00  0.00    +0.049 A 
ATOM     13  C   UNL     1      -3.942  -9.540  -5.904  0.00  0.00    +0.022 A 
ATOM     14  C   UNL     1      -5.097 -11.137  -7.645  0.00  0.00    +0.249 C 
ATOM     15  O   UNL     1      -5.643 -11.986  -6.973  0.00  0.00    -0.282 OA
ATOM     16  C   UNL     1      -5.082 -11.023  -9.141  0.00  0.00    +0.289 C 
ATOM     17  O   UNL     1      -5.623 -11.777  -9.922  0.00  0.00    -0.266 OA
ATOM     18  N   UNL     1      -4.361  -9.934  -9.457  0.00  0.00    -0.278 N 
ATOM     19  H   UNL     1      -4.195  -9.634 -10.364  0.00  0.00    +0.155 HD
ENDBRANCH   4   8
ENDBRANCH   1   2
BRANCH   1  20
ATOM     20  C   UNL     1      -0.614  -4.861  -1.466  0.00  0.00    +0.213 C 
BRANCH  20  21
ATOM     21  C   UNL     1       0.236  -3.589  -1.455  0.00  0.00    -0.033 C 
BRANCH  21  22
ATOM     22  N   UNL     1      -0.552  -2.469  -1.986  0.00  0.00    +0.382 N 
ATOM     23  H   UNL     1      -1.370  -2.331  -1.412  0.00  0.00    -0.089 HD
ATOM     24  H   UNL     1       0.009  -1.630  -1.979  0.00  0.00    -0.089 HD
ATOM     25  H   UNL     1      -0.836  -2.676  -2.932  0.00  0.00    -0.089 HD
ENDBRANCH  21  22
BRANCH  21  26
ATOM     26  C   UNL     1       0.666  -3.275  -0.021  0.00  0.00    +0.024 C 
BRANCH  26  33
ATOM     27  C   UNL     1      -0.017   1.362   0.009  0.00  0.00    +0.001 A 
ATOM     28  C   UNL     1       1.170   2.083   0.002  0.00  0.00    +0.002 A 
ATOM     29  C   UNL     1       2.386   1.436  -0.013  0.00  0.00    +0.026 A 
ATOM     30  C   UNL     1       2.428   0.046  -0.021  0.00  0.00    +0.047 A 
ATOM     31  C   UNL     1       1.223  -0.681  -0.013  0.00  0.00    +0.003 A 
ATOM     32  C   UNL     1       0.002  -0.004   0.002  0.00  0.00    +0.010 A 
ATOM     33  C   UNL     1       1.604  -2.095  -0.025  0.00  0.00    -0.024 A 
ATOM     34  C   UNL     1       2.945  -2.141  -0.038  0.00  0.00    +0.087 A 
ATOM     35  N   UNL     1       3.455  -0.871  -0.036  0.00  0.00    -0.360 N 
ATOM     36  H   UNL     1       4.399  -0.650  -0.044  0.00  0.00    +0.165 HD
ENDBRANCH  26  33
ENDBRANCH  21  26
ENDBRANCH  20  21
ENDBRANCH   1  20
TORSDOF 7
