REMARK  Name = CHEMBL251860
REMARK  11 active torsions:
REMARK  status: ('A' for Active; 'I' for Inactive)
REMARK    1  A    between atoms: C_1  and  N_2
REMARK    2  A    between atoms: N_5  and  C_8
REMARK    3  A    between atoms: C_8  and  C_9
REMARK    4  A    between atoms: C_9  and  C_10
REMARK    5  A    between atoms: C_10  and  N_11
REMARK    6  A    between atoms: N_11  and  C_12
REMARK    7  A    between atoms: C_12  and  C_13
REMARK    8  A    between atoms: C_16  and  C_19
REMARK    9  A    between atoms: C_20  and  C_31
REMARK   10  A    between atoms: C_25  and  S_29
REMARK   11  A    between atoms: S_29  and  C_30
REMARK                            x       y       z     vdW  Elec       q    Type
REMARK                         _______ _______ _______ _____ _____    ______ ____
ROOT
ATOM      1  C   UNL     1       1.299  -8.641   4.716  0.00  0.00    -0.064 A 
ATOM      2  C   UNL     1       2.666  -8.824   4.821  0.00  0.00    +0.002 A 
ATOM      3  C   UNL     1       3.211  -9.310   5.992  0.00  0.00    +0.010 A 
ATOM      4  C   UNL     1       2.381  -9.617   7.070  0.00  0.00    +0.001 A 
ATOM      5  C   UNL     1       1.004  -9.430   6.957  0.00  0.00    +0.010 A 
ATOM      6  C   UNL     1       0.471  -8.938   5.783  0.00  0.00    +0.002 A 
ENDROOT
BRANCH   4   7
ATOM      7  C   UNL     1       2.960 -10.139   8.329  0.00  0.00    +0.081 A 
ATOM      8  C   UNL     1       2.374  -9.778   9.562  0.00  0.00    +0.009 A 
ATOM      9  C   UNL     1       2.914 -10.266  10.743  0.00  0.00    +0.023 A 
ATOM     10  C   UNL     1       4.033 -11.108  10.656  0.00  0.00    +0.038 A 
ATOM     11  C   UNL     1       4.645 -11.650  11.801  0.00  0.00    +0.125 A 
ATOM     12  N   UNL     1       5.692 -12.432  11.642  0.00  0.00    -0.230 NA
ATOM     13  C   UNL     1       6.172 -12.714  10.431  0.00  0.00    +0.190 A 
ATOM     14  N   UNL     1       5.638 -12.235   9.324  0.00  0.00    -0.202 NA
ATOM     15  C   UNL     1       4.570 -11.429   9.380  0.00  0.00    +0.165 A 
ATOM     16  N   UNL     1       4.010 -10.937   8.275  0.00  0.00    -0.227 NA
BRANCH   8  17
ATOM     17  C   UNL     1       1.192  -8.884   9.594  0.00  0.00    -0.016 A 
ATOM     18  C   UNL     1       1.200  -7.686   8.880  0.00  0.00    +0.008 A 
ATOM     19  C   UNL     1       0.097  -6.858   8.914  0.00  0.00    +0.001 A 
ATOM     20  C   UNL     1      -1.016  -7.214   9.653  0.00  0.00    +0.000 A 
ATOM     21  C   UNL     1      -1.031  -8.401  10.364  0.00  0.00    +0.001 A 
ATOM     22  C   UNL     1       0.065  -9.240  10.333  0.00  0.00    +0.008 A 
ENDBRANCH   8  17
BRANCH  13  23
ATOM     23  S   UNL     1       7.576 -13.770  10.304  0.00  0.00    -0.089 S 
ATOM     24  C   UNL     1       7.971 -14.186  12.025  0.00  0.00    +0.093 C 
ENDBRANCH  13  23
ENDBRANCH   4   7
BRANCH   1  25
ATOM     25  C   UNL     1       0.710  -8.109   3.434  0.00  0.00    -0.047 C 
BRANCH  25  26
ATOM     26  N   UNL     1       0.661  -6.642   3.490  0.00  0.00    +0.382 N 
ATOM     27  H   UNL     1       1.595  -6.279   3.607  0.00  0.00    -0.085 HD
ATOM     28  H   UNL     1       0.088  -6.353   4.269  0.00  0.00    -0.085 HD
BRANCH  26  29
ATOM     29  C   UNL     1       0.087  -6.124   2.241  0.00  0.00    -0.084 C 
BRANCH  29  30
ATOM     30  C   UNL     1       0.036  -4.596   2.298  0.00  0.00    -0.038 C 
BRANCH  30  31
ATOM     31  C   UNL     1      -0.562  -4.056   0.998  0.00  0.00    -0.081 C 
BRANCH  31  36
ATOM     32  C   UNL     1      -0.018   1.465   0.010  0.00  0.00    +0.104 C 
ATOM     33  N   UNL     1       0.002  -0.004   0.002  0.00  0.00    -0.309 NA
ATOM     34  C   UNL     1      -1.361  -0.549  -0.076  0.00  0.00    +0.065 C 
ATOM     35  C   UNL     1      -1.293  -2.076  -0.143  0.00  0.00    -0.063 C 
ATOM     36  N   UNL     1      -0.611  -2.589   1.053  0.00  0.00    +0.381 N 
ATOM     37  C   UNL     1       0.757  -2.055   1.104  0.00  0.00    -0.063 C 
ATOM     38  C   UNL     1       0.707  -0.528   1.181  0.00  0.00    +0.065 C 
ATOM     39  H   UNL     1      -1.115  -2.300   1.878  0.00  0.00    -0.082 HD
ENDBRANCH  31  36
ENDBRANCH  30  31
ENDBRANCH  29  30
ENDBRANCH  26  29
ENDBRANCH  25  26
ENDBRANCH   1  25
TORSDOF 9
