REMARK  Name = CHEMBL251860
REMARK  11 active torsions:
REMARK  status: ('A' for Active; 'I' for Inactive)
REMARK    1  A    between atoms: C_1  and  N_2
REMARK    2  A    between atoms: N_5  and  C_8
REMARK    3  A    between atoms: C_8  and  C_9
REMARK    4  A    between atoms: C_9  and  C_10
REMARK    5  A    between atoms: C_10  and  N_11
REMARK    6  A    between atoms: N_11  and  C_12
REMARK    7  A    between atoms: C_12  and  C_13
REMARK    8  A    between atoms: C_16  and  C_19
REMARK    9  A    between atoms: C_20  and  C_31
REMARK   10  A    between atoms: C_25  and  S_29
REMARK   11  A    between atoms: S_29  and  C_30
REMARK                            x       y       z     vdW  Elec       q    Type
REMARK                         _______ _______ _______ _____ _____    ______ ____
ROOT
ATOM      1  C   UNL     1       1.318  -8.603   4.765  0.00  0.00    -0.034 A 
ATOM      2  C   UNL     1       2.687  -8.769   4.876  0.00  0.00    +0.005 A 
ATOM      3  C   UNL     1       3.236  -9.220   6.059  0.00  0.00    +0.010 A 
ATOM      4  C   UNL     1       2.408  -9.510   7.143  0.00  0.00    +0.001 A 
ATOM      5  C   UNL     1       1.029  -9.341   7.025  0.00  0.00    +0.010 A 
ATOM      6  C   UNL     1       0.492  -8.883   5.838  0.00  0.00    +0.005 A 
ENDROOT
BRANCH   4   7
ATOM      7  C   UNL     1       2.991  -9.995   8.415  0.00  0.00    +0.081 A 
ATOM      8  C   UNL     1       2.399  -9.610   9.639  0.00  0.00    +0.009 A 
ATOM      9  C   UNL     1       2.943 -10.064  10.831  0.00  0.00    +0.023 A 
ATOM     10  C   UNL     1       4.071 -10.895  10.766  0.00  0.00    +0.038 A 
ATOM     11  C   UNL     1       4.688 -11.402  11.925  0.00  0.00    +0.125 A 
ATOM     12  N   UNL     1       5.743 -12.178  11.787  0.00  0.00    -0.230 NA
ATOM     13  C   UNL     1       6.227 -12.484  10.584  0.00  0.00    +0.190 A 
ATOM     14  N   UNL     1       5.690 -12.037   9.464  0.00  0.00    -0.202 NA
ATOM     15  C   UNL     1       4.613 -11.242   9.500  0.00  0.00    +0.165 A 
ATOM     16  N   UNL     1       4.050 -10.783   8.382  0.00  0.00    -0.227 NA
BRANCH   8  17
ATOM     17  C   UNL     1       1.207  -8.728   9.648  0.00  0.00    -0.016 A 
ATOM     18  C   UNL     1       1.204  -7.548   8.905  0.00  0.00    +0.008 A 
ATOM     19  C   UNL     1       0.092  -6.732   8.916  0.00  0.00    +0.001 A 
ATOM     20  C   UNL     1      -1.018  -7.082   9.664  0.00  0.00    +0.000 A 
ATOM     21  C   UNL     1      -1.021  -8.251  10.403  0.00  0.00    +0.001 A 
ATOM     22  C   UNL     1       0.083  -9.078  10.394  0.00  0.00    +0.008 A 
ENDBRANCH   8  17
BRANCH  13  23
ATOM     23  S   UNL     1       7.643 -13.527  10.483  0.00  0.00    -0.089 S 
ATOM     24  C   UNL     1       8.040 -13.896  12.215  0.00  0.00    +0.093 C 
ENDBRANCH  13  23
ENDBRANCH   4   7
BRANCH   1  25
ATOM     25  C   UNL     1       0.725  -8.109   3.470  0.00  0.00    +0.116 C 
BRANCH  25  26
ATOM     26  N   UNL     1       0.661  -6.642   3.490  0.00  0.00    -0.312 NA
ATOM     27  H   UNL     1       1.571  -6.242   3.662  0.00  0.00    +0.122 HD
BRANCH  26  28
ATOM     28  C   UNL     1       0.087  -6.124   2.241  0.00  0.00    +0.079 C 
BRANCH  28  29
ATOM     29  C   UNL     1       0.036  -4.596   2.298  0.00  0.00    -0.003 C 
BRANCH  29  30
ATOM     30  C   UNL     1      -0.562  -4.056   0.998  0.00  0.00    -0.077 C 
BRANCH  30  35
ATOM     31  C   UNL     1      -0.018   1.465   0.010  0.00  0.00    +0.104 C 
ATOM     32  N   UNL     1       0.002  -0.004   0.002  0.00  0.00    -0.309 NA
ATOM     33  C   UNL     1      -1.361  -0.549  -0.076  0.00  0.00    +0.065 C 
ATOM     34  C   UNL     1      -1.293  -2.076  -0.143  0.00  0.00    -0.063 C 
ATOM     35  N   UNL     1      -0.611  -2.589   1.053  0.00  0.00    +0.381 N 
ATOM     36  C   UNL     1       0.757  -2.055   1.104  0.00  0.00    -0.063 C 
ATOM     37  C   UNL     1       0.707  -0.528   1.181  0.00  0.00    +0.065 C 
ATOM     38  H   UNL     1      -1.115  -2.300   1.878  0.00  0.00    -0.082 HD
ENDBRANCH  30  35
ENDBRANCH  29  30
ENDBRANCH  28  29
ENDBRANCH  26  28
ENDBRANCH  25  26
ENDBRANCH   1  25
TORSDOF 9
