REMARK  Name = CHEMBL209638
REMARK  7 active torsions:
REMARK  status: ('A' for Active; 'I' for Inactive)
REMARK    1  A    between atoms: C_10  and  C_11
REMARK    2  A    between atoms: C_13  and  O_17
REMARK    3  A    between atoms: O_17  and  C_18
REMARK    4  A    between atoms: C_18  and  C_19
REMARK    5  A    between atoms: C_19  and  C_21
REMARK    6  A    between atoms: C_19  and  N_28
REMARK    7  A    between atoms: C_21  and  C_22
REMARK                            x       y       z     vdW  Elec       q    Type
REMARK                         _______ _______ _______ _____ _____    ______ ____
ROOT
ATOM      1  C   UNL     1      -1.276  -0.757   0.011  0.00  0.00    +0.004 A 
ATOM      2  C   UNL     1      -2.498  -0.079   0.021  0.00  0.00    +0.057 A 
ATOM      3  C   UNL     1      -3.667  -0.830   0.029  0.00  0.00    +0.139 A 
ATOM      4  C   UNL     1      -3.580  -2.216   0.026  0.00  0.00    +0.156 A 
ATOM      5  N   UNL     1      -2.410  -2.822   0.017  0.00  0.00    -0.259 NA
ATOM      6  C   UNL     1      -1.277  -2.150   0.003  0.00  0.00    +0.119 A 
ENDROOT
BRANCH   1  16
ATOM      7  C   UNL     1      -0.017   1.400   0.010  0.00  0.00    +0.009 A 
ATOM      8  C   UNL     1       1.139   2.115   0.003  0.00  0.00    +0.010 A 
ATOM      9  C   UNL     1       2.374   1.446  -0.013  0.00  0.00    +0.000 A 
ATOM     10  C   UNL     1       3.593   2.143  -0.020  0.00  0.00    +0.119 A 
ATOM     11  N   UNL     1       4.726   1.479  -0.034  0.00  0.00    -0.263 NA
ATOM     12  C   UNL     1       4.783   0.155  -0.042  0.00  0.00    +0.111 A 
ATOM     13  C   UNL     1       3.658  -0.613  -0.036  0.00  0.00    +0.028 A 
ATOM     14  C   UNL     1       2.404   0.027  -0.021  0.00  0.00    -0.014 A 
ATOM     15  C   UNL     1       1.202  -0.692  -0.013  0.00  0.00    +0.017 A 
ATOM     16  C   UNL     1       0.002  -0.004   0.002  0.00  0.00    -0.016 A 
ENDBRANCH   1  16
BRANCH   3  17
ATOM     17  O   UNL     1      -4.879  -0.216   0.039  0.00  0.00    -0.492 OA
BRANCH  17  18
ATOM     18  C   UNL     1      -6.033  -1.059   0.047  0.00  0.00    +0.213 C 
BRANCH  18  19
ATOM     19  C   UNL     1      -7.295  -0.195   0.058  0.00  0.00    -0.037 C 
BRANCH  19  20
ATOM     20  N   UNL     1      -7.379   0.567  -1.196  0.00  0.00    +0.382 N 
ATOM     21  H   UNL     1      -8.211   1.137  -1.188  0.00  0.00    -0.090 HD
ATOM     22  H   UNL     1      -6.567   1.159  -1.284  0.00  0.00    -0.090 HD
ATOM     23  H   UNL     1      -7.415  -0.072  -1.976  0.00  0.00    -0.090 HD
ENDBRANCH  19  20
BRANCH  19  24
ATOM     24  C   UNL     1      -8.527  -1.093   0.192  0.00  0.00    -0.010 C 
BRANCH  24  25
ATOM     25  C   UNL     1      -9.779  -0.224   0.328  0.00  0.00    -0.012 C 
ATOM     26  C   UNL     1      -9.711   0.567   1.636  0.00  0.00    +0.003 C 
ATOM     27  C   UNL     1     -10.963   1.436   1.772  0.00  0.00    +0.000 C 
ATOM     28  C   UNL     1     -12.205   0.542   1.781  0.00  0.00    +0.000 C 
ATOM     29  C   UNL     1     -12.273  -0.249   0.473  0.00  0.00    +0.000 C 
ATOM     30  C   UNL     1     -11.021  -1.117   0.337  0.00  0.00    +0.003 C 
ENDBRANCH  24  25
ENDBRANCH  19  24
ENDBRANCH  18  19
ENDBRANCH  17  18
ENDBRANCH   3  17
TORSDOF 7
