REMARK  Name = CHEMBL596073
REMARK  9 active torsions:
REMARK  status: ('A' for Active; 'I' for Inactive)
REMARK    1  A    between atoms: C_1  and  C_2
REMARK    2  A    between atoms: C_7  and  C_9
REMARK    3  A    between atoms: C_11  and  O_20
REMARK    4  A    between atoms: C_14  and  C_15
REMARK    5  A    between atoms: O_20  and  C_21
REMARK    6  A    between atoms: C_21  and  C_22
REMARK    7  A    between atoms: C_22  and  C_24
REMARK    8  A    between atoms: C_22  and  N_35
REMARK    9  A    between atoms: C_24  and  C_25
REMARK                            x       y       z     vdW  Elec       q    Type
REMARK                         _______ _______ _______ _____ _____    ______ ____
ROOT
ATOM      1  C   UNL     1      -0.030  -0.905  -4.759  0.00  0.00    +0.030 A 
ATOM      2  C   UNL     1      -0.205  -1.849  -5.771  0.00  0.00    +0.059 A 
ATOM      3  C   UNL     1      -0.570  -1.402  -7.035  0.00  0.00    +0.139 A 
ATOM      4  C   UNL     1      -0.747  -0.042  -7.252  0.00  0.00    +0.157 A 
ATOM      5  N   UNL     1      -0.576   0.830  -6.279  0.00  0.00    -0.251 NA
ATOM      6  C   UNL     1      -0.233   0.453  -5.055  0.00  0.00    +0.083 A 
ENDROOT
BRANCH   1  13
ATOM      7  C   UNL     1       3.722   0.514  -0.979  0.00  0.00    +0.070 C 
ATOM      8  C   UNL     1       2.751  -0.599  -0.681  0.00  0.00    +0.086 A 
ATOM      9  C   UNL     1       1.739  -1.067  -1.555  0.00  0.00    +0.112 A 
ATOM     10  C   UNL     1       1.071  -2.107  -0.879  0.00  0.00    +0.084 A 
ATOM     11  C   UNL     1       0.012  -2.763  -1.509  0.00  0.00    +0.031 A 
ATOM     12  C   UNL     1      -0.343  -2.368  -2.770  0.00  0.00    +0.030 A 
ATOM     13  C   UNL     1       0.358  -1.328  -3.392  0.00  0.00    +0.074 A 
ATOM     14  N   UNL     1       1.359  -0.717  -2.783  0.00  0.00    -0.243 NA
ATOM     15  N   UNL     1       1.675  -2.236   0.344  0.00  0.00    -0.275 N 
ATOM     16  H   UNL     1       1.434  -2.873   1.034  0.00  0.00    +0.189 HD
ATOM     17  N   UNL     1       2.706  -1.292   0.420  0.00  0.00    -0.176 NA
ENDBRANCH   1  13
BRANCH   6  18
ATOM     18  C   UNL     1      -0.058   1.471  -3.993  0.00  0.00    +0.039 A 
ATOM     19  C   UNL     1       0.611   2.772  -4.115  0.00  0.00    +0.051 A 
ATOM     20  C   UNL     1       0.526   3.348  -2.905  0.00  0.00    +0.195 A 
ATOM     21  O   UNL     1      -0.127   2.522  -2.073  0.00  0.00    -0.470 OA
ATOM     22  C   UNL     1      -0.489   1.397  -2.706  0.00  0.00    +0.204 A 
ENDBRANCH   6  18
BRANCH   3  23
ATOM     23  O   UNL     1      -0.751  -2.287  -8.050  0.00  0.00    -0.492 OA
BRANCH  23  24
ATOM     24  C   UNL     1      -1.125  -1.750  -9.321  0.00  0.00    +0.213 C 
BRANCH  24  25
ATOM     25  C   UNL     1      -1.281  -2.890 -10.330  0.00  0.00    -0.033 C 
BRANCH  25  26
ATOM     26  N   UNL     1      -2.401  -3.751  -9.927  0.00  0.00    +0.382 N 
ATOM     27  H   UNL     1      -2.504  -4.502 -10.592  0.00  0.00    -0.089 HD
ATOM     28  H   UNL     1      -2.218  -4.135  -9.012  0.00  0.00    -0.089 HD
ATOM     29  H   UNL     1      -3.251  -3.207  -9.899  0.00  0.00    -0.089 HD
ENDBRANCH  25  26
BRANCH  25  30
ATOM     30  C   UNL     1      -1.559  -2.308 -11.717  0.00  0.00    +0.024 C 
BRANCH  30  31
ATOM     31  C   UNL     1      -1.591  -3.421 -12.732  0.00  0.00    -0.024 A 
ATOM     32  C   UNL     1      -0.568  -3.835 -13.496  0.00  0.00    +0.087 A 
ATOM     33  N   UNL     1      -0.972  -4.868 -14.297  0.00  0.00    -0.360 N 
ATOM     34  H   UNL     1      -0.408  -5.332 -14.936  0.00  0.00    +0.165 HD
ATOM     35  C   UNL     1      -2.299  -5.151 -14.063  0.00  0.00    +0.047 A 
ATOM     36  C   UNL     1      -2.743  -4.261 -13.067  0.00  0.00    +0.003 A 
ATOM     37  C   UNL     1      -4.064  -4.321 -12.619  0.00  0.00    +0.010 A 
ATOM     38  C   UNL     1      -4.919  -5.247 -13.148  0.00  0.00    +0.001 A 
ATOM     39  C   UNL     1      -4.484  -6.130 -14.127  0.00  0.00    +0.002 A 
ATOM     40  C   UNL     1      -3.188  -6.082 -14.590  0.00  0.00    +0.026 A 
ENDBRANCH  30  31
ENDBRANCH  25  30
ENDBRANCH  24  25
ENDBRANCH  23  24
ENDBRANCH   3  23
TORSDOF 8
