REMARK  Name = CHEMBL211018
REMARK  7 active torsions:
REMARK  status: ('A' for Active; 'I' for Inactive)
REMARK    1  A    between atoms: C_6  and  C_11
REMARK    2  A    between atoms: C_11  and  C_12
REMARK    3  A    between atoms: C_12  and  C_14
REMARK    4  A    between atoms: C_12  and  N_32
REMARK    5  A    between atoms: C_14  and  O_15
REMARK    6  A    between atoms: O_15  and  C_16
REMARK    7  A    between atoms: C_18  and  C_22
REMARK                            x       y       z     vdW  Elec       q    Type
REMARK                         _______ _______ _______ _____ _____    ______ ____
ROOT
ATOM      1  C   UNL     1       6.746  -3.796   1.361  0.00  0.00    +0.213 C 
ENDROOT
BRANCH   1   2
ATOM      2  C   UNL     1       5.470  -2.953   1.377  0.00  0.00    -0.033 C 
BRANCH   2   3
ATOM      3  N   UNL     1       5.739  -1.669   2.037  0.00  0.00    +0.382 N 
ATOM      4  H   UNL     1       4.897  -1.113   2.047  0.00  0.00    -0.089 HD
ATOM      5  H   UNL     1       6.043  -1.835   2.985  0.00  0.00    -0.089 HD
ATOM      6  H   UNL     1       6.461  -1.176   1.533  0.00  0.00    -0.089 HD
ENDBRANCH   2   3
BRANCH   2   7
ATOM      7  C   UNL     1       5.008  -2.700  -0.060  0.00  0.00    +0.022 C 
BRANCH   7  13
ATOM      8  C   UNL     1      -0.016   1.357   0.009  0.00  0.00    +0.001 A 
ATOM      9  C   UNL     1       1.169   2.091   0.002  0.00  0.00    +0.001 A 
ATOM     10  C   UNL     1       2.378   1.468  -0.013  0.00  0.00    +0.008 A 
ATOM     11  C   UNL     1       2.438   0.063  -0.021  0.00  0.00    -0.018 A 
ATOM     12  C   UNL     1       3.668  -0.615  -0.036  0.00  0.00    +0.012 A 
ATOM     13  C   UNL     1       3.687  -1.976  -0.043  0.00  0.00    -0.048 A 
ATOM     14  C   UNL     1       2.502  -2.710  -0.036  0.00  0.00    +0.004 A 
ATOM     15  C   UNL     1       1.292  -2.087  -0.021  0.00  0.00    +0.009 A 
ATOM     16  C   UNL     1       1.233  -0.683  -0.013  0.00  0.00    -0.018 A 
ATOM     17  C   UNL     1       0.002  -0.004   0.002  0.00  0.00    +0.008 A 
ENDBRANCH   7  13
ENDBRANCH   2   7
ENDBRANCH   1   2
BRANCH   1  18
ATOM     18  O   UNL     1       7.112  -4.130   2.702  0.00  0.00    -0.492 OA
BRANCH  18  19
ATOM     19  C   UNL     1       8.233  -4.882   2.866  0.00  0.00    +0.139 A 
ATOM     20  C   UNL     1       8.651  -5.252   4.138  0.00  0.00    +0.057 A 
ATOM     21  C   UNL     1       9.808  -6.025   4.255  0.00  0.00    +0.004 A 
ATOM     22  C   UNL     1      10.494  -6.393   3.099  0.00  0.00    +0.119 A 
ATOM     23  N   UNL     1      10.061  -6.019   1.912  0.00  0.00    -0.259 NA
ATOM     24  C   UNL     1       8.970  -5.294   1.765  0.00  0.00    +0.156 A 
BRANCH  21  25
ATOM     25  C   UNL     1      10.299  -6.448   5.590  0.00  0.00    -0.016 A 
ATOM     26  C   UNL     1       9.592  -6.072   6.743  0.00  0.00    +0.009 A 
ATOM     27  C   UNL     1      10.019  -6.446   7.978  0.00  0.00    +0.010 A 
ATOM     28  C   UNL     1      11.184  -7.219   8.110  0.00  0.00    +0.000 A 
ATOM     29  C   UNL     1      11.663  -7.628   9.365  0.00  0.00    +0.119 A 
ATOM     30  N   UNL     1      12.756  -8.351   9.444  0.00  0.00    -0.263 NA
ATOM     31  C   UNL     1      13.450  -8.725   8.378  0.00  0.00    +0.111 A 
ATOM     32  C   UNL     1      13.070  -8.380   7.117  0.00  0.00    +0.028 A 
ATOM     33  C   UNL     1      11.906  -7.605   6.950  0.00  0.00    -0.014 A 
ATOM     34  C   UNL     1      11.447  -7.214   5.686  0.00  0.00    +0.017 A 
ENDBRANCH  21  25
ENDBRANCH  18  19
ENDBRANCH   1  18
TORSDOF 7
