REMARK  Name = CHEMBL259833
REMARK  1 active torsions:
REMARK  status: ('A' for Active; 'I' for Inactive)
REMARK    1  A    between atoms: C_10  and  N_11
REMARK                            x       y       z     vdW  Elec       q    Type
REMARK                         _______ _______ _______ _____ _____    ______ ____
ROOT
ATOM      1  C   UNL     1       2.425  -0.570   3.281  0.00  0.00    +0.105 A 
ATOM      2  C   UNL     1       3.175   0.305   2.591  0.00  0.00    +0.071 A 
ATOM      3  C   UNL     1       3.016  -0.027   1.175  0.00  0.00    +0.077 A 
ATOM      4  C   UNL     1       2.141  -1.128   1.125  0.00  0.00    +0.145 A 
ATOM      5  N   UNL     1       1.801  -1.433   2.414  0.00  0.00    -0.344 N 
ATOM      6  H   UNL     1       1.207  -2.153   2.677  0.00  0.00    +0.167 HD
ATOM      7  N   UNL     1       1.825  -1.636  -0.065  0.00  0.00    -0.218 NA
ATOM      8  C   UNL     1       2.321  -1.120  -1.169  0.00  0.00    +0.225 A 
ATOM      9  N   UNL     1       3.144  -0.087  -1.167  0.00  0.00    -0.220 NA
ATOM     10  C   UNL     1       3.519   0.489  -0.029  0.00  0.00    +0.136 A 
ATOM     11 CL   UNL     1       4.145   1.584   3.252  0.00  0.00    -0.081 Cl
ENDROOT
BRANCH  10  12
ATOM     12  N   UNL     1       4.381   1.570  -0.031  0.00  0.00    -0.308 N 
ATOM     13  C   UNL     1       5.836   1.375   0.058  0.00  0.00    +0.113 C 
ATOM     14  C   UNL     1       6.492   1.869  -1.238  0.00  0.00    +0.074 C 
ATOM     15  C   UNL     1       5.899   3.207  -1.603  0.00  0.00    +0.039 A 
ATOM     16  C   UNL     1       4.734   3.684  -1.115  0.00  0.00    +0.054 A 
ATOM     17  N   UNL     1       4.532   4.907  -1.676  0.00  0.00    -0.348 N 
ATOM     18  H   UNL     1       3.776   5.495  -1.520  0.00  0.00    +0.166 HD
ATOM     19  C   UNL     1       5.584   5.145  -2.493  0.00  0.00    +0.171 A 
ATOM     20  N   UNL     1       6.396   4.122  -2.442  0.00  0.00    -0.349 N 
ATOM     21  C   UNL     1       3.866   2.948  -0.130  0.00  0.00    +0.161 C 
ATOM     22  H   UNL     1       7.228   4.040  -2.933  0.00  0.00    +0.166 HD
ENDBRANCH  10  12
TORSDOF 1
