REMARK  Name = CHEMBL211224
REMARK  8 active torsions:
REMARK  status: ('A' for Active; 'I' for Inactive)
REMARK    1  A    between atoms: C_7  and  C_11
REMARK    2  A    between atoms: C_11  and  C_12
REMARK    3  A    between atoms: C_12  and  C_14
REMARK    4  A    between atoms: C_12  and  N_31
REMARK    5  A    between atoms: C_14  and  O_15
REMARK    6  A    between atoms: O_15  and  C_16
REMARK    7  A    between atoms: C_18  and  C_22
REMARK    8  A    between atoms: N_31  and  C_32
REMARK                            x       y       z     vdW  Elec       q    Type
REMARK                         _______ _______ _______ _____ _____    ______ ____
ROOT
ATOM      1  C   UNL     1       0.236  -3.589  -1.455  0.00  0.00    +0.113 C 
ENDROOT
BRANCH   1   2
ATOM      2  N   UNL     1      -0.550  -2.472  -1.985  0.00  0.00    -0.332 N 
ATOM      3  H   UNL     1      -1.518  -2.494  -1.936  0.00  0.00    +0.147 HD
BRANCH   2   4
ATOM      4  C   UNL     1       0.093  -1.380  -2.558  0.00  0.00    +0.067 A 
ATOM      5  C   UNL     1      -0.461  -0.268  -3.088  0.00  0.00    +0.040 A 
ATOM      6  C   UNL     1       0.407   0.760  -3.638  0.00  0.00    +0.007 A 
ATOM      7  C   UNL     1       0.071   1.994  -4.239  0.00  0.00    +0.091 A 
ATOM      8  N   UNL     1       1.000   2.804  -4.684  0.00  0.00    -0.366 N 
ATOM      9  C   UNL     1       2.294   2.537  -4.609  0.00  0.00    +0.083 A 
ATOM     10  C   UNL     1       2.730   1.356  -4.040  0.00  0.00    +0.033 A 
ATOM     11  C   UNL     1       1.791   0.471  -3.555  0.00  0.00    +0.024 A 
ATOM     12  S   UNL     1       1.844  -1.112  -2.761  0.00  0.00    -0.074 S 
ATOM     13  H   UNL     1       0.725   3.641  -5.090  0.00  0.00    +0.165 HD
ENDBRANCH   2   4
ENDBRANCH   1   2
BRANCH   1  14
ATOM     14  C   UNL     1       0.666  -3.275  -0.021  0.00  0.00    +0.062 C 
BRANCH  14  21
ATOM     15  C   UNL     1      -0.017   1.362   0.009  0.00  0.00    +0.001 A 
ATOM     16  C   UNL     1       1.170   2.083   0.002  0.00  0.00    +0.002 A 
ATOM     17  C   UNL     1       2.386   1.436  -0.013  0.00  0.00    +0.026 A 
ATOM     18  C   UNL     1       2.428   0.046  -0.021  0.00  0.00    +0.047 A 
ATOM     19  C   UNL     1       1.223  -0.681  -0.013  0.00  0.00    +0.003 A 
ATOM     20  C   UNL     1       0.002  -0.004   0.002  0.00  0.00    +0.010 A 
ATOM     21  C   UNL     1       1.604  -2.095  -0.025  0.00  0.00    -0.021 A 
ATOM     22  C   UNL     1       2.945  -2.141  -0.038  0.00  0.00    +0.087 A 
ATOM     23  N   UNL     1       3.455  -0.871  -0.036  0.00  0.00    -0.360 N 
ATOM     24  H   UNL     1       4.399  -0.650  -0.044  0.00  0.00    +0.165 HD
ENDBRANCH  14  21
ENDBRANCH   1  14
BRANCH   1  25
ATOM     25  C   UNL     1      -0.614  -4.861  -1.466  0.00  0.00    +0.251 C 
BRANCH  25  26
ATOM     26  O   UNL     1      -1.711  -4.708  -0.563  0.00  0.00    -0.489 OA
BRANCH  26  27
ATOM     27  C   UNL     1      -2.570  -5.756  -0.452  0.00  0.00    +0.139 A 
ATOM     28  C   UNL     1      -3.663  -5.681   0.401  0.00  0.00    +0.057 A 
ATOM     29  C   UNL     1      -4.518  -6.786   0.479  0.00  0.00    +0.010 A 
ATOM     30  C   UNL     1      -4.240  -7.911  -0.297  0.00  0.00    +0.120 A 
ATOM     31  N   UNL     1      -3.191  -7.937  -1.092  0.00  0.00    -0.259 NA
ATOM     32  C   UNL     1      -2.368  -6.911  -1.195  0.00  0.00    +0.156 A 
BRANCH  29  33
ATOM     33  C   UNL     1      -5.697  -6.761   1.372  0.00  0.00    +0.022 A 
ATOM     34  C   UNL     1      -6.617  -7.735   1.573  0.00  0.00    +0.026 A 
ATOM     35  C   UNL     1      -7.703  -7.495   2.505  0.00  0.00    +0.008 A 
ATOM     36  C   UNL     1      -8.772  -8.342   2.879  0.00  0.00    +0.119 A 
ATOM     37  N   UNL     1      -9.670  -7.947   3.748  0.00  0.00    -0.263 NA
ATOM     38  C   UNL     1      -9.649  -6.757   4.326  0.00  0.00    +0.112 A 
ATOM     39  C   UNL     1      -8.655  -5.860   4.033  0.00  0.00    +0.035 A 
ATOM     40  C   UNL     1      -7.682  -6.222   3.125  0.00  0.00    +0.023 A 
ATOM     41  S   UNL     1      -6.242  -5.446   2.446  0.00  0.00    -0.088 S 
ENDBRANCH  29  33
ENDBRANCH  26  27
ENDBRANCH  25  26
ENDBRANCH   1  25
TORSDOF 8
