REMARK  Name = CHEMBL255592
REMARK  8 active torsions:
REMARK  status: ('A' for Active; 'I' for Inactive)
REMARK    1  A    between atoms: C_1  and  C_2
REMARK    2  A    between atoms: C_2  and  C_3
REMARK    3  A    between atoms: C_2  and  C_4
REMARK    4  A    between atoms: C_2  and  C_6
REMARK    5  A    between atoms: C_9  and  N_12
REMARK    6  A    between atoms: C_16  and  C_27
REMARK    7  A    between atoms: N_23  and  C_26
REMARK    8  A    between atoms: C_28  and  C_29
REMARK                            x       y       z     vdW  Elec       q    Type
REMARK                         _______ _______ _______ _____ _____    ______ ____
ROOT
ATOM      1  N   UNL     1       2.658  -1.834  -4.667  0.00  0.00    -0.260 N 
ATOM      2  C   UNL     1       2.944  -3.152  -4.970  0.00  0.00    +0.086 A 
ATOM      3  C   UNL     1       2.718  -4.388  -4.327  0.00  0.00    +0.028 A 
ATOM      4  C   UNL     1       2.068  -4.458  -3.090  0.00  0.00    +0.029 A 
ATOM      5  C   UNL     1       1.867  -5.695  -2.493  0.00  0.00    +0.026 A 
ATOM      6  C   UNL     1       2.315  -6.869  -3.127  0.00  0.00    +0.019 A 
ATOM      7  C   UNL     1       2.947  -6.815  -4.327  0.00  0.00    +0.029 A 
ATOM      8  C   UNL     1       3.165  -5.576  -4.957  0.00  0.00    +0.073 A 
ATOM      9  N   UNL     1       3.787  -5.513  -6.141  0.00  0.00    -0.253 NA
ATOM     10  C   UNL     1       4.004  -4.372  -6.753  0.00  0.00    +0.139 A 
ATOM     11  C   UNL     1       3.596  -3.159  -6.199  0.00  0.00    +0.089 A 
ATOM     12  N   UNL     1       3.689  -1.832  -6.610  0.00  0.00    -0.293 N 
ATOM     13  C   UNL     1       3.112  -1.058  -5.670  0.00  0.00    +0.334 A 
ATOM     14  O   UNL     1       3.017   0.154  -5.720  0.00  0.00    -0.246 OA
ATOM     15  C   UNL     1       4.304  -1.359  -7.853  0.00  0.00    +0.154 C 
ENDROOT
BRANCH   1  19
ATOM     16  C   UNL     1       0.709  -0.489  -1.238  0.00  0.00    -0.028 A 
ATOM     17  C   UNL     1       2.074  -0.709  -1.214  0.00  0.00    +0.007 A 
ATOM     18  C   UNL     1       2.723  -1.155  -2.349  0.00  0.00    +0.026 A 
ATOM     19  C   UNL     1       2.003  -1.382  -3.514  0.00  0.00    +0.052 A 
ATOM     20  C   UNL     1       0.632  -1.161  -3.535  0.00  0.00    +0.026 A 
ATOM     21  C   UNL     1      -0.011  -0.719  -2.395  0.00  0.00    +0.007 A 
BRANCH  16  23
ATOM     22  C   UNL     1       1.021   0.172   1.132  0.00  0.00    +0.032 C 
ATOM     23  C   UNL     1       0.004  -0.002   0.002  0.00  0.00    +0.077 C 
ATOM     24  C   UNL     1      -1.054  -1.025   0.422  0.00  0.00    +0.032 C 
BRANCH  23  25
ATOM     25  C   UNL     1      -0.645   1.289  -0.277  0.00  0.00    +0.073 C 
ATOM     26  N   UNL     1      -1.146   2.286  -0.492  0.00  0.00    -0.196 NA
ENDBRANCH  23  25
ENDBRANCH  16  23
ENDBRANCH   1  19
BRANCH   5  27
ATOM     27  C   UNL     1       1.203  -5.777  -1.228  0.00  0.00    -0.061 C 
ATOM     28  C   UNL     1       0.658  -5.845  -0.190  0.00  0.00    -0.060 C 
BRANCH  28  29
ATOM     29  C   UNL     1      -0.007  -5.927   1.076  0.00  0.00    +0.043 A 
ATOM     30  C   UNL     1      -0.464  -4.768   1.718  0.00  0.00    +0.020 A 
ATOM     31  C   UNL     1      -1.099  -4.902   2.939  0.00  0.00    +0.021 A 
ATOM     32  C   UNL     1      -1.262  -6.164   3.482  0.00  0.00    +0.111 A 
ATOM     33  N   UNL     1      -0.822  -7.238   2.856  0.00  0.00    -0.262 NA
ATOM     34  C   UNL     1      -0.216  -7.164   1.690  0.00  0.00    +0.127 A 
ENDBRANCH  28  29
ENDBRANCH   5  27
TORSDOF 5
