REMARK  Name = CHEMBL599849
REMARK  4 active torsions:
REMARK  status: ('A' for Active; 'I' for Inactive)
REMARK    1  A    between atoms: C_3  and  C_9
REMARK    2  A    between atoms: C_9  and  N_10
REMARK    3  A    between atoms: C_11  and  C_13
REMARK    4  A    between atoms: C_13  and  N_29
REMARK                            x       y       z     vdW  Elec       q    Type
REMARK                         _______ _______ _______ _____ _____    ______ ____
ROOT
ATOM      1  C   UNL     1       6.096   2.679   2.899  0.00  0.00    +0.096 C 
ATOM      2  C   UNL     1       5.599   3.849   3.751  0.00  0.00    +0.050 C 
ATOM      3  C   UNL     1       5.951   5.168   3.054  0.00  0.00    +0.109 C 
ATOM      4  N   UNL     1       7.395   5.188   2.783  0.00  0.00    -0.314 N 
ATOM      5  C   UNL     1       7.992   4.064   2.049  0.00  0.00    +0.109 C 
ATOM      6  C   UNL     1       7.617   2.759   2.757  0.00  0.00    +0.050 C 
ATOM      7  C   UNL     1       8.177   6.246   3.210  0.00  0.00    +0.134 A 
ATOM      8  C   UNL     1       8.298   7.410   2.436  0.00  0.00    +0.059 A 
ATOM      9  C   UNL     1       7.761   7.862   1.153  0.00  0.00    +0.032 A 
ATOM     10  C   UNL     1       8.249   9.095   0.940  0.00  0.00    +0.085 A 
ATOM     11  N   UNL     1       9.055   9.463   1.987  0.00  0.00    -0.346 N 
ATOM     12  H   UNL     1       9.520  10.310   2.059  0.00  0.00    +0.167 HD
ATOM     13  C   UNL     1       9.105   8.459   2.914  0.00  0.00    +0.143 A 
ATOM     14  N   UNL     1       9.723   8.303   4.085  0.00  0.00    -0.218 NA
ATOM     15  C   UNL     1       9.581   7.194   4.777  0.00  0.00    +0.225 A 
ATOM     16  N   UNL     1       8.829   6.188   4.368  0.00  0.00    -0.220 NA
ENDROOT
BRANCH   1  18
ATOM     17  N   UNL     1       5.390   1.638   0.769  0.00  0.00    -0.310 N 
ATOM     18  C   UNL     1       5.460   2.745   1.534  0.00  0.00    +0.233 C 
ATOM     19  O   UNL     1       5.011   3.795   1.125  0.00  0.00    -0.274 OA
ATOM     20  H   UNL     1       5.749   0.799   1.096  0.00  0.00    +0.149 HD
BRANCH  17  21
ATOM     21  C   UNL     1       4.772   1.703  -0.558  0.00  0.00    +0.141 C 
BRANCH  21  24
ATOM     22  C   UNL     1       3.720  -1.676  -1.874  0.00  0.00    +0.020 A 
ATOM     23  C   UNL     1       3.675  -0.427  -1.282  0.00  0.00    +0.008 A 
ATOM     24  C   UNL     1       4.821   0.341  -1.202  0.00  0.00    -0.012 A 
ATOM     25  C   UNL     1       6.014  -0.139  -1.713  0.00  0.00    +0.047 A 
ATOM     26  C   UNL     1       6.059  -1.389  -2.305  0.00  0.00    +0.040 A 
ATOM     27  C   UNL     1       4.911  -2.157  -2.385  0.00  0.00    +0.042 A 
ATOM     28 CL   UNL     1       4.967  -3.726  -3.127  0.00  0.00    -0.083 Cl
ATOM     29 CL   UNL     1       7.453   0.826  -1.613  0.00  0.00    -0.083 Cl
ENDBRANCH  21  24
ENDBRANCH  17  21
ENDBRANCH   1  18
BRANCH   1  30
ATOM     30  N   UNL     1       5.731   1.412   3.548  0.00  0.00    -0.317 NA
ATOM     31  H   UNL     1       4.730   1.335   3.653  0.00  0.00    +0.119 HD
ATOM     32  H   UNL     1       6.103   0.625   3.038  0.00  0.00    +0.119 HD
ENDBRANCH   1  30
TORSDOF 4
