REMARK  Name = CHEMBL512672
REMARK  6 active torsions:
REMARK  status: ('A' for Active; 'I' for Inactive)
REMARK    1  A    between atoms: C_4  and  C_7
REMARK    2  A    between atoms: C_7  and  C_8
REMARK    3  A    between atoms: C_7  and  N_10
REMARK    4  A    between atoms: C_8  and  N_9
REMARK    5  A    between atoms: C_11  and  C_13
REMARK    6  A    between atoms: C_15  and  C_18
REMARK                            x       y       z     vdW  Elec       q    Type
REMARK                         _______ _______ _______ _____ _____    ______ ____
ROOT
ATOM      1  N   UNL     1       3.630  -1.873   0.845  0.00  0.00    -0.306 N 
ATOM      2  C   UNL     1       4.751  -2.385   1.391  0.00  0.00    +0.251 C 
ATOM      3  O   UNL     1       5.831  -1.878   1.150  0.00  0.00    -0.270 OA
ATOM      4  H   UNL     1       2.769  -2.277   1.038  0.00  0.00    +0.150 HD
ENDROOT
BRANCH   2   5
ATOM      5  C   UNL     1       4.670  -3.552   2.275  0.00  0.00    +0.074 A 
ATOM      6  C   UNL     1       5.690  -4.216   2.929  0.00  0.00    +0.029 A 
ATOM      7  C   UNL     1       5.308  -5.298   3.705  0.00  0.00    -0.009 A 
ATOM      8  C   UNL     1       3.969  -5.620   3.761  0.00  0.00    +0.054 A 
ATOM      9  S   UNL     1       3.231  -4.471   2.783  0.00  0.00    -0.091 S 
BRANCH   7  10
ATOM     10  C   UNL     1       6.311  -6.089   4.455  0.00  0.00    -0.005 A 
ATOM     11  C   UNL     1       7.464  -6.568   3.831  0.00  0.00    +0.029 A 
ATOM     12  C   UNL     1       8.375  -7.302   4.568  0.00  0.00    +0.114 A 
ATOM     13  N   UNL     1       8.185  -7.561   5.845  0.00  0.00    -0.237 NA
ATOM     14  C   UNL     1       7.111  -7.134   6.496  0.00  0.00    +0.139 A 
ATOM     15  C   UNL     1       6.137  -6.376   5.822  0.00  0.00    +0.026 A 
ATOM     16  C   UNL     1       5.104  -6.062   6.808  0.00  0.00    +0.029 A 
ATOM     17  C   UNL     1       5.493  -6.615   7.968  0.00  0.00    +0.085 A 
ATOM     18  N   UNL     1       6.686  -7.265   7.797  0.00  0.00    -0.346 N 
ATOM     19  H   UNL     1       7.166  -7.740   8.493  0.00  0.00    +0.167 HD
ENDBRANCH   7  10
ENDBRANCH   2   5
BRANCH   1  20
ATOM     20  C   UNL     1       3.711  -0.707  -0.038  0.00  0.00    +0.086 C 
BRANCH  20  24
ATOM     21  C   UNL     1      -0.017   1.378   0.010  0.00  0.00    +0.000 A 
ATOM     22  C   UNL     1       1.171   2.086   0.002  0.00  0.00    +0.000 A 
ATOM     23  C   UNL     1       2.377   1.411  -0.013  0.00  0.00    +0.005 A 
ATOM     24  C   UNL     1       2.396   0.029  -0.020  0.00  0.00    -0.029 A 
ATOM     25  C   UNL     1       1.208  -0.679  -0.012  0.00  0.00    +0.005 A 
ATOM     26  C   UNL     1       0.002  -0.004   0.002  0.00  0.00    +0.000 A 
ENDBRANCH  20  24
BRANCH  20  27
ATOM     27  C   UNL     1       4.019  -1.168  -1.464  0.00  0.00    -0.059 C 
BRANCH  27  28
ATOM     28  N   UNL     1       5.239  -1.986  -1.461  0.00  0.00    +0.380 N 
ATOM     29  H   UNL     1       5.102  -2.792  -0.870  0.00  0.00    -0.090 HD
ATOM     30  H   UNL     1       5.442  -2.290  -2.402  0.00  0.00    -0.090 HD
ATOM     31  H   UNL     1       6.011  -1.439  -1.111  0.00  0.00    -0.090 HD
ENDBRANCH  27  28
ENDBRANCH  20  27
ENDBRANCH   1  20
TORSDOF 6
