REMARK  Name = CHEMBL605733
REMARK  10 active torsions:
REMARK  status: ('A' for Active; 'I' for Inactive)
REMARK    1  A    between atoms: C_1  and  C_2
REMARK    2  A    between atoms: C_5  and  C_12
REMARK    3  A    between atoms: C_14  and  O_26
REMARK    4  A    between atoms: C_17  and  C_18
REMARK    5  A    between atoms: C_23  and  O_24
REMARK    6  A    between atoms: O_26  and  C_27
REMARK    7  A    between atoms: C_27  and  C_28
REMARK    8  A    between atoms: C_28  and  C_30
REMARK    9  A    between atoms: C_28  and  N_37
REMARK   10  A    between atoms: C_30  and  C_31
REMARK                            x       y       z     vdW  Elec       q    Type
REMARK                         _______ _______ _______ _____ _____    ______ ____
ROOT
ATOM      1  C   UNL     1      -0.126  -1.618  -4.958  0.00  0.00    +0.012 A 
ATOM      2  C   UNL     1      -1.119  -0.824  -5.532  0.00  0.00    +0.057 A 
ATOM      3  C   UNL     1      -0.960  -0.417  -6.851  0.00  0.00    +0.139 A 
ATOM      4  C   UNL     1       0.173  -0.810  -7.553  0.00  0.00    +0.157 A 
ATOM      5  N   UNL     1       1.097  -1.560  -6.988  0.00  0.00    -0.251 NA
ATOM      6  C   UNL     1       0.993  -1.969  -5.731  0.00  0.00    +0.082 A 
ENDROOT
BRANCH   1  11
ATOM      7  C   UNL     1      -0.815   0.559   0.285  0.00  0.00    +0.068 C 
ATOM      8  C   UNL     1      -0.702  -0.929   0.069  0.00  0.00    +0.067 A 
ATOM      9  C   UNL     1      -0.525  -1.601  -1.215  0.00  0.00    +0.023 A 
ATOM     10  C   UNL     1      -0.412  -1.155  -2.535  0.00  0.00    +0.020 A 
ATOM     11  C   UNL     1      -0.247  -2.080  -3.554  0.00  0.00    -0.015 A 
ATOM     12  C   UNL     1      -0.196  -3.449  -3.263  0.00  0.00    +0.010 A 
ATOM     13  C   UNL     1      -0.305  -3.891  -1.978  0.00  0.00    +0.028 A 
ATOM     14  C   UNL     1      -0.471  -2.980  -0.935  0.00  0.00    +0.066 A 
ATOM     15  N   UNL     1      -0.607  -3.113   0.422  0.00  0.00    -0.277 N 
ATOM     16  H   UNL     1      -0.607  -3.952   0.908  0.00  0.00    +0.189 HD
ATOM     17  N   UNL     1      -0.740  -1.844   0.995  0.00  0.00    -0.178 NA
ENDBRANCH   1  11
BRANCH   6  18
ATOM     18  C   UNL     1       2.061  -2.806  -5.139  0.00  0.00    +0.044 A 
ATOM     19  C   UNL     1       2.627  -2.457  -3.914  0.00  0.00    +0.033 A 
ATOM     20  C   UNL     1       3.623  -3.242  -3.367  0.00  0.00    +0.042 A 
ATOM     21  C   UNL     1       4.062  -4.374  -4.032  0.00  0.00    +0.023 A 
ATOM     22  C   UNL     1       3.509  -4.728  -5.247  0.00  0.00    +0.047 A 
ATOM     23  C   UNL     1       2.504  -3.954  -5.805  0.00  0.00    +0.126 A 
ATOM     24 CL   UNL     1       4.327  -2.807  -1.841  0.00  0.00    -0.084 Cl
BRANCH  23  25
ATOM     25  O   UNL     1       1.955  -4.305  -6.997  0.00  0.00    -0.506 OA
ATOM     26  H   UNL     1       2.406  -3.926  -7.764  0.00  0.00    +0.292 HD
ENDBRANCH  23  25
ENDBRANCH   6  18
BRANCH   3  27
ATOM     27  O   UNL     1      -1.903   0.357  -7.449  0.00  0.00    -0.492 OA
BRANCH  27  28
ATOM     28  C   UNL     1      -1.667   0.734  -8.807  0.00  0.00    +0.213 C 
BRANCH  28  29
ATOM     29  C   UNL     1      -2.828   1.597  -9.306  0.00  0.00    -0.033 C 
BRANCH  29  30
ATOM     30  N   UNL     1      -2.860   2.857  -8.552  0.00  0.00    +0.382 N 
ATOM     31  H   UNL     1      -3.626   3.426  -8.881  0.00  0.00    -0.089 HD
ATOM     32  H   UNL     1      -2.986   2.659  -7.571  0.00  0.00    -0.089 HD
ATOM     33  H   UNL     1      -1.992   3.352  -8.687  0.00  0.00    -0.089 HD
ENDBRANCH  29  30
BRANCH  29  34
ATOM     34  C   UNL     1      -2.638   1.897 -10.794  0.00  0.00    +0.022 C 
BRANCH  34  35
ATOM     35  C   UNL     1      -3.841   2.642 -11.314  0.00  0.00    -0.049 A 
ATOM     36  C   UNL     1      -4.919   1.943 -11.824  0.00  0.00    +0.003 A 
ATOM     37  C   UNL     1      -6.022   2.626 -12.301  0.00  0.00    +0.000 A 
ATOM     38  C   UNL     1      -6.047   4.008 -12.267  0.00  0.00    +0.000 A 
ATOM     39  C   UNL     1      -4.969   4.707 -11.756  0.00  0.00    +0.000 A 
ATOM     40  C   UNL     1      -3.868   4.023 -11.275  0.00  0.00    +0.003 A 
ENDBRANCH  34  35
ENDBRANCH  29  34
ENDBRANCH  28  29
ENDBRANCH  27  28
ENDBRANCH   3  27
TORSDOF 9
