REMARK  Name = CHEMBL388311
REMARK  8 active torsions:
REMARK  status: ('A' for Active; 'I' for Inactive)
REMARK    1  A    between atoms: C_4  and  C_7
REMARK    2  A    between atoms: C_7  and  C_8
REMARK    3  A    between atoms: C_8  and  C_10
REMARK    4  A    between atoms: C_8  and  N_35
REMARK    5  A    between atoms: C_10  and  O_11
REMARK    6  A    between atoms: O_11  and  C_12
REMARK    7  A    between atoms: C_14  and  C_18
REMARK    8  A    between atoms: C_25  and  C_26
REMARK                            x       y       z     vdW  Elec       q    Type
REMARK                         _______ _______ _______ _____ _____    ______ ____
ROOT
ATOM      1  C   UNL     1       6.317  -3.673   3.108  0.00  0.00    +0.139 A 
ATOM      2  C   UNL     1       7.530  -3.346   3.701  0.00  0.00    +0.057 A 
ATOM      3  C   UNL     1       8.325  -4.381   4.195  0.00  0.00    +0.004 A 
ATOM      4  C   UNL     1       7.875  -5.695   4.075  0.00  0.00    +0.119 A 
ATOM      5  N   UNL     1       6.718  -5.960   3.504  0.00  0.00    -0.259 NA
ATOM      6  C   UNL     1       5.939  -5.006   3.032  0.00  0.00    +0.156 A 
ENDROOT
BRANCH   3   7
ATOM      7  C   UNL     1       9.630  -4.088   4.838  0.00  0.00    -0.016 A 
ATOM      8  C   UNL     1      10.070  -2.769   4.959  0.00  0.00    +0.010 A 
ATOM      9  C   UNL     1      11.280  -2.486   5.554  0.00  0.00    +0.024 A 
ATOM     10  C   UNL     1      12.078  -3.516   6.044  0.00  0.00    +0.042 A 
ATOM     11  C   UNL     1      11.638  -4.842   5.923  0.00  0.00    +0.009 A 
ATOM     12  C   UNL     1      10.416  -5.127   5.327  0.00  0.00    +0.019 A 
ATOM     13  C   UNL     1      12.691  -5.688   6.529  0.00  0.00    +0.048 C 
ATOM     14  C   UNL     1      12.702  -7.065   6.642  0.00  0.00    +0.039 C 
ATOM     15  C   UNL     1      13.723  -4.746   6.982  0.00  0.00    +0.249 C 
ATOM     16  O   UNL     1      14.766  -5.040   7.538  0.00  0.00    -0.270 OA
ATOM     17  N   UNL     1      13.316  -3.503   6.675  0.00  0.00    -0.281 N 
ATOM     18  H   UNL     1      13.821  -2.698   6.870  0.00  0.00    +0.155 HD
BRANCH  14  19
ATOM     19  C   UNL     1      13.797  -7.714   7.249  0.00  0.00    +0.040 A 
ATOM     20  C   UNL     1      14.894  -8.255   6.597  0.00  0.00    +0.027 A 
ATOM     21  C   UNL     1      15.729  -8.794   7.578  0.00  0.00    +0.019 A 
ATOM     22  C   UNL     1      15.148  -8.581   8.785  0.00  0.00    +0.083 A 
ATOM     23  N   UNL     1      13.976  -7.921   8.600  0.00  0.00    -0.361 N 
ATOM     24  H   UNL     1      13.366  -7.644   9.301  0.00  0.00    +0.165 HD
ENDBRANCH  14  19
ENDBRANCH   3   7
BRANCH   1  25
ATOM     25  O   UNL     1       5.509  -2.700   2.612  0.00  0.00    -0.492 OA
BRANCH  25  26
ATOM     26  C   UNL     1       4.276  -3.118   2.023  0.00  0.00    +0.213 C 
BRANCH  26  27
ATOM     27  C   UNL     1       3.507  -1.892   1.525  0.00  0.00    -0.033 C 
BRANCH  27  28
ATOM     28  N   UNL     1       4.259  -1.250   0.439  0.00  0.00    +0.382 N 
ATOM     29  H   UNL     1       5.164  -0.963   0.780  0.00  0.00    -0.089 HD
ATOM     30  H   UNL     1       4.377  -1.904  -0.321  0.00  0.00    -0.089 HD
ATOM     31  H   UNL     1       3.752  -0.442   0.111  0.00  0.00    -0.089 HD
ENDBRANCH  27  28
BRANCH  27  32
ATOM     32  C   UNL     1       2.134  -2.327   1.008  0.00  0.00    +0.022 C 
BRANCH  32  36
ATOM     33  C   UNL     1      -0.147   1.124  -0.058  0.00  0.00    +0.000 A 
ATOM     34  C   UNL     1       0.660   0.511  -0.998  0.00  0.00    +0.000 A 
ATOM     35  C   UNL     1       1.398  -0.605  -0.653  0.00  0.00    +0.003 A 
ATOM     36  C   UNL     1       1.330  -1.109   0.632  0.00  0.00    -0.049 A 
ATOM     37  C   UNL     1       0.524  -0.496   1.573  0.00  0.00    +0.003 A 
ATOM     38  C   UNL     1      -0.215   0.620   1.228  0.00  0.00    +0.000 A 
ENDBRANCH  32  36
ENDBRANCH  27  32
ENDBRANCH  26  27
ENDBRANCH  25  26
ENDBRANCH   1  25
TORSDOF 8
