REMARK  Name = CHEMBL383254
REMARK  6 active torsions:
REMARK  status: ('A' for Active; 'I' for Inactive)
REMARK    1  A    between atoms: C_4  and  C_7
REMARK    2  A    between atoms: C_7  and  C_8
REMARK    3  A    between atoms: C_7  and  C_10
REMARK    4  A    between atoms: C_8  and  N_9
REMARK    5  A    between atoms: C_12  and  C_16
REMARK    6  A    between atoms: C_17  and  C_18
REMARK                            x       y       z     vdW  Elec       q    Type
REMARK                         _______ _______ _______ _____ _____    ______ ____
ROOT
ATOM      1  C   UNL     1       3.740  -1.658  -1.207  0.00  0.00    -0.023 A 
ATOM      2  C   UNL     1       4.770  -1.602  -2.128  0.00  0.00    +0.015 A 
ATOM      3  C   UNL     1       4.754  -2.507  -3.198  0.00  0.00    -0.007 A 
ATOM      4  C   UNL     1       3.703  -3.423  -3.290  0.00  0.00    +0.118 A 
ATOM      5  N   UNL     1       2.745  -3.435  -2.387  0.00  0.00    -0.262 NA
ATOM      6  C   UNL     1       2.738  -2.599  -1.366  0.00  0.00    +0.115 A 
ENDROOT
BRANCH   3   7
ATOM      7  C   UNL     1       5.827  -2.492  -4.208  0.00  0.00    +0.010 C 
ATOM      8  C   UNL     1       5.799  -3.364  -5.229  0.00  0.00    +0.008 C 
BRANCH   8   9
ATOM      9  C   UNL     1       6.872  -3.349  -6.240  0.00  0.00    -0.022 A 
ATOM     10  C   UNL     1       7.932  -2.437  -6.152  0.00  0.00    +0.027 A 
ATOM     11  C   UNL     1       8.914  -2.459  -7.119  0.00  0.00    +0.111 A 
ATOM     12  N   UNL     1       8.864  -3.322  -8.117  0.00  0.00    -0.263 NA
ATOM     13  C   UNL     1       7.884  -4.198  -8.238  0.00  0.00    +0.111 A 
ATOM     14  C   UNL     1       6.863  -4.251  -7.313  0.00  0.00    +0.027 A 
ENDBRANCH   8   9
ENDBRANCH   3   7
BRANCH   1  15
ATOM     15  C   UNL     1       3.711  -0.707  -0.038  0.00  0.00    +0.033 C 
BRANCH  15  19
ATOM     16  C   UNL     1       0.432   1.995  -0.481  0.00  0.00    +0.000 A 
ATOM     17  C   UNL     1       1.730   2.461  -0.575  0.00  0.00    +0.000 A 
ATOM     18  C   UNL     1       2.791   1.587  -0.431  0.00  0.00    +0.004 A 
ATOM     19  C   UNL     1       2.554   0.246  -0.193  0.00  0.00    -0.042 A 
ATOM     20  C   UNL     1       1.257  -0.221  -0.098  0.00  0.00    +0.004 A 
ATOM     21  C   UNL     1       0.196   0.653  -0.243  0.00  0.00    +0.000 A 
ENDBRANCH  15  19
BRANCH  15  22
ATOM     22  C   UNL     1       3.547  -1.500   1.261  0.00  0.00    -0.074 C 
BRANCH  22  23
ATOM     23  N   UNL     1       4.732  -2.342   1.473  0.00  0.00    +0.379 N 
ATOM     24  H   UNL     1       4.834  -2.981   0.699  0.00  0.00    -0.090 HD
ATOM     25  H   UNL     1       5.553  -1.758   1.537  0.00  0.00    -0.090 HD
ATOM     26  H   UNL     1       4.625  -2.865   2.329  0.00  0.00    -0.090 HD
ENDBRANCH  22  23
ENDBRANCH  15  22
ENDBRANCH   1  15
TORSDOF 6
