REMARK  Name = CHEMBL207139
REMARK  12 active torsions:
REMARK  status: ('A' for Active; 'I' for Inactive)
REMARK    1  A    between atoms: C_1  and  C_2
REMARK    2  A    between atoms: C_2  and  C_3
REMARK    3  A    between atoms: C_2  and  C_4
REMARK    4  A    between atoms: C_2  and  C_10
REMARK    5  A    between atoms: C_4  and  C_5
REMARK    6  A    between atoms: C_13  and  C_20
REMARK    7  A    between atoms: C_22  and  O_26
REMARK    8  A    between atoms: O_26  and  C_27
REMARK    9  A    between atoms: C_27  and  C_28
REMARK   10  A    between atoms: C_28  and  C_30
REMARK   11  A    between atoms: C_28  and  N_41
REMARK   12  A    between atoms: C_30  and  C_31
REMARK                            x       y       z     vdW  Elec       q    Type
REMARK                         _______ _______ _______ _____ _____    ______ ____
ROOT
ATOM      1  C   UNL     1       4.203   3.451  -1.375  0.00  0.00    +0.004 A 
ATOM      2  C   UNL     1       5.557   3.795  -1.363  0.00  0.00    +0.057 A 
ATOM      3  C   UNL     1       5.895   5.140  -1.416  0.00  0.00    +0.139 A 
ATOM      4  C   UNL     1       4.884   6.090  -1.480  0.00  0.00    +0.156 A 
ATOM      5  N   UNL     1       3.616   5.731  -1.490  0.00  0.00    -0.259 NA
ATOM      6  C   UNL     1       3.250   4.466  -1.447  0.00  0.00    +0.119 A 
ENDROOT
BRANCH   1  10
ATOM      7  C   UNL     1       0.706  -0.310  -1.290  0.00  0.00    +0.113 C 
ATOM      8  C   UNL     1       2.054   0.372  -1.287  0.00  0.00    -0.013 A 
ATOM      9  C   UNL     1       2.432   1.693  -1.339  0.00  0.00    +0.014 A 
ATOM     10  C   UNL     1       3.786   2.029  -1.320  0.00  0.00    -0.016 A 
ATOM     11  C   UNL     1       4.744   1.019  -1.249  0.00  0.00    +0.010 A 
ATOM     12  C   UNL     1       4.358  -0.301  -1.198  0.00  0.00    +0.024 A 
ATOM     13  C   UNL     1       3.005  -0.640  -1.216  0.00  0.00    +0.037 A 
ATOM     14  N   UNL     1       2.379  -1.886  -1.175  0.00  0.00    -0.285 N 
ATOM     15  C   UNL     1       1.040  -1.785  -1.214  0.00  0.00    +0.225 C 
ATOM     16  O   UNL     1       0.247  -2.703  -1.192  0.00  0.00    -0.275 OA
ATOM     17  H   UNL     1       2.856  -2.729  -1.124  0.00  0.00    +0.155 HD
BRANCH   7  19
ATOM     18  C   UNL     1      -0.407   1.617  -0.155  0.00  0.00    +0.012 C 
ATOM     19  C   UNL     1      -0.115   0.118  -0.072  0.00  0.00    -0.021 C 
ATOM     20  C   UNL     1       0.676  -0.177   1.204  0.00  0.00    +0.012 C 
BRANCH  19  21
ATOM     21  C   UNL     1      -1.433  -0.659  -0.046  0.00  0.00    -0.008 C 
BRANCH  21  22
ATOM     22  C   UNL     1      -2.321  -0.119   1.076  0.00  0.00    -0.071 C 
ATOM     23  C   UNL     1      -3.683  -0.856   1.088  0.00  0.00    -0.018 C 
ATOM     24  C   UNL     1      -4.132  -0.662   2.561  0.00  0.00    -0.021 C 
ATOM     25  C   UNL     1      -2.803  -0.737   3.342  0.00  0.00    -0.082 C 
ATOM     26  N   UNL     1      -1.720  -0.413   2.395  0.00  0.00    +0.381 N 
ATOM     27  H   UNL     1      -1.093  -1.199   2.314  0.00  0.00    -0.086 HD
ATOM     28  H   UNL     1      -1.212   0.394   2.724  0.00  0.00    -0.086 HD
ENDBRANCH  21  22
ENDBRANCH  19  21
ENDBRANCH   7  19
ENDBRANCH   1  10
BRANCH   3  29
ATOM     29  O   UNL     1       7.199   5.523  -1.406  0.00  0.00    -0.492 OA
BRANCH  29  30
ATOM     30  C   UNL     1       7.464   6.926  -1.464  0.00  0.00    +0.213 C 
BRANCH  30  31
ATOM     31  C   UNL     1       8.976   7.162  -1.442  0.00  0.00    -0.033 C 
BRANCH  31  32
ATOM     32  N   UNL     1       9.575   6.602  -2.661  0.00  0.00    +0.382 N 
ATOM     33  H   UNL     1       9.176   7.054  -3.470  0.00  0.00    -0.089 HD
ATOM     34  H   UNL     1      10.572   6.757  -2.647  0.00  0.00    -0.089 HD
ATOM     35  H   UNL     1       9.390   5.611  -2.703  0.00  0.00    -0.089 HD
ENDBRANCH  31  32
BRANCH  31  36
ATOM     36  C   UNL     1       9.257   8.664  -1.379  0.00  0.00    +0.024 C 
BRANCH  36  37
ATOM     37  C   UNL     1      10.740   8.892  -1.234  0.00  0.00    -0.024 A 
ATOM     38  C   UNL     1      11.411   9.073  -0.086  0.00  0.00    +0.087 A 
ATOM     39  N   UNL     1      12.743   9.249  -0.347  0.00  0.00    -0.360 N 
ATOM     40  H   UNL     1      13.428   9.397   0.324  0.00  0.00    +0.165 HD
ATOM     41  C   UNL     1      12.966   9.184  -1.704  0.00  0.00    +0.047 A 
ATOM     42  C   UNL     1      11.722   8.951  -2.319  0.00  0.00    +0.003 A 
ATOM     43  C   UNL     1      11.643   8.832  -3.707  0.00  0.00    +0.010 A 
ATOM     44  C   UNL     1      12.776   8.939  -4.463  0.00  0.00    +0.001 A 
ATOM     45  C   UNL     1      14.006   9.165  -3.861  0.00  0.00    +0.002 A 
ATOM     46  C   UNL     1      14.106   9.294  -2.493  0.00  0.00    +0.026 A 
ENDBRANCH  36  37
ENDBRANCH  31  36
ENDBRANCH  30  31
ENDBRANCH  29  30
ENDBRANCH   3  29
TORSDOF 10
