REMARK  Name = CHEMBL603852
REMARK  6 active torsions:
REMARK  status: ('A' for Active; 'I' for Inactive)
REMARK    1  A    between atoms: C_1  and  C_2
REMARK    2  A    between atoms: C_7  and  N_8
REMARK    3  A    between atoms: N_9  and  C_10
REMARK    4  A    between atoms: C_13  and  S_16
REMARK    5  A    between atoms: S_16  and  N_19
REMARK    6  A    between atoms: C_26  and  C_28
REMARK                            x       y       z     vdW  Elec       q    Type
REMARK                         _______ _______ _______ _____ _____    ______ ____
ROOT
ATOM      1  N   UNL     1      -0.937  -0.166   2.652  0.00  0.00    -0.168 NA
ATOM      2  N   UNL     1      -1.196  -1.242   3.212  0.00  0.00    -0.154 NA
ENDROOT
BRANCH   1   9
ATOM      3  C   UNL     1       0.297   0.577   5.523  0.00  0.00    +0.065 C 
ATOM      4  C   UNL     1       0.447   1.188   4.154  0.00  0.00    +0.070 C 
ATOM      5  N   UNL     1       0.662   2.418   3.892  0.00  0.00    -0.176 NA
ATOM      6  N   UNL     1       0.753   2.679   2.529  0.00  0.00    -0.121 N 
ATOM      7  C   UNL     1       0.591   1.552   1.805  0.00  0.00    +0.274 C 
ATOM      8  O   UNL     1       0.614   1.440   0.598  0.00  0.00    -0.271 OA
ATOM      9  C   UNL     1       0.378   0.455   2.830  0.00  0.00    +0.261 C 
ATOM     10  C   UNL     1       0.975   3.899   2.000  0.00  0.00    +0.273 C 
ATOM     11  O   UNL     1       1.123   4.024   0.800  0.00  0.00    -0.268 OA
BRANCH  10  12
ATOM     12  C   UNL     1       1.040   5.084   2.879  0.00  0.00    +0.039 A 
ATOM     13  C   UNL     1       1.023   4.929   4.267  0.00  0.00    +0.014 A 
ATOM     14  C   UNL     1       1.084   6.040   5.082  0.00  0.00    +0.021 A 
ATOM     15  C   UNL     1       1.161   7.307   4.527  0.00  0.00    +0.041 A 
ATOM     16  C   UNL     1       1.177   7.467   3.151  0.00  0.00    +0.021 A 
ATOM     17  C   UNL     1       1.123   6.364   2.325  0.00  0.00    +0.014 A 
ATOM     18 CL   UNL     1       1.236   8.700   5.560  0.00  0.00    -0.084 Cl
ENDBRANCH  10  12
ENDBRANCH   1   9
BRANCH   2  19
ATOM     19  C   UNL     1      -0.195  -1.958   3.815  0.00  0.00    +0.086 A 
ATOM     20  C   UNL     1       0.967  -2.271   3.108  0.00  0.00    +0.031 A 
ATOM     21  C   UNL     1       1.970  -2.993   3.721  0.00  0.00    +0.031 A 
ATOM     22  C   UNL     1       1.826  -3.407   5.033  0.00  0.00    +0.109 A 
ATOM     23  C   UNL     1       0.677  -3.100   5.740  0.00  0.00    +0.031 A 
ATOM     24  C   UNL     1      -0.331  -2.374   5.141  0.00  0.00    +0.031 A 
BRANCH  22  25
ATOM     25  S   UNL     1       3.112  -4.330   5.808  0.00  0.00    +0.075 S 
ATOM     26  O   UNL     1       2.506  -5.067   6.861  0.00  0.00    -0.150 OA
ATOM     27  O   UNL     1       3.847  -4.956   4.765  0.00  0.00    -0.150 OA
BRANCH  25  28
ATOM     28  N   UNL     1       4.135  -3.240   6.521  0.00  0.00    -0.184 N 
ATOM     29  C   UNL     1       3.688  -2.453   7.567  0.00  0.00    +0.235 A 
ATOM     30  N   UNL     1       2.386  -2.361   7.796  0.00  0.00    -0.222 NA
ATOM     31  C   UNL     1       1.925  -1.617   8.788  0.00  0.00    +0.116 A 
ATOM     32  C   UNL     1       2.821  -0.929   9.591  0.00  0.00    +0.039 A 
ATOM     33  C   UNL     1       4.176  -1.048   9.323  0.00  0.00    +0.116 A 
ATOM     34  N   UNL     1       4.571  -1.812   8.319  0.00  0.00    -0.222 NA
ATOM     35  H   UNL     1       5.048  -3.154   6.205  0.00  0.00    +0.177 HD
ENDBRANCH  25  28
ENDBRANCH  22  25
ENDBRANCH   2  19
TORSDOF 5
