REMARK  Name = CHEMBL381703
REMARK  8 active torsions:
REMARK  status: ('A' for Active; 'I' for Inactive)
REMARK    1  A    between atoms: C_7  and  C_10
REMARK    2  A    between atoms: C_10  and  C_11
REMARK    3  A    between atoms: C_11  and  C_13
REMARK    4  A    between atoms: C_11  and  N_30
REMARK    5  A    between atoms: C_13  and  N_14
REMARK    6  A    between atoms: N_14  and  C_15
REMARK    7  A    between atoms: C_17  and  C_22
REMARK    8  A    between atoms: C_23  and  C_24
REMARK                            x       y       z     vdW  Elec       q    Type
REMARK                         _______ _______ _______ _____ _____    ______ ____
ROOT
ATOM      1  C   UNL     1       0.721  -4.999   2.455  0.00  0.00    +0.085 C 
ENDROOT
BRANCH   1   2
ATOM      2  N   UNL     1       0.809  -6.456   2.327  0.00  0.00    -0.344 N 
ATOM      3  H   UNL     1       1.113  -6.852   1.495  0.00  0.00    +0.146 HD
BRANCH   2   4
ATOM      4  C   UNL     1       0.454  -7.275   3.403  0.00  0.00    +0.046 A 
ATOM      5  C   UNL     1       0.540  -8.658   3.292  0.00  0.00    +0.035 A 
ATOM      6  C   UNL     1       0.173  -9.435   4.397  0.00  0.00    +0.014 A 
ATOM      7  C   UNL     1      -0.262  -8.792   5.561  0.00  0.00    +0.136 A 
ATOM      8  N   UNL     1      -0.326  -7.478   5.619  0.00  0.00    -0.241 NA
ATOM      9  C   UNL     1       0.018  -6.716   4.598  0.00  0.00    +0.135 A 
ATOM     10 CL   UNL     1      -0.721  -9.737   6.944  0.00  0.00    -0.061 Cl
BRANCH   6  11
ATOM     11  C   UNL     1       0.244 -10.906   4.335  0.00  0.00    +0.011 C 
ATOM     12  C   UNL     1       0.662 -11.511   3.212  0.00  0.00    +0.009 C 
BRANCH  12  13
ATOM     13  C   UNL     1       0.733 -12.982   3.150  0.00  0.00    -0.022 A 
ATOM     14  C   UNL     1       0.362 -13.768   4.250  0.00  0.00    +0.027 A 
ATOM     15  C   UNL     1       0.444 -15.140   4.147  0.00  0.00    +0.111 A 
ATOM     16  N   UNL     1       0.864 -15.713   3.035  0.00  0.00    -0.263 NA
ATOM     17  C   UNL     1       1.222 -15.012   1.976  0.00  0.00    +0.111 A 
ATOM     18  C   UNL     1       1.166 -13.634   1.988  0.00  0.00    +0.027 A 
ENDBRANCH  12  13
ENDBRANCH   6  11
ENDBRANCH   2   4
ENDBRANCH   1   2
BRANCH   1  19
ATOM     19  C   UNL     1       1.163  -4.344   1.145  0.00  0.00    -0.057 C 
BRANCH  19  20
ATOM     20  N   UNL     1       0.367  -4.883   0.035  0.00  0.00    +0.381 N 
ATOM     21  H   UNL     1       0.658  -4.451  -0.829  0.00  0.00    -0.090 HD
ATOM     22  H   UNL     1       0.504  -5.881  -0.024  0.00  0.00    -0.090 HD
ATOM     23  H   UNL     1      -0.610  -4.687   0.196  0.00  0.00    -0.090 HD
ENDBRANCH  19  20
BRANCH  19  24
ATOM     24  C   UNL     1       0.954  -2.831   1.236  0.00  0.00    -0.005 C 
BRANCH  24  31
ATOM     25  C   UNL     1      -0.017   1.378   0.010  0.00  0.00    +0.000 A 
ATOM     26  C   UNL     1       1.174   2.082   0.002  0.00  0.00    +0.002 A 
ATOM     27  C   UNL     1       2.377   1.411  -0.013  0.00  0.00    +0.023 A 
ATOM     28  C   UNL     1       2.405   0.014  -0.021  0.00  0.00    +0.031 A 
ATOM     29  C   UNL     1       1.206  -0.682  -0.013  0.00  0.00    -0.022 A 
ATOM     30  C   UNL     1       0.002  -0.004   0.002  0.00  0.00    +0.006 A 
ATOM     31  C   UNL     1       1.510  -2.163  -0.023  0.00  0.00    +0.036 C 
ATOM     32  C   UNL     1       3.046  -2.241  -0.038  0.00  0.00    +0.109 C 
ATOM     33  N   UNL     1       3.501  -0.849  -0.036  0.00  0.00    -0.343 N 
ATOM     34  H   UNL     1       4.430  -0.568  -0.044  0.00  0.00    +0.146 HD
ENDBRANCH  24  31
ENDBRANCH  19  24
ENDBRANCH   1  19
TORSDOF 8
