REMARK  Name = CHEMBL252259
REMARK  10 active torsions:
REMARK  status: ('A' for Active; 'I' for Inactive)
REMARK    1  A    between atoms: C_1  and  S_2
REMARK    2  A    between atoms: S_2  and  C_3
REMARK    3  A    between atoms: C_8  and  C_29
REMARK    4  A    between atoms: C_9  and  C_13
REMARK    5  A    between atoms: C_16  and  C_19
REMARK    6  A    between atoms: C_19  and  N_20
REMARK    7  A    between atoms: N_20  and  C_21
REMARK    8  A    between atoms: C_21  and  C_22
REMARK    9  A    between atoms: C_22  and  C_23
REMARK   10  A    between atoms: C_23  and  N_24
REMARK                            x       y       z     vdW  Elec       q    Type
REMARK                         _______ _______ _______ _____ _____    ______ ____
ROOT
ATOM      1  C   UNL     1      -1.702  -0.454   0.016  0.00  0.00    +0.190 A 
ATOM      2  N   UNL     1      -2.617   0.514   0.024  0.00  0.00    -0.230 NA
ATOM      3  C   UNL     1      -3.905   0.240   0.034  0.00  0.00    +0.125 A 
ATOM      4  C   UNL     1      -4.304  -1.109   0.036  0.00  0.00    +0.038 A 
ATOM      5  C   UNL     1      -5.657  -1.482   0.046  0.00  0.00    +0.023 A 
ATOM      6  C   UNL     1      -5.960  -2.835   0.046  0.00  0.00    +0.009 A 
ATOM      7  C   UNL     1      -4.910  -3.781   0.037  0.00  0.00    +0.081 A 
ATOM      8  N   UNL     1      -3.645  -3.404   0.028  0.00  0.00    -0.227 NA
ATOM      9  C   UNL     1      -3.302  -2.115   0.027  0.00  0.00    +0.165 A 
ATOM     10  N   UNL     1      -2.018  -1.735   0.012  0.00  0.00    -0.202 NA
ENDROOT
BRANCH   7  11
ATOM     11  C   UNL     1      -5.236  -5.226   0.038  0.00  0.00    +0.001 A 
ATOM     12  C   UNL     1      -6.352  -5.691   0.733  0.00  0.00    +0.010 A 
ATOM     13  C   UNL     1      -6.650  -7.038   0.729  0.00  0.00    +0.002 A 
ATOM     14  C   UNL     1      -5.845  -7.926   0.039  0.00  0.00    -0.064 A 
ATOM     15  C   UNL     1      -4.737  -7.471  -0.652  0.00  0.00    +0.002 A 
ATOM     16  C   UNL     1      -4.431  -6.125  -0.661  0.00  0.00    +0.010 A 
BRANCH  14  17
ATOM     17  C   UNL     1      -6.176  -9.397   0.039  0.00  0.00    -0.047 C 
BRANCH  17  18
ATOM     18  N   UNL     1      -7.062  -9.699  -1.093  0.00  0.00    +0.382 N 
ATOM     19  H   UNL     1      -7.913  -9.163  -1.007  0.00  0.00    -0.085 HD
ATOM     20  H   UNL     1      -6.599  -9.459  -1.956  0.00  0.00    -0.085 HD
BRANCH  18  21
ATOM     21  C   UNL     1      -7.386 -11.132  -1.092  0.00  0.00    -0.080 C 
BRANCH  21  22
ATOM     22  C   UNL     1      -8.308 -11.448  -2.271  0.00  0.00    +0.003 C 
BRANCH  22  23
ATOM     23  C   UNL     1      -8.645 -12.940  -2.270  0.00  0.00    +0.121 C 
BRANCH  23  24
ATOM     24  N   UNL     1      -9.528 -13.242  -3.399  0.00  0.00    -0.337 N 
ATOM     25  C   UNL     1     -10.897 -13.206  -3.392  0.00  0.00    +0.106 A 
ATOM     26  C   UNL     1     -11.302 -13.550  -4.629  0.00  0.00    +0.130 A 
ATOM     27  N   UNL     1     -10.211 -13.790  -5.372  0.00  0.00    -0.244 NA
ATOM     28  C   UNL     1      -9.145 -13.602  -4.643  0.00  0.00    +0.199 A 
ENDBRANCH  23  24
ENDBRANCH  22  23
ENDBRANCH  21  22
ENDBRANCH  18  21
ENDBRANCH  17  18
ENDBRANCH  14  17
ENDBRANCH   7  11
BRANCH   6  29
ATOM     29  C   UNL     1      -7.372  -3.286   0.057  0.00  0.00    -0.016 A 
ATOM     30  C   UNL     1      -7.809  -4.240  -0.861  0.00  0.00    +0.008 A 
ATOM     31  C   UNL     1      -9.124  -4.656  -0.845  0.00  0.00    +0.001 A 
ATOM     32  C   UNL     1     -10.009  -4.128   0.078  0.00  0.00    +0.000 A 
ATOM     33  C   UNL     1      -9.581  -3.181   0.991  0.00  0.00    +0.001 A 
ATOM     34  C   UNL     1      -8.267  -2.762   0.989  0.00  0.00    +0.008 A 
ENDBRANCH   6  29
BRANCH   1  36
ATOM     35  C   UNL     1      -0.022   1.810   0.012  0.00  0.00    +0.093 C 
ATOM     36  S   UNL     1       0.002  -0.004   0.002  0.00  0.00    -0.089 S 
ENDBRANCH   1  36
TORSDOF 9
