REMARK  Name = CHEMBL603852
REMARK  7 active torsions:
REMARK  status: ('A' for Active; 'I' for Inactive)
REMARK    1  A    between atoms: C_1  and  C_2
REMARK    2  A    between atoms: C_7  and  N_8
REMARK    3  A    between atoms: N_9  and  C_10
REMARK    4  A    between atoms: C_13  and  S_16
REMARK    5  A    between atoms: S_16  and  N_19
REMARK    6  A    between atoms: N_19  and  C_20
REMARK    7  A    between atoms: C_26  and  C_28
REMARK                            x       y       z     vdW  Elec       q    Type
REMARK                         _______ _______ _______ _____ _____    ______ ____
ROOT
ATOM      1  N   UNL     1       1.028  -0.166   2.751  0.00  0.00    -0.168 NA
ATOM      2  N   UNL     1       1.303  -1.251   3.284  0.00  0.00    -0.154 NA
ENDROOT
BRANCH   1   9
ATOM      3  C   UNL     1       0.148   1.943   5.009  0.00  0.00    +0.065 C 
ATOM      4  C   UNL     1      -0.307   1.708   3.591  0.00  0.00    +0.070 C 
ATOM      5  N   UNL     1      -0.744   2.591   2.780  0.00  0.00    -0.176 NA
ATOM      6  N   UNL     1      -1.089   2.069   1.537  0.00  0.00    -0.121 N 
ATOM      7  C   UNL     1      -0.874   0.738   1.492  0.00  0.00    +0.274 C 
ATOM      8  O   UNL     1      -1.071  -0.011   0.559  0.00  0.00    -0.271 OA
ATOM      9  C   UNL     1      -0.326   0.382   2.861  0.00  0.00    +0.261 C 
ATOM     10  C   UNL     1      -1.573   2.798   0.513  0.00  0.00    +0.273 C 
ATOM     11  O   UNL     1      -1.767   2.275  -0.567  0.00  0.00    -0.268 OA
BRANCH  10  12
ATOM     12  C   UNL     1      -1.870   4.232   0.702  0.00  0.00    +0.039 A 
ATOM     13  C   UNL     1      -1.514   4.871   1.892  0.00  0.00    +0.014 A 
ATOM     14  C   UNL     1      -1.792   6.210   2.063  0.00  0.00    +0.021 A 
ATOM     15  C   UNL     1      -2.424   6.923   1.057  0.00  0.00    +0.041 A 
ATOM     16  C   UNL     1      -2.780   6.295  -0.126  0.00  0.00    +0.021 A 
ATOM     17  C   UNL     1      -2.502   4.958  -0.311  0.00  0.00    +0.014 A 
ATOM     18 CL   UNL     1      -2.772   8.609   1.280  0.00  0.00    -0.084 Cl
ENDBRANCH  10  12
ENDBRANCH   1   9
BRANCH   2  19
ATOM     19  C   UNL     1       0.301  -2.123   3.622  0.00  0.00    +0.086 A 
ATOM     20  C   UNL     1       0.411  -2.906   4.772  0.00  0.00    +0.031 A 
ATOM     21  C   UNL     1      -0.602  -3.781   5.106  0.00  0.00    +0.031 A 
ATOM     22  C   UNL     1      -1.724  -3.884   4.303  0.00  0.00    +0.111 A 
ATOM     23  C   UNL     1      -1.839  -3.111   3.162  0.00  0.00    +0.031 A 
ATOM     24  C   UNL     1      -0.837  -2.227   2.820  0.00  0.00    +0.031 A 
BRANCH  22  25
ATOM     25  S   UNL     1      -3.012  -5.006   4.736  0.00  0.00    +0.094 S 
ATOM     26  O   UNL     1      -3.705  -5.312   3.534  0.00  0.00    -0.148 OA
ATOM     27  O   UNL     1      -2.421  -6.008   5.552  0.00  0.00    -0.148 OA
BRANCH  25  28
ATOM     28  N   UNL     1      -4.077  -4.180   5.699  0.00  0.00    -0.058 NA
BRANCH  28  29
ATOM     29  C   UNL     1      -5.201  -4.819   6.194  0.00  0.00    +0.257 A 
ATOM     30  N   UNL     1      -5.407  -6.092   5.893  0.00  0.00    -0.220 NA
ATOM     31  C   UNL     1      -6.470  -6.732   6.350  0.00  0.00    +0.116 A 
ATOM     32  C   UNL     1      -7.374  -6.054   7.152  0.00  0.00    +0.039 A 
ATOM     33  C   UNL     1      -7.128  -4.722   7.448  0.00  0.00    +0.116 A 
ATOM     34  N   UNL     1      -6.043  -4.143   6.963  0.00  0.00    -0.220 NA
ENDBRANCH  28  29
ENDBRANCH  25  28
ENDBRANCH  22  25
ENDBRANCH   2  19
TORSDOF 6
