REMARK  Name = CHEMBL572908
REMARK  9 active torsions:
REMARK  status: ('A' for Active; 'I' for Inactive)
REMARK    1  A    between atoms: C_1  and  C_2
REMARK    2  A    between atoms: C_2  and  C_3
REMARK    3  A    between atoms: C_4  and  C_25
REMARK    4  A    between atoms: C_6  and  O_9
REMARK    5  A    between atoms: O_9  and  C_10
REMARK    6  A    between atoms: C_10  and  C_11
REMARK    7  A    between atoms: C_11  and  C_13
REMARK    8  A    between atoms: C_11  and  N_24
REMARK    9  A    between atoms: C_13  and  C_14
REMARK                            x       y       z     vdW  Elec       q    Type
REMARK                         _______ _______ _______ _____ _____    ______ ____
ROOT
ATOM      1  C   UNL     1       0.727  -0.254  -1.349  0.00  0.00    +0.049 A 
ATOM      2  C   UNL     1      -0.036  -0.818  -2.370  0.00  0.00    +0.007 A 
ATOM      3  C   UNL     1       0.612  -1.503  -3.400  0.00  0.00    +0.057 A 
ATOM      4  C   UNL     1       1.998  -1.592  -3.361  0.00  0.00    +0.139 A 
ATOM      5  C   UNL     1       2.684  -1.003  -2.308  0.00  0.00    +0.156 A 
ATOM      6  N   UNL     1       2.040  -0.359  -1.354  0.00  0.00    -0.256 NA
ENDROOT
BRANCH   2   7
ATOM      7  C   UNL     1      -1.514  -0.693  -2.363  0.00  0.00    -0.015 A 
ATOM      8  C   UNL     1      -2.168  -0.105  -3.458  0.00  0.00    +0.009 A 
ATOM      9  C   UNL     1      -3.521   0.023  -3.478  0.00  0.00    +0.010 A 
ATOM     10  C   UNL     1      -4.283  -0.437  -2.391  0.00  0.00    +0.000 A 
ATOM     11  C   UNL     1      -5.682  -0.327  -2.367  0.00  0.00    +0.119 A 
ATOM     12  N   UNL     1      -6.357  -0.771  -1.333  0.00  0.00    -0.263 NA
ATOM     13  C   UNL     1      -5.774  -1.331  -0.282  0.00  0.00    +0.111 A 
ATOM     14  C   UNL     1      -4.423  -1.486  -0.207  0.00  0.00    +0.028 A 
ATOM     15  C   UNL     1      -3.631  -1.034  -1.280  0.00  0.00    -0.014 A 
ATOM     16  C   UNL     1      -2.236  -1.161  -1.280  0.00  0.00    +0.017 A 
ENDBRANCH   2   7
BRANCH   1  18
ATOM     17  C   UNL     1      -0.225   1.931  -0.665  0.00  0.00    +0.010 C 
ATOM     18  C   UNL     1       0.043   0.489  -0.231  0.00  0.00    +0.052 C 
ENDBRANCH   1  18
BRANCH   4  19
ATOM     19  O   UNL     1       2.674  -2.249  -4.340  0.00  0.00    -0.492 OA
BRANCH  19  20
ATOM     20  C   UNL     1       4.098  -2.296  -4.227  0.00  0.00    +0.213 C 
BRANCH  20  21
ATOM     21  C   UNL     1       4.678  -3.071  -5.411  0.00  0.00    -0.033 C 
BRANCH  21  22
ATOM     22  N   UNL     1       4.411  -2.336  -6.655  0.00  0.00    +0.382 N 
ATOM     23  H   UNL     1       4.794  -2.847  -7.436  0.00  0.00    -0.089 HD
ATOM     24  H   UNL     1       3.415  -2.232  -6.777  0.00  0.00    -0.089 HD
ATOM     25  H   UNL     1       4.841  -1.425  -6.606  0.00  0.00    -0.089 HD
ENDBRANCH  21  22
BRANCH  21  26
ATOM     26  C   UNL     1       6.189  -3.229  -5.226  0.00  0.00    +0.024 C 
BRANCH  26  27
ATOM     27  C   UNL     1       6.742  -4.096  -6.328  0.00  0.00    -0.024 A 
ATOM     28  C   UNL     1       6.950  -5.421  -6.273  0.00  0.00    +0.087 A 
ATOM     29  N   UNL     1       7.462  -5.863  -7.463  0.00  0.00    -0.360 N 
ATOM     30  H   UNL     1       7.694  -6.783  -7.662  0.00  0.00    +0.165 HD
ATOM     31  C   UNL     1       7.599  -4.806  -8.334  0.00  0.00    +0.047 A 
ATOM     32  C   UNL     1       7.148  -3.654  -7.664  0.00  0.00    +0.003 A 
ATOM     33  C   UNL     1       7.165  -2.418  -8.314  0.00  0.00    +0.010 A 
ATOM     34  C   UNL     1       7.617  -2.335  -9.601  0.00  0.00    +0.001 A 
ATOM     35  C   UNL     1       8.059  -3.469 -10.268  0.00  0.00    +0.002 A 
ATOM     36  C   UNL     1       8.060  -4.697  -9.642  0.00  0.00    +0.026 A 
ENDBRANCH  26  27
ENDBRANCH  21  26
ENDBRANCH  20  21
ENDBRANCH  19  20
ENDBRANCH   4  19
TORSDOF 8
