REMARK  Name = CHEMBL1171840
REMARK  7 active torsions:
REMARK  status: ('A' for Active; 'I' for Inactive)
REMARK    1  A    between atoms: C_1  and  C_2
REMARK    2  A    between atoms: C_8  and  N_12
REMARK    3  A    between atoms: C_15  and  C_17
REMARK    4  A    between atoms: C_15  and  N_28
REMARK    5  A    between atoms: C_17  and  N_18
REMARK    6  A    between atoms: C_19  and  O_21
REMARK    7  A    between atoms: O_21  and  C_22
REMARK                            x       y       z     vdW  Elec       q    Type
REMARK                         _______ _______ _______ _____ _____    ______ ____
ROOT
ATOM      1  N   UNL     1       0.164   0.566   3.157  0.00  0.00    -0.316 N 
ATOM      2  C   UNL     1      -0.022   1.723   2.263  0.00  0.00    +0.105 C 
ATOM      3  C   UNL     1      -0.626   2.828   3.165  0.00  0.00    +0.009 C 
ATOM      4  C   UNL     1       0.127   2.587   4.500  0.00  0.00    -0.038 C 
ATOM      5  C   UNL     1       0.271   1.051   4.541  0.00  0.00    +0.095 C 
ENDROOT
BRANCH   1  13
ATOM      6  C   UNL     1      -3.018   0.063   3.132  0.00  0.00    +0.046 C 
ATOM      7  C   UNL     1      -2.382  -1.240   2.719  0.00  0.00    -0.021 A 
ATOM      8  C   UNL     1      -3.022  -2.376   2.399  0.00  0.00    +0.088 A 
ATOM      9  N   UNL     1      -2.110  -3.348   2.076  0.00  0.00    -0.345 N 
ATOM     10  H   UNL     1      -2.333  -4.254   1.811  0.00  0.00    +0.167 HD
ATOM     11  C   UNL     1      -0.840  -2.851   2.182  0.00  0.00    +0.143 A 
ATOM     12  C   UNL     1      -0.952  -1.507   2.583  0.00  0.00    +0.061 A 
ATOM     13  C   UNL     1       0.221  -0.758   2.761  0.00  0.00    +0.134 A 
ATOM     14  N   UNL     1       1.389  -1.353   2.538  0.00  0.00    -0.220 NA
ATOM     15  C   UNL     1       1.449  -2.617   2.159  0.00  0.00    +0.225 A 
ATOM     16  N   UNL     1       0.376  -3.359   1.988  0.00  0.00    -0.218 NA
ENDBRANCH   1  13
BRANCH   4  17
ATOM     17  N   UNL     1      -0.670   3.062   5.639  0.00  0.00    +0.384 N 
ATOM     18  H   UNL     1      -1.558   2.583   5.652  0.00  0.00    -0.089 HD
ATOM     19  H   UNL     1      -0.174   2.875   6.498  0.00  0.00    -0.089 HD
ATOM     20  H   UNL     1      -0.825   4.055   5.550  0.00  0.00    -0.089 HD
ENDBRANCH   4  17
BRANCH   4  21
ATOM     21  C   UNL     1       1.499   3.264   4.478  0.00  0.00    +0.096 C 
BRANCH  21  22
ATOM     22  N   UNL     1       1.326   4.718   4.439  0.00  0.00    -0.282 N 
ATOM     23  C   UNL     1       2.405   5.525   4.414  0.00  0.00    +0.406 C 
ATOM     24  O   UNL     1       3.522   5.046   4.424  0.00  0.00    -0.226 OA
ATOM     25  H   UNL     1       0.434   5.100   4.432  0.00  0.00    +0.152 HD
BRANCH  23  26
ATOM     26  O   UNL     1       2.246   6.862   4.379  0.00  0.00    -0.412 OA
BRANCH  26  27
ATOM     27  C   UNL     1       3.355   7.633   4.231  0.00  0.00    +0.133 A 
ATOM     28  C   UNL     1       3.814   8.400   5.292  0.00  0.00    +0.046 A 
ATOM     29  C   UNL     1       4.942   9.183   5.139  0.00  0.00    +0.004 A 
ATOM     30  C   UNL     1       5.613   9.203   3.930  0.00  0.00    +0.000 A 
ATOM     31  C   UNL     1       5.157   8.439   2.871  0.00  0.00    +0.004 A 
ATOM     32  C   UNL     1       4.034   7.650   3.021  0.00  0.00    +0.046 A 
ENDBRANCH  26  27
ENDBRANCH  23  26
ENDBRANCH  21  22
ENDBRANCH   4  21
TORSDOF 6
