REMARK  Name = CHEMBL1094320
REMARK  12 active torsions:
REMARK  status: ('A' for Active; 'I' for Inactive)
REMARK    1  A    between atoms: C_1  and  C_2
REMARK    2  A    between atoms: C_2  and  C_3
REMARK    3  A    between atoms: C_3  and  C_5
REMARK    4  A    between atoms: C_3  and  N_32
REMARK    5  A    between atoms: C_5  and  O_6
REMARK    6  A    between atoms: O_6  and  C_7
REMARK    7  A    between atoms: C_9  and  C_13
REMARK    8  A    between atoms: C_18  and  O_30
REMARK    9  A    between atoms: C_19  and  O_28
REMARK   10  A    between atoms: C_25  and  N_27
REMARK   11  A    between atoms: O_28  and  C_29
REMARK   12  A    between atoms: O_30  and  C_31
REMARK                            x       y       z     vdW  Elec       q    Type
REMARK                         _______ _______ _______ _____ _____    ______ ____
ROOT
ATOM      1  C   UNL     1      -5.625  -6.465   0.744  0.00  0.00    +0.075 A 
ATOM      2  C   UNL     1      -5.708  -7.846   0.863  0.00  0.00    +0.037 A 
ATOM      3  C   UNL     1      -6.967  -8.430   0.987  0.00  0.00    -0.002 A 
ATOM      4  C   UNL     1      -7.174  -9.873   1.119  0.00  0.00    +0.012 A 
ATOM      5  C   UNL     1      -6.108 -10.772   1.130  0.00  0.00    +0.060 A 
ATOM      6  C   UNL     1      -6.354 -12.123   1.258  0.00  0.00    +0.162 A 
ATOM      7  C   UNL     1      -7.667 -12.594   1.376  0.00  0.00    +0.164 A 
ATOM      8  C   UNL     1      -8.731 -11.720   1.367  0.00  0.00    +0.077 A 
ATOM      9  C   UNL     1      -8.504 -10.342   1.239  0.00  0.00    +0.075 A 
ATOM     10  N   UNL     1      -9.532  -9.477   1.230  0.00  0.00    -0.254 NA
ATOM     11  C   UNL     1      -9.384  -8.185   1.113  0.00  0.00    +0.123 A 
ATOM     12  C   UNL     1      -8.113  -7.596   0.988  0.00  0.00    +0.040 A 
ATOM     13  C   UNL     1      -7.934  -6.204   0.861  0.00  0.00    +0.126 A 
ATOM     14  N   UNL     1      -6.717  -5.702   0.752  0.00  0.00    -0.232 NA
ENDROOT
BRANCH   1  17
ATOM     15  C   UNL     1      -2.911  -3.889   0.373  0.00  0.00    +0.139 A 
ATOM     16  C   UNL     1      -4.181  -4.439   0.495  0.00  0.00    +0.058 A 
ATOM     17  C   UNL     1      -4.294  -5.826   0.611  0.00  0.00    +0.022 A 
ATOM     18  C   UNL     1      -3.135  -6.601   0.599  0.00  0.00    +0.121 A 
ATOM     19  N   UNL     1      -1.950  -6.037   0.482  0.00  0.00    -0.259 NA
ATOM     20  C   UNL     1      -1.808  -4.731   0.365  0.00  0.00    +0.156 A 
BRANCH  15  21
ATOM     21  O   UNL     1      -2.751  -2.545   0.258  0.00  0.00    -0.492 OA
BRANCH  21  22
ATOM     22  C   UNL     1      -1.413  -2.059   0.130  0.00  0.00    +0.213 C 
BRANCH  22  23
ATOM     23  C   UNL     1      -1.433  -0.534   0.013  0.00  0.00    -0.037 C 
BRANCH  23  24
ATOM     24  N   UNL     1      -2.107  -0.147  -1.234  0.00  0.00    +0.382 N 
ATOM     25  H   UNL     1      -2.120   0.859  -1.311  0.00  0.00    -0.090 HD
ATOM     26  H   UNL     1      -1.610  -0.539  -2.020  0.00  0.00    -0.090 HD
ATOM     27  H   UNL     1      -3.054  -0.496  -1.227  0.00  0.00    -0.090 HD
ENDBRANCH  23  24
BRANCH  23  29
ATOM     28  C   UNL     1      -0.019   1.526   0.010  0.00  0.00    +0.002 C 
ATOM     29  C   UNL     1       0.002  -0.004   0.002  0.00  0.00    -0.016 C 
ENDBRANCH  23  29
ENDBRANCH  22  23
ENDBRANCH  21  22
ENDBRANCH  15  21
ENDBRANCH   1  17
BRANCH  13  30
ATOM     30  N   UNL     1      -9.032  -5.362   0.858  0.00  0.00    -0.343 N 
ATOM     31  H   UNL     1      -9.925  -5.730   0.942  0.00  0.00    +0.144 HD
ATOM     32  H   UNL     1      -8.909  -4.404   0.771  0.00  0.00    +0.144 HD
ENDBRANCH  13  30
BRANCH   7  33
ATOM     33  O   UNL     1      -7.894 -13.928   1.500  0.00  0.00    -0.491 OA
ATOM     34  C   UNL     1      -9.256 -14.347   1.617  0.00  0.00    +0.277 C 
ENDBRANCH   7  33
BRANCH   6  35
ATOM     35  O   UNL     1      -5.317 -13.001   1.268  0.00  0.00    -0.491 OA
ATOM     36  C   UNL     1      -4.002 -12.454   1.143  0.00  0.00    +0.277 C 
ENDBRANCH   6  35
TORSDOF 9
