REMARK  Name = CHEMBL271091
REMARK  6 active torsions:
REMARK  status: ('A' for Active; 'I' for Inactive)
REMARK    1  A    between atoms: C_4  and  C_7
REMARK    2  A    between atoms: C_8  and  C_22
REMARK    3  A    between atoms: C_13  and  C_17
REMARK    4  A    between atoms: C_25  and  C_28
REMARK    5  A    between atoms: C_28  and  N_29
REMARK    6  A    between atoms: C_32  and  N_35
REMARK                            x       y       z     vdW  Elec       q    Type
REMARK                         _______ _______ _______ _____ _____    ______ ____
ROOT
ATOM      1  C   UNL     1       2.739  -2.360   1.566  0.00  0.00    +0.002 A 
ATOM      2  C   UNL     1       1.804  -1.468   2.089  0.00  0.00    +0.010 A 
ATOM      3  C   UNL     1       0.760  -1.940   2.858  0.00  0.00    +0.002 A 
ATOM      4  C   UNL     1       0.640  -3.294   3.111  0.00  0.00    -0.064 A 
ATOM      5  C   UNL     1       1.566  -4.184   2.595  0.00  0.00    +0.002 A 
ATOM      6  C   UNL     1       2.610  -3.725   1.819  0.00  0.00    +0.010 A 
ENDROOT
BRANCH   1   8
ATOM      7  C   UNL     1       3.618  -0.901  -0.275  0.00  0.00    +0.098 A 
ATOM      8  C   UNL     1       3.862  -1.860   0.739  0.00  0.00    +0.098 A 
ATOM      9  N   UNL     1       5.085  -2.310   0.952  0.00  0.00    -0.243 NA
ATOM     10  C   UNL     1       6.100  -1.860   0.206  0.00  0.00    +0.090 A 
ATOM     11  C   UNL     1       7.409  -2.329   0.418  0.00  0.00    +0.030 A 
ATOM     12  C   UNL     1       8.431  -1.864  -0.345  0.00  0.00    +0.014 A 
ATOM     13  C   UNL     1       8.202  -0.912  -1.354  0.00  0.00    +0.025 A 
ATOM     14  C   UNL     1       6.926  -0.431  -1.588  0.00  0.00    +0.041 A 
ATOM     15  C   UNL     1       5.855  -0.899  -0.810  0.00  0.00    +0.091 A 
ATOM     16  N   UNL     1       4.611  -0.453  -1.020  0.00  0.00    -0.243 NA
BRANCH   7  20
ATOM     17  C   UNL     1      -0.331   0.526  -0.933  0.00  0.00    +0.000 A 
ATOM     18  C   UNL     1       0.726   1.418  -0.889  0.00  0.00    +0.001 A 
ATOM     19  C   UNL     1       2.010   0.961  -0.675  0.00  0.00    +0.010 A 
ATOM     20  C   UNL     1       2.242  -0.404  -0.504  0.00  0.00    +0.002 A 
ATOM     21  C   UNL     1       1.173  -1.298  -0.550  0.00  0.00    +0.010 A 
ATOM     22  C   UNL     1      -0.107  -0.829  -0.764  0.00  0.00    +0.001 A 
ENDBRANCH   7  20
BRANCH  13  23
ATOM     23  C   UNL     1       9.333  -0.421  -2.171  0.00  0.00    +0.207 A 
ATOM     24  N   UNL     1      10.612  -0.787  -2.066  0.00  0.00    -0.106 NA
ATOM     25  N   UNL     1      11.277  -0.132  -2.955  0.00  0.00    -0.021 NA
ATOM     26  N   UNL     1      10.472   0.627  -3.613  0.00  0.00    -0.021 NA
ATOM     27  N   UNL     1       9.275   0.470  -3.162  0.00  0.00    -0.106 NA
ENDBRANCH  13  23
ENDBRANCH   1   8
BRANCH   4  28
ATOM     28  C   UNL     1      -0.502  -3.803   3.952  0.00  0.00    -0.043 C 
BRANCH  28  29
ATOM     29  N   UNL     1      -1.648  -4.113   3.087  0.00  0.00    +0.382 N 
ATOM     30  C   UNL     1      -2.135  -2.877   2.462  0.00  0.00    -0.076 C 
ATOM     31  C   UNL     1      -3.276  -3.205   1.496  0.00  0.00    +0.006 C 
ATOM     32  C   UNL     1      -4.417  -3.871   2.271  0.00  0.00    +0.089 C 
ATOM     33  C   UNL     1      -3.880  -5.118   2.980  0.00  0.00    +0.006 C 
ATOM     34  C   UNL     1      -2.716  -4.719   3.890  0.00  0.00    -0.076 C 
ATOM     35  H   UNL     1      -1.360  -4.760   2.368  0.00  0.00    -0.081 HD
BRANCH  32  36
ATOM     36  N   UNL     1      -5.481  -4.257   1.341  0.00  0.00    -0.289 N 
ATOM     37  C   UNL     1      -6.798  -3.803   1.375  0.00  0.00    +0.070 A 
ATOM     38  C   UNL     1      -7.481  -2.928   2.206  0.00  0.00    +0.028 A 
ATOM     39  C   UNL     1      -8.819  -2.670   1.981  0.00  0.00    +0.002 A 
ATOM     40  C   UNL     1      -9.481  -3.282   0.930  0.00  0.00    +0.002 A 
ATOM     41  C   UNL     1      -8.809  -4.155   0.098  0.00  0.00    +0.028 A 
ATOM     42  C   UNL     1      -7.465  -4.419   0.315  0.00  0.00    +0.067 A 
ATOM     43  N   UNL     1      -6.533  -5.229  -0.330  0.00  0.00    -0.306 N 
ATOM     44  H   UNL     1      -6.705  -5.784  -1.107  0.00  0.00    +0.170 HD
ATOM     45  C   UNL     1      -5.352  -5.106   0.305  0.00  0.00    +0.328 A 
ATOM     46  O   UNL     1      -4.325  -5.678  -0.009  0.00  0.00    -0.247 OA
ENDBRANCH  32  36
ENDBRANCH  28  29
ENDBRANCH   4  28
TORSDOF 6
