REMARK  Name = CHEMBL444165
REMARK  6 active torsions:
REMARK  status: ('A' for Active; 'I' for Inactive)
REMARK    1  A    between atoms: C_1  and  C_2
REMARK    2  A    between atoms: C_2  and  C_3
REMARK    3  A    between atoms: C_3  and  C_4
REMARK    4  A    between atoms: C_9  and  C_12
REMARK    5  A    between atoms: C_12  and  C_13
REMARK    6  A    between atoms: C_22  and  O_26
REMARK                            x       y       z     vdW  Elec       q    Type
REMARK                         _______ _______ _______ _____ _____    ______ ____
ROOT
ATOM      1  C   UNL     1      -1.413  -2.063   0.004  0.00  0.00    +0.153 C 
ATOM      2  C   UNL     1      -2.824  -2.579  -0.122  0.00  0.00    +0.035 C 
ATOM      3  C   UNL     1      -3.485  -3.091   0.922  0.00  0.00    +0.012 C 
ATOM      4  C   UNL     1      -2.852  -3.192   2.289  0.00  0.00    +0.071 C 
ATOM      5  C   UNL     1      -1.624  -2.284   2.366  0.00  0.00    +0.134 C 
ATOM      6  O   UNL     1      -0.814  -2.532   1.211  0.00  0.00    -0.368 OA
ATOM      7  C   UNL     1      -4.873  -3.583   0.768  0.00  0.00    +0.191 C 
ATOM      8  O   UNL     1      -5.463  -4.040   1.727  0.00  0.00    -0.287 OA
ATOM      9  C   UNL     1      -5.543  -3.520  -0.545  0.00  0.00    +0.036 A 
ATOM     10  C   UNL     1      -6.843  -3.979  -0.710  0.00  0.00    +0.012 A 
ATOM     11  C   UNL     1      -7.450  -3.910  -1.957  0.00  0.00    +0.004 A 
ATOM     12  C   UNL     1      -6.772  -3.389  -3.038  0.00  0.00    +0.046 A 
ATOM     13  C   UNL     1      -5.465  -2.922  -2.894  0.00  0.00    +0.128 A 
ATOM     14  C   UNL     1      -4.845  -2.985  -1.645  0.00  0.00    +0.074 A 
ATOM     15  C   UNL     1      -3.468  -2.502  -1.454  0.00  0.00    +0.196 C 
ATOM     16  O   UNL     1      -2.855  -2.037  -2.396  0.00  0.00    -0.287 OA
ENDROOT
BRANCH  13  17
ATOM     17  O   UNL     1      -4.802  -2.411  -3.960  0.00  0.00    -0.506 OA
ATOM     18  H   UNL     1      -4.918  -1.458  -4.075  0.00  0.00    +0.292 HD
ENDBRANCH  13  17
BRANCH   1  19
ATOM     19  C   UNL     1      -1.433  -0.534   0.013  0.00  0.00    +0.036 C 
BRANCH  19  21
ATOM     20  C   UNL     1      -0.019   1.526   0.010  0.00  0.00    +0.004 C 
ATOM     21  C   UNL     1       0.002  -0.004   0.002  0.00  0.00    -0.001 C 
ENDBRANCH  19  21
ENDBRANCH   1  19
BRANCH   5  22
ATOM     22  C   UNL     1      -0.829  -2.599   3.634  0.00  0.00    +0.157 C 
BRANCH  22  23
ATOM     23  C   UNL     1       0.310  -1.621   3.768  0.00  0.00    +0.358 C 
ATOM     24  O   UNL     1       0.470  -0.753   2.926  0.00  0.00    -0.246 OA
ATOM     25  O   UNL     1       1.071  -1.698   4.717  0.00  0.00    -0.246 OA
ENDBRANCH  22  23
ENDBRANCH   5  22
TORSDOF 5
