REMARK  Name = CHEMBL1096271
REMARK  11 active torsions:
REMARK  status: ('A' for Active; 'I' for Inactive)
REMARK    1  A    between atoms: C_1  and  O_2
REMARK    2  A    between atoms: O_2  and  C_3
REMARK    3  A    between atoms: C_8  and  C_20
REMARK    4  A    between atoms: C_16  and  O_17
REMARK    5  A    between atoms: O_17  and  C_18
REMARK    6  A    between atoms: C_22  and  O_26
REMARK    7  A    between atoms: O_26  and  C_27
REMARK    8  A    between atoms: C_27  and  C_28
REMARK    9  A    between atoms: C_28  and  C_30
REMARK   10  A    between atoms: C_28  and  N_38
REMARK   11  A    between atoms: C_30  and  C_31
REMARK                            x       y       z     vdW  Elec       q    Type
REMARK                         _______ _______ _______ _____ _____    ______ ____
ROOT
ATOM      1  C   UNL     1      -1.201  -0.638   0.010  0.00  0.00    +0.162 A 
ATOM      2  C   UNL     1      -2.365   0.101   0.019  0.00  0.00    +0.060 A 
ATOM      3  C   UNL     1      -3.598  -0.551   0.028  0.00  0.00    +0.012 A 
ATOM      4  C   UNL     1      -4.862   0.186   0.037  0.00  0.00    -0.002 A 
ATOM      5  C   UNL     1      -4.937   1.578   0.039  0.00  0.00    +0.037 A 
ATOM      6  C   UNL     1      -6.190   2.176   0.048  0.00  0.00    +0.075 A 
ATOM      7  N   UNL     1      -7.305   1.447   0.055  0.00  0.00    -0.232 NA
ATOM      8  C   UNL     1      -7.292   0.127   0.054  0.00  0.00    +0.126 A 
ATOM      9  C   UNL     1      -6.064  -0.565   0.045  0.00  0.00    +0.040 A 
ATOM     10  C   UNL     1      -5.989  -1.970   0.043  0.00  0.00    +0.123 A 
ATOM     11  N   UNL     1      -4.844  -2.595   0.034  0.00  0.00    -0.254 NA
ATOM     12  C   UNL     1      -3.656  -1.965   0.027  0.00  0.00    +0.075 A 
ATOM     13  C   UNL     1      -2.460  -2.696   0.017  0.00  0.00    +0.077 A 
ATOM     14  C   UNL     1      -1.251  -2.037   0.003  0.00  0.00    +0.164 A 
ATOM     15  N   UNL     1      -8.483  -0.577   0.063  0.00  0.00    -0.343 N 
ATOM     16  H   UNL     1      -9.328  -0.101   0.070  0.00  0.00    +0.144 HD
ATOM     17  H   UNL     1      -8.473  -1.547   0.062  0.00  0.00    +0.144 HD
ENDROOT
BRANCH   6  18
ATOM     18  C   UNL     1      -6.288   3.655   0.050  0.00  0.00    +0.022 A 
ATOM     19  C   UNL     1      -7.531   4.283   0.169  0.00  0.00    +0.058 A 
ATOM     20  C   UNL     1      -7.569   5.671   0.166  0.00  0.00    +0.139 A 
ATOM     21  C   UNL     1      -6.382   6.381   0.044  0.00  0.00    +0.156 A 
ATOM     22  N   UNL     1      -5.227   5.756  -0.067  0.00  0.00    -0.259 NA
ATOM     23  C   UNL     1      -5.143   4.441  -0.062  0.00  0.00    +0.121 A 
BRANCH  20  24
ATOM     24  O   UNL     1      -8.754   6.327   0.279  0.00  0.00    -0.492 OA
BRANCH  24  25
ATOM     25  C   UNL     1      -8.709   7.755   0.267  0.00  0.00    +0.213 C 
BRANCH  25  26
ATOM     26  C   UNL     1     -10.128   8.312   0.404  0.00  0.00    -0.033 C 
BRANCH  26  27
ATOM     27  N   UNL     1     -10.670   7.952   1.720  0.00  0.00    +0.382 N 
ATOM     28  H   UNL     1     -11.606   8.319   1.811  0.00  0.00    -0.089 HD
ATOM     29  H   UNL     1     -10.693   6.947   1.811  0.00  0.00    -0.089 HD
ATOM     30  H   UNL     1     -10.085   8.342   2.443  0.00  0.00    -0.089 HD
ENDBRANCH  26  27
BRANCH  26  31
ATOM     31  C   UNL     1     -10.094   9.835   0.266  0.00  0.00    +0.022 C 
BRANCH  31  32
ATOM     32  C   UNL     1     -11.502  10.373   0.277  0.00  0.00    -0.047 A 
ATOM     33  C   UNL     1     -12.200  10.507  -0.908  0.00  0.00    +0.003 A 
ATOM     34  C   UNL     1     -13.491  10.999  -0.898  0.00  0.00    +0.002 A 
ATOM     35  C   UNL     1     -14.085  11.359   0.297  0.00  0.00    +0.020 A 
ATOM     36  C   UNL     1     -13.387  11.225   1.484  0.00  0.00    +0.041 A 
ATOM     37  C   UNL     1     -12.096  10.726   1.474  0.00  0.00    +0.023 A 
ATOM     38 CL   UNL     1     -14.132  11.675   2.986  0.00  0.00    -0.084 Cl
ENDBRANCH  31  32
ENDBRANCH  26  31
ENDBRANCH  25  26
ENDBRANCH  24  25
ENDBRANCH  20  24
ENDBRANCH   6  18
BRANCH   1  40
ATOM     39  C   UNL     1      -0.017   1.425   0.010  0.00  0.00    +0.277 C 
ATOM     40  O   UNL     1       0.002  -0.004   0.002  0.00  0.00    -0.491 OA
ENDBRANCH   1  40
BRANCH  14  41
ATOM     41  O   UNL     1      -0.095  -2.751  -0.012  0.00  0.00    -0.491 OA
ATOM     42  C   UNL     1      -0.213  -4.175  -0.019  0.00  0.00    +0.277 C 
ENDBRANCH  14  41
TORSDOF 9
