REMARK  Name = CHEMBL209503
REMARK  8 active torsions:
REMARK  status: ('A' for Active; 'I' for Inactive)
REMARK    1  A    between atoms: C_7  and  C_11
REMARK    2  A    between atoms: C_11  and  C_12
REMARK    3  A    between atoms: C_12  and  C_14
REMARK    4  A    between atoms: C_12  and  N_32
REMARK    5  A    between atoms: C_14  and  O_15
REMARK    6  A    between atoms: O_15  and  C_16
REMARK    7  A    between atoms: C_18  and  C_22
REMARK    8  A    between atoms: N_32  and  C_33
REMARK                            x       y       z     vdW  Elec       q    Type
REMARK                         _______ _______ _______ _____ _____    ______ ____
ROOT
ATOM      1  C   UNL     1       0.236  -3.589  -1.455  0.00  0.00    +0.112 C 
ENDROOT
BRANCH   1   2
ATOM      2  N   UNL     1      -0.550  -2.472  -1.985  0.00  0.00    -0.337 N 
ATOM      3  H   UNL     1      -1.518  -2.494  -1.936  0.00  0.00    +0.146 HD
BRANCH   2   4
ATOM      4  C   UNL     1       0.097  -1.373  -2.562  0.00  0.00    +0.029 A 
ATOM      5  C   UNL     1       1.484  -1.333  -2.643  0.00  0.00    +0.025 A 
ATOM      6  C   UNL     1       2.133  -0.262  -3.207  0.00  0.00    +0.028 A 
ATOM      7  C   UNL     1       1.415   0.831  -3.720  0.00  0.00    +0.056 A 
ATOM      8  C   UNL     1       0.017   0.763  -3.625  0.00  0.00    +0.042 A 
ATOM      9  C   UNL     1      -0.638  -0.307  -3.067  0.00  0.00    +0.040 A 
ATOM     10  S   UNL     1      -0.513   2.289  -4.364  0.00  0.00    -0.027 S 
ATOM     11  C   UNL     1       1.100   2.943  -4.762  0.00  0.00    +0.289 A 
ATOM     12  N   UNL     1       1.924   1.976  -4.315  0.00  0.00    -0.316 N 
ATOM     13  O   UNL     1       1.383   3.997  -5.301  0.00  0.00    -0.260 OA
ATOM     14  H   UNL     1       2.884   2.081  -4.410  0.00  0.00    +0.169 HD
ENDBRANCH   2   4
ENDBRANCH   1   2
BRANCH   1  15
ATOM     15  C   UNL     1       0.666  -3.275  -0.021  0.00  0.00    +0.062 C 
BRANCH  15  22
ATOM     16  C   UNL     1      -0.017   1.362   0.009  0.00  0.00    +0.001 A 
ATOM     17  C   UNL     1       1.170   2.083   0.002  0.00  0.00    +0.002 A 
ATOM     18  C   UNL     1       2.386   1.436  -0.013  0.00  0.00    +0.026 A 
ATOM     19  C   UNL     1       2.428   0.046  -0.021  0.00  0.00    +0.047 A 
ATOM     20  C   UNL     1       1.223  -0.681  -0.013  0.00  0.00    +0.003 A 
ATOM     21  C   UNL     1       0.002  -0.004   0.002  0.00  0.00    +0.010 A 
ATOM     22  C   UNL     1       1.604  -2.095  -0.025  0.00  0.00    -0.021 A 
ATOM     23  C   UNL     1       2.945  -2.141  -0.038  0.00  0.00    +0.087 A 
ATOM     24  N   UNL     1       3.455  -0.871  -0.036  0.00  0.00    -0.360 N 
ATOM     25  H   UNL     1       4.399  -0.650  -0.044  0.00  0.00    +0.165 HD
ENDBRANCH  15  22
ENDBRANCH   1  15
BRANCH   1  26
ATOM     26  C   UNL     1      -0.614  -4.861  -1.466  0.00  0.00    +0.251 C 
BRANCH  26  27
ATOM     27  O   UNL     1      -1.711  -4.708  -0.563  0.00  0.00    -0.489 OA
BRANCH  27  28
ATOM     28  C   UNL     1      -2.570  -5.756  -0.452  0.00  0.00    +0.139 A 
ATOM     29  C   UNL     1      -3.664  -5.682   0.401  0.00  0.00    +0.057 A 
ATOM     30  C   UNL     1      -4.518  -6.784   0.479  0.00  0.00    +0.004 A 
ATOM     31  C   UNL     1      -4.241  -7.908  -0.296  0.00  0.00    +0.119 A 
ATOM     32  N   UNL     1      -3.192  -7.936  -1.092  0.00  0.00    -0.259 NA
ATOM     33  C   UNL     1      -2.368  -6.911  -1.195  0.00  0.00    +0.156 A 
BRANCH  30  34
ATOM     34  C   UNL     1      -5.700  -6.758   1.375  0.00  0.00    -0.015 A 
ATOM     35  C   UNL     1      -5.981  -5.631   2.148  0.00  0.00    +0.010 A 
ATOM     36  C   UNL     1      -7.071  -5.595   2.980  0.00  0.00    +0.027 A 
ATOM     37  C   UNL     1      -7.943  -6.694   3.081  0.00  0.00    +0.056 A 
ATOM     38  C   UNL     1      -7.638  -7.815   2.293  0.00  0.00    +0.041 A 
ATOM     39  C   UNL     1      -6.554  -7.859   1.454  0.00  0.00    +0.025 A 
ATOM     40  S   UNL     1      -8.940  -8.956   2.693  0.00  0.00    -0.027 S 
ATOM     41  C   UNL     1      -9.815  -7.928   3.861  0.00  0.00    +0.289 A 
ATOM     42  N   UNL     1      -9.074  -6.803   3.871  0.00  0.00    -0.316 N 
ATOM     43  O   UNL     1     -10.827  -8.180   4.489  0.00  0.00    -0.260 OA
ATOM     44  H   UNL     1      -9.336  -6.061   4.439  0.00  0.00    +0.169 HD
ENDBRANCH  30  34
ENDBRANCH  27  28
ENDBRANCH  26  27
ENDBRANCH   1  26
TORSDOF 8
