REMARK  Name = CHEMBL1204096
REMARK  10 active torsions:
REMARK  status: ('A' for Active; 'I' for Inactive)
REMARK    1  A    between atoms: C_1  and  O_2
REMARK    2  A    between atoms: O_2  and  C_3
REMARK    3  A    between atoms: C_6  and  O_38
REMARK    4  A    between atoms: C_7  and  C_10
REMARK    5  A    between atoms: C_10  and  C_12
REMARK    6  A    between atoms: C_15  and  C_18
REMARK    7  A    between atoms: C_18  and  O_20
REMARK    8  A    between atoms: O_20  and  C_21
REMARK    9  A    between atoms: C_28  and  N_29
REMARK   10  A    between atoms: C_30  and  C_32
REMARK                            x       y       z     vdW  Elec       q    Type
REMARK                         _______ _______ _______ _____ _____    ______ ____
ROOT
ATOM      1  C   UNL     1      -7.635  -6.783  -0.372  0.00  0.00    +0.340 C 
ATOM      2  O   UNL     1      -8.645  -6.133  -0.552  0.00  0.00    -0.245 OA
ENDROOT
BRANCH   1   6
ATOM      3  C   UNL     1      -3.871  -4.824  -0.080  0.00  0.00    +0.023 A 
ATOM      4  C   UNL     1      -5.032  -4.078  -0.288  0.00  0.00    +0.012 A 
ATOM      5  C   UNL     1      -6.252  -4.712  -0.383  0.00  0.00    +0.015 A 
ATOM      6  C   UNL     1      -6.326  -6.102  -0.271  0.00  0.00    +0.059 A 
ATOM      7  C   UNL     1      -5.165  -6.849  -0.063  0.00  0.00    +0.015 A 
ATOM      8  C   UNL     1      -3.945  -6.215   0.026  0.00  0.00    +0.012 A 
BRANCH   3   9
ATOM      9  C   UNL     1      -2.561  -4.143   0.021  0.00  0.00    +0.200 C 
ATOM     10  O   UNL     1      -1.540  -4.798   0.102  0.00  0.00    -0.286 OA
BRANCH   9  15
ATOM     11  C   UNL     1      -2.533  -0.581   1.221  0.00  0.00    +0.156 A 
ATOM     12  C   UNL     1      -2.370   0.104   0.024  0.00  0.00    +0.052 A 
ATOM     13  C   UNL     1      -2.270  -0.587  -1.169  0.00  0.00    +0.050 A 
ATOM     14  C   UNL     1      -2.331  -1.970  -1.181  0.00  0.00    +0.131 A 
ATOM     15  C   UNL     1      -2.495  -2.672   0.024  0.00  0.00    +0.102 A 
ATOM     16  C   UNL     1      -2.590  -1.965   1.229  0.00  0.00    +0.179 A 
ATOM     17  F   UNL     1      -2.743  -2.630   2.395  0.00  0.00    -0.201 F 
BRANCH  11  19
ATOM     18  C   UNL     1      -2.565   1.534   2.309  0.00  0.00    +0.277 C 
ATOM     19  O   UNL     1      -2.631   0.109   2.389  0.00  0.00    -0.492 OA
ENDBRANCH  11  19
BRANCH  14  20
ATOM     20  O   UNL     1      -2.232  -2.646  -2.354  0.00  0.00    -0.506 OA
ATOM     21  H   UNL     1      -1.323  -2.814  -2.636  0.00  0.00    +0.292 HD
ENDBRANCH  14  20
ENDBRANCH   9  15
ENDBRANCH   3   9
ENDBRANCH   1   6
BRANCH   1  22
ATOM     22  O   UNL     1      -7.707  -8.124  -0.264  0.00  0.00    -0.456 OA
BRANCH  22  23
ATOM     23  C   UNL     1      -9.004  -8.715  -0.372  0.00  0.00    +0.195 C 
ATOM     24  C   UNL     1      -9.650  -8.782   1.034  0.00  0.00    +0.044 C 
ATOM     25  C   UNL     1     -11.127  -9.027   0.879  0.00  0.00    -0.015 C 
ATOM     26  C   UNL     1     -11.507 -10.518   0.892  0.00  0.00    -0.082 C 
ATOM     27  N   UNL     1     -10.592 -11.369   0.102  0.00  0.00    +0.380 N 
ATOM     28  C   UNL     1     -10.228 -10.750  -1.150  0.00  0.00    -0.056 C 
ATOM     29  C   UNL     1      -8.876 -10.046  -0.952  0.00  0.00    +0.097 C 
ATOM     30  H   UNL     1      -9.755 -11.539   0.639  0.00  0.00    -0.086 HD
ATOM     31  H   UNL     1     -11.044 -12.251  -0.087  0.00  0.00    -0.086 HD
BRANCH  29  32
ATOM     32  N   UNL     1      -8.211  -9.931  -2.252  0.00  0.00    -0.307 N 
ATOM     33  C   UNL     1      -7.532 -10.980  -2.757  0.00  0.00    +0.244 C 
ATOM     34  O   UNL     1      -7.472 -12.021  -2.134  0.00  0.00    -0.270 OA
ATOM     35  H   UNL     1      -8.260  -9.100  -2.750  0.00  0.00    +0.149 HD
BRANCH  33  36
ATOM     36  C   UNL     1      -6.860 -10.864  -4.072  0.00  0.00    +0.040 A 
ATOM     37  C   UNL     1      -6.912  -9.673  -4.803  0.00  0.00    +0.033 A 
ATOM     38  C   UNL     1      -6.271  -9.609  -6.025  0.00  0.00    +0.111 A 
ATOM     39  N   UNL     1      -5.617 -10.649  -6.502  0.00  0.00    -0.263 NA
ATOM     40  C   UNL     1      -5.543 -11.790  -5.845  0.00  0.00    +0.111 A 
ATOM     41  C   UNL     1      -6.150 -11.940  -4.614  0.00  0.00    +0.033 A 
ENDBRANCH  33  36
ENDBRANCH  29  32
ENDBRANCH  22  23
ENDBRANCH   1  22
TORSDOF 9
