REMARK  Name = CHEMBL470192
REMARK  6 active torsions:
REMARK  status: ('A' for Active; 'I' for Inactive)
REMARK    1  A    between atoms: C_4  and  C_7
REMARK    2  A    between atoms: C_7  and  C_8
REMARK    3  A    between atoms: C_7  and  N_10
REMARK    4  A    between atoms: C_8  and  N_9
REMARK    5  A    between atoms: C_11  and  C_13
REMARK    6  A    between atoms: C_16  and  C_18
REMARK                            x       y       z     vdW  Elec       q    Type
REMARK                         _______ _______ _______ _____ _____    ______ ____
ROOT
ATOM      1  N   UNL     1       3.611  -1.865  -0.930  0.00  0.00    -0.306 N 
ATOM      2  C   UNL     1       4.721  -2.370  -1.504  0.00  0.00    +0.251 C 
ATOM      3  O   UNL     1       5.806  -1.866  -1.280  0.00  0.00    -0.270 OA
ATOM      4  H   UNL     1       2.747  -2.267  -1.108  0.00  0.00    +0.150 HD
ENDROOT
BRANCH   2   5
ATOM      5  C   UNL     1       4.622  -3.526  -2.395  0.00  0.00    +0.074 A 
ATOM      6  C   UNL     1       5.632  -4.194  -3.073  0.00  0.00    +0.021 A 
ATOM      7  C   UNL     1       5.301  -5.260  -3.859  0.00  0.00    +0.017 A 
ATOM      8  C   UNL     1       3.968  -5.634  -3.949  0.00  0.00    +0.022 A 
ATOM      9  S   UNL     1       3.170  -4.443  -2.884  0.00  0.00    -0.084 S 
BRANCH   8  10
ATOM     10  C   UNL     1       3.365  -6.736  -4.721  0.00  0.00    +0.015 A 
ATOM     11  C   UNL     1       3.571  -7.016  -6.035  0.00  0.00    +0.094 A 
ATOM     12  N   UNL     1       2.840  -8.111  -6.392  0.00  0.00    -0.345 N 
ATOM     13  H   UNL     1       2.825  -8.501  -7.280  0.00  0.00    +0.167 HD
ATOM     14  C   UNL     1       2.128  -8.585  -5.314  0.00  0.00    +0.139 A 
ATOM     15  C   UNL     1       2.426  -7.753  -4.220  0.00  0.00    +0.027 A 
ATOM     16  C   UNL     1       1.839  -8.009  -2.982  0.00  0.00    +0.013 A 
ATOM     17  C   UNL     1       0.979  -9.087  -2.879  0.00  0.00    +0.020 A 
ATOM     18  C   UNL     1       0.733  -9.868  -3.998  0.00  0.00    +0.113 A 
ATOM     19  N   UNL     1       1.293  -9.603  -5.159  0.00  0.00    -0.237 NA
ENDBRANCH   8  10
ENDBRANCH   2   5
BRANCH   1  20
ATOM     20  C   UNL     1       3.711  -0.707  -0.038  0.00  0.00    +0.086 C 
BRANCH  20  24
ATOM     21  C   UNL     1      -0.017   1.378   0.010  0.00  0.00    +0.000 A 
ATOM     22  C   UNL     1       1.171   2.086   0.002  0.00  0.00    +0.000 A 
ATOM     23  C   UNL     1       2.377   1.411  -0.013  0.00  0.00    +0.005 A 
ATOM     24  C   UNL     1       2.396   0.029  -0.020  0.00  0.00    -0.029 A 
ATOM     25  C   UNL     1       1.208  -0.679  -0.012  0.00  0.00    +0.005 A 
ATOM     26  C   UNL     1       0.002  -0.004   0.002  0.00  0.00    +0.000 A 
ENDBRANCH  20  24
BRANCH  20  27
ATOM     27  C   UNL     1       4.049  -1.182   1.377  0.00  0.00    -0.059 C 
BRANCH  27  28
ATOM     28  N   UNL     1       5.268  -2.000   1.341  0.00  0.00    +0.380 N 
ATOM     29  H   UNL     1       5.491  -2.313   2.274  0.00  0.00    -0.090 HD
ATOM     30  H   UNL     1       5.119  -2.800   0.745  0.00  0.00    -0.090 HD
ATOM     31  H   UNL     1       6.032  -1.450   0.980  0.00  0.00    -0.090 HD
ENDBRANCH  27  28
ENDBRANCH  20  27
ENDBRANCH   1  20
TORSDOF 6
