REMARK  Name = CHEMBL574290
REMARK  8 active torsions:
REMARK  status: ('A' for Active; 'I' for Inactive)
REMARK    1  A    between atoms: C_1  and  N_2
REMARK    2  A    between atoms: C_4  and  C_11
REMARK    3  A    between atoms: C_11  and  C_12
REMARK    4  A    between atoms: C_11  and  O_14
REMARK    5  A    between atoms: C_12  and  N_13
REMARK    6  A    between atoms: O_14  and  C_15
REMARK    7  A    between atoms: C_17  and  C_21
REMARK    8  A    between atoms: C_22  and  C_23
REMARK                            x       y       z     vdW  Elec       q    Type
REMARK                         _______ _______ _______ _____ _____    ______ ____
ROOT
ATOM      1  C   UNL     1       0.014  -3.254  -1.709  0.00  0.00    +0.188 C 
ENDROOT
BRANCH   1   5
ATOM      2  C   UNL     1      -0.591   1.357   0.198  0.00  0.00    +0.149 C 
ATOM      3  N   UNL     1      -0.426  -0.097   0.135  0.00  0.00    -0.349 N 
ATOM      4  C   UNL     1      -0.290  -0.823  -1.017  0.00  0.00    +0.093 A 
ATOM      5  C   UNL     1      -0.159  -2.126  -0.724  0.00  0.00    +0.016 A 
ATOM      6  C   UNL     1      -0.215  -2.245   0.735  0.00  0.00    +0.006 A 
ATOM      7  C   UNL     1      -0.379  -0.936   1.225  0.00  0.00    +0.049 A 
ATOM      8  C   UNL     1      -0.461  -0.728   2.598  0.00  0.00    +0.026 A 
ATOM      9  C   UNL     1      -0.379  -1.801   3.459  0.00  0.00    +0.002 A 
ATOM     10  C   UNL     1      -0.214  -3.089   2.970  0.00  0.00    +0.001 A 
ATOM     11  C   UNL     1      -0.139  -3.317   1.625  0.00  0.00    +0.010 A 
ENDBRANCH   1   5
BRANCH   1  12
ATOM     12  C   UNL     1       1.504  -3.559  -1.879  0.00  0.00    -0.036 C 
BRANCH  12  13
ATOM     13  N   UNL     1       1.672  -4.658  -2.839  0.00  0.00    +0.381 N 
ATOM     14  H   UNL     1       1.197  -5.480  -2.496  0.00  0.00    -0.090 HD
ATOM     15  H   UNL     1       1.280  -4.390  -3.729  0.00  0.00    -0.090 HD
ATOM     16  H   UNL     1       2.654  -4.859  -2.951  0.00  0.00    -0.090 HD
ENDBRANCH  12  13
ENDBRANCH   1  12
BRANCH   1  17
ATOM     17  O   UNL     1      -0.541  -2.874  -2.970  0.00  0.00    -0.485 OA
BRANCH  17  18
ATOM     18  C   UNL     1      -1.086  -3.862  -3.727  0.00  0.00    +0.140 A 
ATOM     19  C   UNL     1      -1.166  -5.159  -3.237  0.00  0.00    +0.056 A 
ATOM     20  C   UNL     1      -1.736  -6.142  -4.056  0.00  0.00    -0.003 A 
ATOM     21  C   UNL     1      -2.199  -5.780  -5.324  0.00  0.00    +0.118 A 
ATOM     22  N   UNL     1      -2.102  -4.537  -5.744  0.00  0.00    -0.259 NA
ATOM     23  C   UNL     1      -1.576  -3.586  -4.996  0.00  0.00    +0.156 A 
BRANCH  20  24
ATOM     24  C   UNL     1      -1.846  -7.535  -3.587  0.00  0.00    +0.010 C 
ATOM     25  C   UNL     1      -2.395  -8.469  -4.381  0.00  0.00    +0.008 C 
BRANCH  25  26
ATOM     26  C   UNL     1      -2.504  -9.862  -3.913  0.00  0.00    -0.022 A 
ATOM     27  C   UNL     1      -2.048 -10.233  -2.641  0.00  0.00    +0.027 A 
ATOM     28  C   UNL     1      -2.170 -11.548  -2.245  0.00  0.00    +0.111 A 
ATOM     29  N   UNL     1      -2.708 -12.450  -3.044  0.00  0.00    -0.263 NA
ATOM     30  C   UNL     1      -3.150 -12.144  -4.249  0.00  0.00    +0.111 A 
ATOM     31  C   UNL     1      -3.074 -10.852  -4.725  0.00  0.00    +0.027 A 
ENDBRANCH  25  26
ENDBRANCH  20  24
ENDBRANCH  17  18
ENDBRANCH   1  17
TORSDOF 7
