REMARK  Name = CHEMBL207139
REMARK  12 active torsions:
REMARK  status: ('A' for Active; 'I' for Inactive)
REMARK    1  A    between atoms: C_1  and  C_2
REMARK    2  A    between atoms: C_2  and  C_3
REMARK    3  A    between atoms: C_2  and  C_4
REMARK    4  A    between atoms: C_2  and  C_10
REMARK    5  A    between atoms: C_4  and  C_5
REMARK    6  A    between atoms: C_13  and  C_20
REMARK    7  A    between atoms: C_22  and  O_26
REMARK    8  A    between atoms: O_26  and  C_27
REMARK    9  A    between atoms: C_27  and  C_28
REMARK   10  A    between atoms: C_28  and  C_30
REMARK   11  A    between atoms: C_28  and  N_41
REMARK   12  A    between atoms: C_30  and  C_31
REMARK                            x       y       z     vdW  Elec       q    Type
REMARK                         _______ _______ _______ _____ _____    ______ ____
ROOT
ATOM      1  C   UNL     1       5.487  -1.022   0.121  0.00  0.00    +0.004 A 
ATOM      2  C   UNL     1       6.820  -0.697  -0.144  0.00  0.00    +0.057 A 
ATOM      3  C   UNL     1       7.796  -1.160   0.729  0.00  0.00    +0.139 A 
ATOM      4  C   UNL     1       7.417  -1.922   1.826  0.00  0.00    +0.156 A 
ATOM      5  N   UNL     1       6.149  -2.209   2.046  0.00  0.00    -0.259 NA
ATOM      6  C   UNL     1       5.190  -1.787   1.247  0.00  0.00    +0.119 A 
ENDROOT
BRANCH   1  10
ATOM      7  C   UNL     1       0.577  -0.610  -1.331  0.00  0.00    +0.113 C 
ATOM      8  C   UNL     1       2.079  -0.439  -1.344  0.00  0.00    -0.013 A 
ATOM      9  C   UNL     1       3.076  -0.877  -0.505  0.00  0.00    +0.014 A 
ATOM     10  C   UNL     1       4.405  -0.554  -0.779  0.00  0.00    -0.016 A 
ATOM     11  C   UNL     1       4.709   0.211  -1.904  0.00  0.00    +0.010 A 
ATOM     12  C   UNL     1       3.705   0.646  -2.739  0.00  0.00    +0.024 A 
ATOM     13  C   UNL     1       2.375   0.325  -2.468  0.00  0.00    +0.037 A 
ATOM     14  N   UNL     1       1.204   0.645  -3.154  0.00  0.00    -0.285 N 
ATOM     15  C   UNL     1       0.110   0.140  -2.560  0.00  0.00    +0.225 C 
ATOM     16  O   UNL     1      -1.036   0.261  -2.937  0.00  0.00    -0.275 OA
ATOM     17  H   UNL     1       1.182   1.173  -3.968  0.00  0.00    +0.155 HD
BRANCH   7  19
ATOM     18  C   UNL     1       0.399   1.476   0.032  0.00  0.00    +0.012 C 
ATOM     19  C   UNL     1      -0.022   0.008  -0.066  0.00  0.00    -0.021 C 
ATOM     20  C   UNL     1       0.486  -0.751   1.162  0.00  0.00    +0.012 C 
BRANCH  19  21
ATOM     21  C   UNL     1      -1.548  -0.083  -0.127  0.00  0.00    -0.008 C 
BRANCH  21  22
ATOM     22  C   UNL     1      -1.975  -1.549  -0.036  0.00  0.00    -0.071 C 
ATOM     23  C   UNL     1      -3.520  -1.661  -0.027  0.00  0.00    -0.018 C 
ATOM     24  C   UNL     1      -3.734  -3.102  -0.560  0.00  0.00    -0.021 C 
ATOM     25  C   UNL     1      -2.599  -3.261  -1.594  0.00  0.00    -0.082 C 
ATOM     26  N   UNL     1      -1.551  -2.284  -1.247  0.00  0.00    +0.381 N 
ATOM     27  H   UNL     1      -1.424  -1.637  -2.010  0.00  0.00    -0.086 HD
ATOM     28  H   UNL     1      -0.684  -2.767  -1.064  0.00  0.00    -0.086 HD
ENDBRANCH  21  22
ENDBRANCH  19  21
ENDBRANCH   7  19
ENDBRANCH   1  10
BRANCH   3  29
ATOM     29  O   UNL     1       9.106  -0.870   0.512  0.00  0.00    -0.492 OA
BRANCH  29  30
ATOM     30  C   UNL     1      10.049  -1.383   1.456  0.00  0.00    +0.213 C 
BRANCH  30  31
ATOM     31  C   UNL     1      11.461  -0.957   1.050  0.00  0.00    -0.033 C 
BRANCH  31  32
ATOM     32  N   UNL     1      11.577   0.504   1.139  0.00  0.00    +0.382 N 
ATOM     33  H   UNL     1      11.397   0.798   2.087  0.00  0.00    -0.089 HD
ATOM     34  H   UNL     1      12.508   0.785   0.871  0.00  0.00    -0.089 HD
ATOM     35  H   UNL     1      10.905   0.933   0.521  0.00  0.00    -0.089 HD
ENDBRANCH  31  32
BRANCH  31  36
ATOM     36  C   UNL     1      12.479  -1.608   1.988  0.00  0.00    +0.024 C 
BRANCH  36  37
ATOM     37  C   UNL     1      13.874  -1.289   1.514  0.00  0.00    -0.024 A 
ATOM     38  C   UNL     1      14.642  -2.052   0.720  0.00  0.00    +0.087 A 
ATOM     39  N   UNL     1      15.845  -1.438   0.504  0.00  0.00    -0.360 N 
ATOM     40  H   UNL     1      16.565  -1.797  -0.038  0.00  0.00    +0.165 HD
ATOM     41  C   UNL     1      15.882  -0.233   1.170  0.00  0.00    +0.047 A 
ATOM     42  C   UNL     1      14.646  -0.084   1.827  0.00  0.00    +0.003 A 
ATOM     43  C   UNL     1      14.394   1.060   2.586  0.00  0.00    +0.010 A 
ATOM     44  C   UNL     1      15.349   2.033   2.684  0.00  0.00    +0.001 A 
ATOM     45  C   UNL     1      16.568   1.893   2.035  0.00  0.00    +0.002 A 
ATOM     46  C   UNL     1      16.841   0.767   1.288  0.00  0.00    +0.026 A 
ENDBRANCH  36  37
ENDBRANCH  31  36
ENDBRANCH  30  31
ENDBRANCH  29  30
ENDBRANCH   3  29
TORSDOF 10
