REMARK  Name = CHEMBL205871
REMARK  8 active torsions:
REMARK  status: ('A' for Active; 'I' for Inactive)
REMARK    1  A    between atoms: C_10  and  C_11
REMARK    2  A    between atoms: C_11  and  C_12
REMARK    3  A    between atoms: C_12  and  C_14
REMARK    4  A    between atoms: C_12  and  N_30
REMARK    5  A    between atoms: C_14  and  O_15
REMARK    6  A    between atoms: O_15  and  C_16
REMARK    7  A    between atoms: C_18  and  C_22
REMARK    8  A    between atoms: C_23  and  C_24
REMARK                            x       y       z     vdW  Elec       q    Type
REMARK                         _______ _______ _______ _____ _____    ______ ____
ROOT
ATOM      1  C   UNL     1       5.347   0.524   1.389  0.00  0.00    -0.033 C 
ENDROOT
BRANCH   1   2
ATOM      2  N   UNL     1       4.347   1.443   1.948  0.00  0.00    +0.382 N 
ATOM      3  H   UNL     1       3.442   0.996   1.947  0.00  0.00    -0.089 HD
ATOM      4  H   UNL     1       4.602   1.683   2.894  0.00  0.00    -0.089 HD
ATOM      5  H   UNL     1       4.309   2.281   1.387  0.00  0.00    -0.089 HD
ENDBRANCH   1   2
BRANCH   1   6
ATOM      6  C   UNL     1       4.960   0.161  -0.046  0.00  0.00    +0.023 C 
BRANCH   6  16
ATOM      7  C   UNL     1      -0.016   1.357   0.009  0.00  0.00    +0.001 A 
ATOM      8  C   UNL     1       1.169   2.091   0.002  0.00  0.00    +0.001 A 
ATOM      9  C   UNL     1       2.378   1.468  -0.013  0.00  0.00    +0.009 A 
ATOM     10  C   UNL     1       2.438   0.064  -0.021  0.00  0.00    -0.015 A 
ATOM     11  C   UNL     1       1.233  -0.683  -0.013  0.00  0.00    -0.018 A 
ATOM     12  C   UNL     1       0.002  -0.004   0.002  0.00  0.00    +0.008 A 
ATOM     13  C   UNL     1       1.292  -2.087  -0.021  0.00  0.00    +0.008 A 
ATOM     14  C   UNL     1       2.502  -2.709  -0.036  0.00  0.00    +0.001 A 
ATOM     15  C   UNL     1       3.687  -1.976  -0.043  0.00  0.00    +0.004 A 
ATOM     16  C   UNL     1       3.668  -0.615  -0.037  0.00  0.00    -0.041 A 
ENDBRANCH   6  16
ENDBRANCH   1   6
BRANCH   1  17
ATOM     17  C   UNL     1       6.719   1.201   1.391  0.00  0.00    +0.213 C 
BRANCH  17  18
ATOM     18  O   UNL     1       7.133   1.435   2.739  0.00  0.00    -0.492 OA
BRANCH  18  19
ATOM     19  C   UNL     1       8.339   2.035   2.919  0.00  0.00    +0.139 A 
ATOM     20  C   UNL     1       8.812   2.291   4.199  0.00  0.00    +0.056 A 
ATOM     21  C   UNL     1      10.061   2.910   4.332  0.00  0.00    -0.003 A 
ATOM     22  C   UNL     1      10.776   3.244   3.179  0.00  0.00    +0.118 A 
ATOM     23  N   UNL     1      10.285   2.981   1.986  0.00  0.00    -0.259 NA
ATOM     24  C   UNL     1       9.116   2.393   1.825  0.00  0.00    +0.156 A 
BRANCH  21  25
ATOM     25  C   UNL     1      10.612   3.206   5.667  0.00  0.00    +0.010 C 
ATOM     26  C   UNL     1      11.811   3.800   5.782  0.00  0.00    +0.008 C 
BRANCH  26  27
ATOM     27  C   UNL     1      12.361   4.096   7.116  0.00  0.00    -0.022 A 
ATOM     28  C   UNL     1      11.654   3.760   8.278  0.00  0.00    +0.027 A 
ATOM     29  C   UNL     1      12.208   4.056   9.506  0.00  0.00    +0.111 A 
ATOM     30  N   UNL     1      13.385   4.646   9.595  0.00  0.00    -0.263 NA
ATOM     31  C   UNL     1      14.084   4.979   8.526  0.00  0.00    +0.111 A 
ATOM     32  C   UNL     1      13.611   4.716   7.259  0.00  0.00    +0.027 A 
ENDBRANCH  26  27
ENDBRANCH  21  25
ENDBRANCH  18  19
ENDBRANCH  17  18
ENDBRANCH   1  17
TORSDOF 8
