REMARK  Name = CHEMBL205994
REMARK  8 active torsions:
REMARK  status: ('A' for Active; 'I' for Inactive)
REMARK    1  A    between atoms: C_7  and  C_11
REMARK    2  A    between atoms: C_11  and  C_12
REMARK    3  A    between atoms: C_12  and  C_14
REMARK    4  A    between atoms: C_12  and  N_33
REMARK    5  A    between atoms: C_14  and  N_15
REMARK    6  A    between atoms: N_15  and  C_16
REMARK    7  A    between atoms: C_18  and  N_22
REMARK    8  A    between atoms: N_22  and  C_23
REMARK                            x       y       z     vdW  Elec       q    Type
REMARK                         _______ _______ _______ _____ _____    ______ ____
ROOT
ATOM      1  N   UNL     1      -2.277  -5.153  -2.083  0.00  0.00    -0.344 N 
ATOM      2  H   UNL     1      -2.170  -4.375  -2.652  0.00  0.00    +0.146 HD
ENDROOT
BRANCH   1   3
ATOM      3  C   UNL     1      -2.718  -6.361  -2.627  0.00  0.00    +0.047 A 
ATOM      4  C   UNL     1      -2.999  -6.462  -3.986  0.00  0.00    +0.049 A 
ATOM      5  C   UNL     1      -3.436  -7.687  -4.481  0.00  0.00    +0.051 A 
ATOM      6  C   UNL     1      -3.574  -8.759  -3.606  0.00  0.00    +0.134 A 
ATOM      7  N   UNL     1      -3.297  -8.624  -2.325  0.00  0.00    -0.260 NA
ATOM      8  C   UNL     1      -2.876  -7.481  -1.820  0.00  0.00    +0.133 A 
BRANCH   5   9
ATOM      9  N   UNL     1      -3.731  -7.838  -5.838  0.00  0.00    -0.313 N 
ATOM     10  H   UNL     1      -4.218  -7.143  -6.309  0.00  0.00    +0.152 HD
BRANCH   9  11
ATOM     11  C   UNL     1      -3.328  -8.987  -6.516  0.00  0.00    +0.039 A 
ATOM     12  C   UNL     1      -2.503  -9.907  -5.900  0.00  0.00    +0.024 A 
ATOM     13  C   UNL     1      -2.095 -11.057  -6.569  0.00  0.00    +0.002 A 
ATOM     14  C   UNL     1      -2.495 -11.310  -7.847  0.00  0.00    +0.010 A 
ATOM     15  C   UNL     1      -3.334 -10.399  -8.508  0.00  0.00    +0.002 A 
ATOM     16  C   UNL     1      -3.761  -9.226  -7.834  0.00  0.00    +0.006 A 
ATOM     17  C   UNL     1      -4.605  -8.335  -8.518  0.00  0.00    +0.030 A 
ATOM     18  C   UNL     1      -4.980  -8.638  -9.793  0.00  0.00    +0.111 A 
ATOM     19  N   UNL     1      -4.571  -9.744 -10.399  0.00  0.00    -0.263 NA
ATOM     20  C   UNL     1      -3.773 -10.614  -9.825  0.00  0.00    +0.119 A 
ENDBRANCH   9  11
ENDBRANCH   5   9
ENDBRANCH   1   3
BRANCH   1  21
ATOM     21  C   UNL     1      -1.978  -5.060  -0.651  0.00  0.00    +0.086 C 
BRANCH  21  22
ATOM     22  C   UNL     1      -1.519  -3.639  -0.318  0.00  0.00    -0.053 C 
BRANCH  22  23
ATOM     23  N   UNL     1      -2.534  -2.678  -0.767  0.00  0.00    +0.381 N 
ATOM     24  H   UNL     1      -2.231  -1.741  -0.547  0.00  0.00    -0.090 HD
ATOM     25  H   UNL     1      -2.662  -2.764  -1.765  0.00  0.00    -0.090 HD
ATOM     26  H   UNL     1      -3.408  -2.867  -0.299  0.00  0.00    -0.090 HD
ENDBRANCH  22  23
BRANCH  22  27
ATOM     27  C   UNL     1      -1.326  -3.507   1.194  0.00  0.00    +0.022 C 
BRANCH  27  34
ATOM     28  C   UNL     1      -3.269   0.705   1.872  0.00  0.00    +0.001 A 
ATOM     29  C   UNL     1      -2.334   1.694   2.147  0.00  0.00    +0.002 A 
ATOM     30  C   UNL     1      -0.990   1.395   2.199  0.00  0.00    +0.026 A 
ATOM     31  C   UNL     1      -0.563   0.090   1.974  0.00  0.00    +0.047 A 
ATOM     32  C   UNL     1      -1.514  -0.908   1.696  0.00  0.00    +0.003 A 
ATOM     33  C   UNL     1      -2.871  -0.583   1.648  0.00  0.00    +0.010 A 
ATOM     34  C   UNL     1      -0.757  -2.149   1.512  0.00  0.00    -0.024 A 
ATOM     35  C   UNL     1       0.540  -1.845   1.680  0.00  0.00    +0.087 A 
ATOM     36  N   UNL     1       0.675  -0.512   1.957  0.00  0.00    -0.360 N 
ATOM     37  H   UNL     1       1.518  -0.059   2.117  0.00  0.00    +0.165 HD
ENDBRANCH  27  34
ENDBRANCH  22  27
ENDBRANCH  21  22
ENDBRANCH   1  21
TORSDOF 8
