REMARK  Name = CHEMBL512858
REMARK  7 active torsions:
REMARK  status: ('A' for Active; 'I' for Inactive)
REMARK    1  A    between atoms: C_4  and  C_7
REMARK    2  A    between atoms: C_7  and  C_8
REMARK    3  A    between atoms: C_7  and  N_10
REMARK    4  A    between atoms: C_8  and  N_9
REMARK    5  A    between atoms: C_11  and  C_13
REMARK    6  A    between atoms: C_15  and  C_28
REMARK    7  A    between atoms: C_16  and  C_18
REMARK                            x       y       z     vdW  Elec       q    Type
REMARK                         _______ _______ _______ _____ _____    ______ ____
ROOT
ATOM      1  C   UNL     1       4.714  -3.731   2.083  0.00  0.00    +0.075 A 
ATOM      2  C   UNL     1       5.710  -4.299   2.864  0.00  0.00    +0.025 A 
ATOM      3  C   UNL     1       5.355  -5.209   3.819  0.00  0.00    -0.029 A 
ATOM      4  C   UNL     1       4.014  -5.530   3.969  0.00  0.00    +0.024 A 
ATOM      5  S   UNL     1       3.241  -4.505   2.728  0.00  0.00    -0.083 S 
ENDROOT
BRANCH   4   6
ATOM      6  C   UNL     1       3.387  -6.471   4.916  0.00  0.00    +0.001 A 
ATOM      7  C   UNL     1       3.901  -7.757   5.105  0.00  0.00    +0.029 A 
ATOM      8  C   UNL     1       3.282  -8.606   6.003  0.00  0.00    +0.114 A 
ATOM      9  N   UNL     1       2.219  -8.237   6.686  0.00  0.00    -0.237 NA
ATOM     10  C   UNL     1       1.681  -7.032   6.554  0.00  0.00    +0.139 A 
ATOM     11  C   UNL     1       2.252  -6.102   5.665  0.00  0.00    +0.027 A 
ATOM     12  C   UNL     1       1.440  -4.892   5.760  0.00  0.00    +0.029 A 
ATOM     13  C   UNL     1       0.473  -5.140   6.660  0.00  0.00    +0.085 A 
ATOM     14  N   UNL     1       0.598  -6.416   7.137  0.00  0.00    -0.346 N 
ATOM     15  H   UNL     1       0.016  -6.823   7.798  0.00  0.00    +0.167 HD
ENDBRANCH   4   6
BRANCH   1  17
ATOM     16  N   UNL     1       3.739  -2.305   0.363  0.00  0.00    -0.306 N 
ATOM     17  C   UNL     1       4.839  -2.743   1.007  0.00  0.00    +0.251 C 
ATOM     18  O   UNL     1       5.936  -2.318   0.696  0.00  0.00    -0.270 OA
ATOM     19  H   UNL     1       2.865  -2.643   0.611  0.00  0.00    +0.150 HD
BRANCH  16  20
ATOM     20  C   UNL     1       3.864  -1.317  -0.712  0.00  0.00    +0.086 C 
BRANCH  20  24
ATOM     21  C   UNL     1       0.202   0.848  -1.091  0.00  0.00    +0.000 A 
ATOM     22  C   UNL     1       1.411   1.509  -1.207  0.00  0.00    +0.000 A 
ATOM     23  C   UNL     1       2.596   0.808  -1.084  0.00  0.00    +0.005 A 
ATOM     24  C   UNL     1       2.572  -0.553  -0.845  0.00  0.00    -0.029 A 
ATOM     25  C   UNL     1       1.363  -1.214  -0.729  0.00  0.00    +0.005 A 
ATOM     26  C   UNL     1       0.178  -0.513  -0.853  0.00  0.00    +0.000 A 
ENDBRANCH  20  24
BRANCH  20  27
ATOM     27  C   UNL     1       4.171  -2.034  -2.029  0.00  0.00    -0.059 C 
BRANCH  27  28
ATOM     28  N   UNL     1       5.365  -2.873  -1.863  0.00  0.00    +0.380 N 
ATOM     29  H   UNL     1       5.568  -3.345  -2.732  0.00  0.00    -0.090 HD
ATOM     30  H   UNL     1       6.150  -2.294  -1.604  0.00  0.00    -0.090 HD
ATOM     31  H   UNL     1       5.198  -3.556  -1.140  0.00  0.00    -0.090 HD
ENDBRANCH  27  28
ENDBRANCH  20  27
ENDBRANCH  16  20
ENDBRANCH   1  17
BRANCH   3  32
ATOM     32  C   UNL     1       6.401  -5.854   4.692  0.00  0.00    +0.020 C 
ATOM     33  C   UNL     1       7.796  -5.226   4.703  0.00  0.00    +0.009 C 
ATOM     34  C   UNL     1       7.564  -6.562   3.995  0.00  0.00    +0.009 C 
ENDBRANCH   3  32
TORSDOF 7
