REMARK  Name = CHEMBL415220
REMARK  12 active torsions:
REMARK  status: ('A' for Active; 'I' for Inactive)
REMARK    1  A    between atoms: C_1  and  C_2
REMARK    2  A    between atoms: C_5  and  C_12
REMARK    3  A    between atoms: C_14  and  O_18
REMARK    4  A    between atoms: O_18  and  C_19
REMARK    5  A    between atoms: C_19  and  C_20
REMARK    6  A    between atoms: C_20  and  C_22
REMARK    7  A    between atoms: C_20  and  N_38
REMARK    8  A    between atoms: C_22  and  C_23
REMARK    9  A    between atoms: C_27  and  O_29
REMARK   10  A    between atoms: O_29  and  C_30
REMARK   11  A    between atoms: C_30  and  C_31
REMARK   12  A    between atoms: C_31  and  N_32
REMARK                            x       y       z     vdW  Elec       q    Type
REMARK                         _______ _______ _______ _____ _____    ______ ____
ROOT
ATOM      1  C   UNL     1      -0.054  -4.432 -10.008  0.00  0.00    -0.033 C 
ENDROOT
BRANCH   1   2
ATOM      2  N   UNL     1      -1.270  -5.239  -9.840  0.00  0.00    +0.382 N 
ATOM      3  H   UNL     1      -1.252  -6.013 -10.486  0.00  0.00    -0.089 HD
ATOM      4  H   UNL     1      -1.313  -5.590  -8.895  0.00  0.00    -0.089 HD
ATOM      5  H   UNL     1      -2.081  -4.667 -10.023  0.00  0.00    -0.089 HD
ENDBRANCH   1   2
BRANCH   1   6
ATOM      6  C   UNL     1      -0.082  -3.257  -9.029  0.00  0.00    +0.213 C 
BRANCH   6   7
ATOM      7  O   UNL     1      -0.025  -3.752  -7.689  0.00  0.00    -0.492 OA
BRANCH   7  10
ATOM      8  C   UNL     1      -0.006  -2.250  -4.371  0.00  0.00    +0.004 A 
ATOM      9  C   UNL     1       0.012  -3.234  -5.362  0.00  0.00    +0.057 A 
ATOM     10  C   UNL     1      -0.041  -2.831  -6.690  0.00  0.00    +0.139 A 
ATOM     11  C   UNL     1      -0.109  -1.476  -6.984  0.00  0.00    +0.156 A 
ATOM     12  N   UNL     1      -0.125  -0.574  -6.022  0.00  0.00    -0.259 NA
ATOM     13  C   UNL     1      -0.082  -0.912  -4.750  0.00  0.00    +0.119 A 
BRANCH   8  18
ATOM     14  C   UNL     1      -0.004   0.248   0.774  0.00  0.00    +0.068 C 
ATOM     15  C   UNL     1       0.067  -1.251   0.638  0.00  0.00    +0.067 A 
ATOM     16  C   UNL     1       0.074  -2.002  -0.614  0.00  0.00    +0.023 A 
ATOM     17  C   UNL     1       0.023  -1.639  -1.963  0.00  0.00    +0.020 A 
ATOM     18  C   UNL     1       0.048  -2.625  -2.936  0.00  0.00    -0.016 A 
ATOM     19  C   UNL     1       0.123  -3.974  -2.569  0.00  0.00    +0.010 A 
ATOM     20  C   UNL     1       0.173  -4.337  -1.256  0.00  0.00    +0.028 A 
ATOM     21  C   UNL     1       0.149  -3.363  -0.259  0.00  0.00    +0.066 A 
ATOM     22  N   UNL     1       0.184  -3.412   1.110  0.00  0.00    -0.277 N 
ATOM     23  H   UNL     1       0.237  -4.220   1.643  0.00  0.00    +0.189 HD
ATOM     24  N   UNL     1       0.138  -2.108   1.615  0.00  0.00    -0.178 NA
ENDBRANCH   8  18
ENDBRANCH   7  10
ENDBRANCH   6   7
ENDBRANCH   1   6
BRANCH   1  25
ATOM     25  C   UNL     1       0.010  -3.900 -11.441  0.00  0.00    +0.022 C 
BRANCH  25  26
ATOM     26  C   UNL     1       0.161  -5.053 -12.399  0.00  0.00    -0.045 A 
ATOM     27  C   UNL     1       1.422  -5.500 -12.749  0.00  0.00    +0.004 A 
ATOM     28  C   UNL     1       1.564  -6.558 -13.628  0.00  0.00    +0.004 A 
ATOM     29  C   UNL     1       0.446  -7.171 -14.159  0.00  0.00    +0.045 A 
ATOM     30  C   UNL     1      -0.820  -6.724 -13.810  0.00  0.00    +0.121 A 
ATOM     31  C   UNL     1      -0.960  -5.666 -12.923  0.00  0.00    +0.049 A 
BRANCH  30  32
ATOM     32  O   UNL     1      -1.922  -7.325 -14.332  0.00  0.00    -0.491 OA
BRANCH  32  33
ATOM     33  C   UNL     1      -1.702  -8.412 -15.233  0.00  0.00    +0.244 C 
BRANCH  33  34
ATOM     34  C   UNL     1      -3.049  -8.957 -15.713  0.00  0.00    +0.125 C 
BRANCH  34  35
ATOM     35  N   UNL     1      -3.740  -7.930 -16.504  0.00  0.00    -0.295 NA
ATOM     36  C   UNL     1      -5.180  -8.213 -16.593  0.00  0.00    +0.112 C 
ATOM     37  C   UNL     1      -5.867  -7.090 -17.374  0.00  0.00    +0.175 C 
ATOM     38  O   UNL     1      -5.259  -6.970 -18.662  0.00  0.00    -0.377 OA
ATOM     39  C   UNL     1      -3.856  -6.694 -18.613  0.00  0.00    +0.175 C 
ATOM     40  C   UNL     1      -3.148  -7.813 -17.845  0.00  0.00    +0.112 C 
ENDBRANCH  34  35
ENDBRANCH  33  34
ENDBRANCH  32  33
ENDBRANCH  30  32
ENDBRANCH  25  26
ENDBRANCH   1  25
TORSDOF 11
