REMARK  Name = CHEMBL226849
REMARK  8 active torsions:
REMARK  status: ('A' for Active; 'I' for Inactive)
REMARK    1  A    between atoms: C_4  and  C_7
REMARK    2  A    between atoms: C_7  and  C_8
REMARK    3  A    between atoms: C_8  and  C_10
REMARK    4  A    between atoms: C_8  and  N_34
REMARK    5  A    between atoms: C_10  and  O_11
REMARK    6  A    between atoms: O_11  and  C_12
REMARK    7  A    between atoms: C_14  and  C_18
REMARK    8  A    between atoms: C_25  and  C_26
REMARK                            x       y       z     vdW  Elec       q    Type
REMARK                         _______ _______ _______ _____ _____    ______ ____
ROOT
ATOM      1  C   UNL     1       8.178  -1.557   2.907  0.00  0.00    +0.139 A 
ATOM      2  C   UNL     1       8.446  -2.063   4.172  0.00  0.00    +0.057 A 
ATOM      3  C   UNL     1       9.380  -3.095   4.288  0.00  0.00    +0.004 A 
ATOM      4  C   UNL     1      10.004  -3.573   3.137  0.00  0.00    +0.119 A 
ATOM      5  N   UNL     1       9.720  -3.063   1.956  0.00  0.00    -0.259 NA
ATOM      6  C   UNL     1       8.838  -2.092   1.810  0.00  0.00    +0.156 A 
ENDROOT
BRANCH   3   7
ATOM      7  C   UNL     1       9.705  -3.672   5.615  0.00  0.00    -0.016 A 
ATOM      8  C   UNL     1       9.071  -3.190   6.762  0.00  0.00    +0.010 A 
ATOM      9  C   UNL     1       9.366  -3.719   7.999  0.00  0.00    +0.024 A 
ATOM     10  C   UNL     1      10.300  -4.743   8.120  0.00  0.00    +0.042 A 
ATOM     11  C   UNL     1      10.938  -5.229   6.969  0.00  0.00    +0.009 A 
ATOM     12  C   UNL     1      10.637  -4.699   5.720  0.00  0.00    +0.019 A 
ATOM     13  C   UNL     1      11.859  -6.295   7.421  0.00  0.00    +0.049 C 
ATOM     14  C   UNL     1      12.701  -7.065   6.642  0.00  0.00    +0.060 C 
ATOM     15  C   UNL     1      11.684  -6.358   8.878  0.00  0.00    +0.249 C 
ATOM     16  O   UNL     1      12.266  -7.113   9.637  0.00  0.00    -0.270 OA
ATOM     17  N   UNL     1      10.770  -5.438   9.228  0.00  0.00    -0.281 N 
ATOM     18  H   UNL     1      10.476  -5.277  10.138  0.00  0.00    +0.155 HD
BRANCH  14  19
ATOM     19  C   UNL     1      12.599  -7.020   5.237  0.00  0.00    +0.128 A 
ATOM     20  C   UNL     1      13.649  -7.106   4.340  0.00  0.00    +0.049 A 
ATOM     21  C   UNL     1      13.086  -7.017   3.059  0.00  0.00    +0.042 A 
ATOM     22  C   UNL     1      11.749  -6.882   3.217  0.00  0.00    +0.195 A 
ATOM     23  O   UNL     1      11.460  -6.889   4.526  0.00  0.00    -0.464 OA
ENDBRANCH  14  19
ENDBRANCH   3   7
BRANCH   1  24
ATOM     24  O   UNL     1       7.276  -0.553   2.744  0.00  0.00    -0.492 OA
BRANCH  24  25
ATOM     25  C   UNL     1       7.052  -0.092   1.410  0.00  0.00    +0.213 C 
BRANCH  25  26
ATOM     26  C   UNL     1       6.013   1.030   1.426  0.00  0.00    -0.033 C 
BRANCH  26  27
ATOM     27  N   UNL     1       6.553   2.188   2.152  0.00  0.00    +0.382 N 
ATOM     28  H   UNL     1       5.868   2.928   2.163  0.00  0.00    -0.089 HD
ATOM     29  H   UNL     1       6.772   1.918   3.099  0.00  0.00    -0.089 HD
ATOM     30  H   UNL     1       7.391   2.511   1.692  0.00  0.00    -0.089 HD
ENDBRANCH  26  27
BRANCH  26  31
ATOM     31  C   UNL     1       5.681   1.439  -0.010  0.00  0.00    +0.022 C 
BRANCH  31  35
ATOM     32  C   UNL     1       2.531   4.325   0.019  0.00  0.00    +0.000 A 
ATOM     33  C   UNL     1       3.849   4.739   0.079  0.00  0.00    +0.000 A 
ATOM     34  C   UNL     1       4.868   3.805   0.070  0.00  0.00    +0.003 A 
ATOM     35  C   UNL     1       4.570   2.457   0.001  0.00  0.00    -0.049 A 
ATOM     36  C   UNL     1       3.252   2.043  -0.059  0.00  0.00    +0.003 A 
ATOM     37  C   UNL     1       2.233   2.977  -0.051  0.00  0.00    +0.000 A 
ENDBRANCH  31  35
ENDBRANCH  26  31
ENDBRANCH  25  26
ENDBRANCH  24  25
ENDBRANCH   1  24
TORSDOF 8
