REMARK  Name = CHEMBL469357
REMARK  7 active torsions:
REMARK  status: ('A' for Active; 'I' for Inactive)
REMARK    1  A    between atoms: C_4  and  C_7
REMARK    2  A    between atoms: C_7  and  C_8
REMARK    3  A    between atoms: C_7  and  N_10
REMARK    4  A    between atoms: C_8  and  N_9
REMARK    5  A    between atoms: C_11  and  C_13
REMARK    6  A    between atoms: C_15  and  C_28
REMARK    7  A    between atoms: C_16  and  C_18
REMARK                            x       y       z     vdW  Elec       q    Type
REMARK                         _______ _______ _______ _____ _____    ______ ____
ROOT
ATOM      1  C   UNL     1       4.492  -3.499  -2.427  0.00  0.00    +0.075 A 
ATOM      2  C   UNL     1       5.588  -4.196  -2.904  0.00  0.00    +0.030 A 
ATOM      3  C   UNL     1       5.376  -5.297  -3.704  0.00  0.00    -0.001 A 
ATOM      4  C   UNL     1       4.057  -5.656  -3.996  0.00  0.00    +0.029 A 
ATOM      5  S   UNL     1       3.124  -4.417  -3.113  0.00  0.00    -0.083 S 
ENDROOT
BRANCH   4   6
ATOM      6  C   UNL     1       3.563  -6.775  -4.816  0.00  0.00    +0.001 A 
ATOM      7  C   UNL     1       4.103  -7.040  -6.079  0.00  0.00    +0.029 A 
ATOM      8  C   UNL     1       3.610  -8.100  -6.815  0.00  0.00    +0.114 A 
ATOM      9  N   UNL     1       2.643  -8.870  -6.360  0.00  0.00    -0.237 NA
ATOM     10  C   UNL     1       2.087  -8.674  -5.171  0.00  0.00    +0.139 A 
ATOM     11  C   UNL     1       2.533  -7.620  -4.353  0.00  0.00    +0.027 A 
ATOM     12  C   UNL     1       1.736  -7.683  -3.132  0.00  0.00    +0.029 A 
ATOM     13  C   UNL     1       0.895  -8.723  -3.267  0.00  0.00    +0.085 A 
ATOM     14  N   UNL     1       1.086  -9.320  -4.484  0.00  0.00    -0.346 N 
ATOM     15  H   UNL     1       0.597 -10.092  -4.808  0.00  0.00    +0.167 HD
ENDBRANCH   4   6
BRANCH   3  16
ATOM     16  C   UNL     1       6.514  -6.078  -4.242  0.00  0.00    +0.001 A 
ATOM     17  C   UNL     1       7.516  -5.452  -4.991  0.00  0.00    +0.011 A 
ATOM     18  C   UNL     1       8.558  -6.226  -5.471  0.00  0.00    +0.020 A 
ATOM     19  C   UNL     1       8.575  -7.581  -5.197  0.00  0.00    +0.111 A 
ATOM     20  N   UNL     1       7.617  -8.145  -4.488  0.00  0.00    -0.263 NA
ATOM     21  C   UNL     1       6.608  -7.449  -4.005  0.00  0.00    +0.119 A 
ENDBRANCH   3  16
BRANCH   1  23
ATOM     22  N   UNL     1       3.282  -1.774  -1.201  0.00  0.00    -0.306 N 
ATOM     23  C   UNL     1       4.463  -2.311  -1.568  0.00  0.00    +0.251 C 
ATOM     24  O   UNL     1       5.504  -1.809  -1.187  0.00  0.00    -0.270 OA
ATOM     25  H   UNL     1       2.452  -2.174  -1.505  0.00  0.00    +0.150 HD
BRANCH  22  26
ATOM     26  C   UNL     1       3.252  -0.587  -0.344  0.00  0.00    +0.086 C 
BRANCH  26  30
ATOM     27  C   UNL     1      -0.401   1.534  -0.978  0.00  0.00    +0.000 A 
ATOM     28  C   UNL     1       0.782   2.230  -0.814  0.00  0.00    +0.000 A 
ATOM     29  C   UNL     1       1.965   1.543  -0.609  0.00  0.00    +0.005 A 
ATOM     30  C   UNL     1       1.963   0.162  -0.567  0.00  0.00    -0.029 A 
ATOM     31  C   UNL     1       0.780  -0.534  -0.729  0.00  0.00    +0.005 A 
ATOM     32  C   UNL     1      -0.402   0.153  -0.935  0.00  0.00    +0.000 A 
ENDBRANCH  26  30
BRANCH  26  33
ATOM     33  C   UNL     1       3.347  -1.014   1.122  0.00  0.00    -0.059 C 
BRANCH  33  34
ATOM     34  N   UNL     1       4.543  -1.845   1.314  0.00  0.00    +0.380 N 
ATOM     35  H   UNL     1       4.481  -2.664   0.728  0.00  0.00    -0.090 HD
ATOM     36  H   UNL     1       5.365  -1.315   1.064  0.00  0.00    -0.090 HD
ATOM     37  H   UNL     1       4.606  -2.126   2.281  0.00  0.00    -0.090 HD
ENDBRANCH  33  34
ENDBRANCH  26  33
ENDBRANCH  22  26
ENDBRANCH   1  23
TORSDOF 7
