REMARK  Name = CHEMBL211434
REMARK  7 active torsions:
REMARK  status: ('A' for Active; 'I' for Inactive)
REMARK    1  A    between atoms: C_7  and  C_11
REMARK    2  A    between atoms: C_11  and  C_12
REMARK    3  A    between atoms: C_12  and  C_14
REMARK    4  A    between atoms: C_12  and  N_32
REMARK    5  A    between atoms: C_14  and  O_15
REMARK    6  A    between atoms: O_15  and  C_16
REMARK    7  A    between atoms: C_18  and  C_22
REMARK                            x       y       z     vdW  Elec       q    Type
REMARK                         _______ _______ _______ _____ _____    ______ ____
ROOT
ATOM      1  C   UNL     1       0.236  -3.589  -1.455  0.00  0.00    +0.113 C 
ENDROOT
BRANCH   1   2
ATOM      2  N   UNL     1      -0.550  -2.472  -1.985  0.00  0.00    -0.323 N 
ATOM      3  C   UNL     1       0.093  -1.380  -2.558  0.00  0.00    +0.121 A 
ATOM      4  C   UNL     1       1.481  -1.363  -2.628  0.00  0.00    +0.044 A 
ATOM      5  C   UNL     1       2.108  -0.268  -3.202  0.00  0.00    +0.011 A 
ATOM      6  C   UNL     1       1.323   0.761  -3.681  0.00  0.00    +0.002 A 
ATOM      7  C   UNL     1      -0.061   0.693  -3.586  0.00  0.00    +0.131 A 
ATOM      8  N   UNL     1      -0.627  -0.378  -3.032  0.00  0.00    -0.217 NA
ATOM      9  N   UNL     1      -0.635   1.837  -4.131  0.00  0.00    -0.270 N 
ATOM     10  C   UNL     1       0.283   2.697  -4.601  0.00  0.00    +0.223 C 
ATOM     11  O   UNL     1       0.066   3.768  -5.126  0.00  0.00    -0.275 OA
ATOM     12  C   UNL     1       1.642   2.076  -4.351  0.00  0.00    +0.134 C 
ATOM     13  H   UNL     1      -1.518  -2.494  -1.936  0.00  0.00    +0.148 HD
ATOM     14  H   UNL     1      -1.592   1.995  -4.168  0.00  0.00    +0.156 HD
ENDBRANCH   1   2
BRANCH   1  15
ATOM     15  C   UNL     1       0.666  -3.275  -0.021  0.00  0.00    +0.062 C 
BRANCH  15  22
ATOM     16  C   UNL     1      -0.017   1.362   0.009  0.00  0.00    +0.001 A 
ATOM     17  C   UNL     1       1.170   2.083   0.002  0.00  0.00    +0.002 A 
ATOM     18  C   UNL     1       2.386   1.436  -0.013  0.00  0.00    +0.026 A 
ATOM     19  C   UNL     1       2.428   0.046  -0.021  0.00  0.00    +0.047 A 
ATOM     20  C   UNL     1       1.223  -0.681  -0.013  0.00  0.00    +0.003 A 
ATOM     21  C   UNL     1       0.002  -0.004   0.002  0.00  0.00    +0.010 A 
ATOM     22  C   UNL     1       1.604  -2.095  -0.025  0.00  0.00    -0.021 A 
ATOM     23  C   UNL     1       2.945  -2.141  -0.038  0.00  0.00    +0.087 A 
ATOM     24  N   UNL     1       3.455  -0.871  -0.036  0.00  0.00    -0.360 N 
ATOM     25  H   UNL     1       4.399  -0.650  -0.044  0.00  0.00    +0.165 HD
ENDBRANCH  15  22
ENDBRANCH   1  15
BRANCH   1  26
ATOM     26  C   UNL     1      -0.614  -4.861  -1.466  0.00  0.00    +0.251 C 
BRANCH  26  27
ATOM     27  O   UNL     1      -1.711  -4.708  -0.563  0.00  0.00    -0.489 OA
BRANCH  27  28
ATOM     28  C   UNL     1      -2.570  -5.756  -0.452  0.00  0.00    +0.139 A 
ATOM     29  C   UNL     1      -3.664  -5.682   0.401  0.00  0.00    +0.058 A 
ATOM     30  C   UNL     1      -4.517  -6.784   0.480  0.00  0.00    +0.022 A 
ATOM     31  C   UNL     1      -4.241  -7.909  -0.296  0.00  0.00    +0.121 A 
ATOM     32  N   UNL     1      -3.192  -7.936  -1.092  0.00  0.00    -0.259 NA
ATOM     33  C   UNL     1      -2.368  -6.911  -1.195  0.00  0.00    +0.156 A 
BRANCH  30  34
ATOM     34  C   UNL     1      -5.700  -6.759   1.375  0.00  0.00    +0.075 A 
ATOM     35  C   UNL     1      -6.533  -7.872   1.441  0.00  0.00    +0.029 A 
ATOM     36  C   UNL     1      -7.635  -7.833   2.284  0.00  0.00    +0.009 A 
ATOM     37  C   UNL     1      -7.856  -6.689   3.021  0.00  0.00    +0.002 A 
ATOM     38  C   UNL     1      -6.991  -5.604   2.918  0.00  0.00    +0.129 A 
ATOM     39  N   UNL     1      -5.943  -5.680   2.104  0.00  0.00    -0.232 NA
ATOM     40  N   UNL     1      -7.416  -4.574   3.750  0.00  0.00    -0.270 N 
ATOM     41  C   UNL     1      -8.532  -4.889   4.428  0.00  0.00    +0.223 C 
ATOM     42  O   UNL     1      -9.119  -4.182   5.219  0.00  0.00    -0.275 OA
ATOM     43  C   UNL     1      -8.922  -6.293   4.016  0.00  0.00    +0.134 C 
ATOM     44  H   UNL     1      -6.956  -3.723   3.833  0.00  0.00    +0.156 HD
ENDBRANCH  30  34
ENDBRANCH  27  28
ENDBRANCH  26  27
ENDBRANCH   1  26
TORSDOF 7
