REMARK  Name = CHEMBL428963
REMARK  3 active torsions:
REMARK  status: ('A' for Active; 'I' for Inactive)
REMARK    1  A    between atoms: C_1  and  C_2
REMARK    2  A    between atoms: C_5  and  C_8
REMARK    3  A    between atoms: C_13  and  N_14
REMARK                            x       y       z     vdW  Elec       q    Type
REMARK                         _______ _______ _______ _____ _____    ______ ____
ROOT
ATOM      1  C   UNL     1      -3.888   2.590  -3.054  0.00  0.00    +0.040 A 
ATOM      2  C   UNL     1      -4.171   2.916  -4.381  0.00  0.00    +0.013 A 
ATOM      3  C   UNL     1      -5.474   2.895  -4.832  0.00  0.00    +0.001 A 
ATOM      4  C   UNL     1      -6.505   2.551  -3.974  0.00  0.00    +0.002 A 
ATOM      5  C   UNL     1      -6.239   2.226  -2.658  0.00  0.00    +0.024 A 
ATOM      6  C   UNL     1      -4.933   2.237  -2.189  0.00  0.00    +0.043 A 
ENDROOT
BRANCH   6   7
ATOM      7  N   UNL     1      -4.662   1.903  -0.863  0.00  0.00    -0.298 N 
ATOM      8  C   UNL     1      -5.588   2.187   0.125  0.00  0.00    +0.135 A 
ATOM      9  C   UNL     1      -5.390   1.750   1.444  0.00  0.00    +0.059 A 
ATOM     10  C   UNL     1      -4.352   0.991   2.139  0.00  0.00    +0.032 A 
ATOM     11  C   UNL     1      -4.735   0.894   3.422  0.00  0.00    +0.085 A 
ATOM     12  N   UNL     1      -5.936   1.531   3.598  0.00  0.00    -0.346 N 
ATOM     13  H   UNL     1      -6.413   1.596   4.440  0.00  0.00    +0.167 HD
ATOM     14  C   UNL     1      -6.362   2.063   2.412  0.00  0.00    +0.143 A 
ATOM     15  N   UNL     1      -7.432   2.762   2.037  0.00  0.00    -0.218 NA
ATOM     16  C   UNL     1      -7.577   3.150   0.789  0.00  0.00    +0.225 A 
ATOM     17  N   UNL     1      -6.687   2.884  -0.150  0.00  0.00    -0.220 NA
ATOM     18  H   UNL     1      -3.823   1.473  -0.633  0.00  0.00    +0.154 HD
ENDBRANCH   6   7
BRANCH   1  23
ATOM     19  C   UNL     1       0.036   2.374   0.015  0.00  0.00    +0.090 C 
ATOM     20  C   UNL     1      -0.779   2.519  -1.244  0.00  0.00    +0.148 A 
ATOM     21  N   UNL     1      -2.105   2.436  -1.318  0.00  0.00    -0.212 NA
ATOM     22  H   UNL     1      -1.355   2.971  -4.275  0.00  0.00    +0.191 HD
ATOM     23  C   UNL     1      -2.494   2.611  -2.566  0.00  0.00    +0.158 A 
ATOM     24  N   UNL     1      -1.387   2.813  -3.318  0.00  0.00    -0.258 N 
ATOM     25  N   UNL     1      -0.296   2.753  -2.437  0.00  0.00    -0.157 NA
ENDBRANCH   1  23
TORSDOF 2
