REMARK  Name = CHEMBL375486
REMARK  9 active torsions:
REMARK  status: ('A' for Active; 'I' for Inactive)
REMARK    1  A    between atoms: C_1  and  N_2
REMARK    2  A    between atoms: C_6  and  C_7
REMARK    3  A    between atoms: C_10  and  C_17
REMARK    4  A    between atoms: C_19  and  O_23
REMARK    5  A    between atoms: O_23  and  C_24
REMARK    6  A    between atoms: C_24  and  C_25
REMARK    7  A    between atoms: C_25  and  C_27
REMARK    8  A    between atoms: C_25  and  N_34
REMARK    9  A    between atoms: C_27  and  C_28
REMARK                            x       y       z     vdW  Elec       q    Type
REMARK                         _______ _______ _______ _____ _____    ______ ____
ROOT
ATOM      1  C   UNL     1       1.822   4.513   2.410  0.00  0.00    +0.022 A 
ATOM      2  C   UNL     1       2.279   5.596   3.165  0.00  0.00    +0.058 A 
ATOM      3  C   UNL     1       2.657   6.753   2.495  0.00  0.00    +0.139 A 
ATOM      4  C   UNL     1       2.569   6.792   1.110  0.00  0.00    +0.156 A 
ATOM      5  N   UNL     1       2.134   5.750   0.429  0.00  0.00    -0.259 NA
ATOM      6  C   UNL     1       1.770   4.632   1.022  0.00  0.00    +0.121 A 
ENDROOT
BRANCH   1  10
ATOM      7  C   UNL     1       0.249  -0.351   2.505  0.00  0.00    +0.117 A 
ATOM      8  C   UNL     1       0.673   0.980   2.946  0.00  0.00    +0.032 A 
ATOM      9  C   UNL     1       1.061   2.155   2.300  0.00  0.00    +0.040 A 
ATOM     10  C   UNL     1       1.406   3.254   3.074  0.00  0.00    +0.073 A 
ATOM     11  N   UNL     1       1.369   3.195   4.404  0.00  0.00    -0.253 NA
ATOM     12  C   UNL     1       1.009   2.109   5.051  0.00  0.00    +0.139 A 
ATOM     13  C   UNL     1       0.647   0.959   4.356  0.00  0.00    +0.084 A 
ATOM     14  N   UNL     1       0.237  -0.295   4.726  0.00  0.00    -0.275 N 
ATOM     15  H   UNL     1       0.126  -0.602   5.639  0.00  0.00    +0.189 HD
ATOM     16  N   UNL     1      -0.001  -1.062   3.581  0.00  0.00    -0.171 NA
BRANCH   7  22
ATOM     17  C   UNL     1      -0.939   1.276   0.153  0.00  0.00    +0.149 C 
ATOM     18  N   UNL     1      -0.406  -0.086   0.066  0.00  0.00    -0.348 N 
ATOM     19  C   UNL     1      -0.346  -0.846  -1.065  0.00  0.00    +0.086 A 
ATOM     20  C   UNL     1       0.206  -2.038  -0.752  0.00  0.00    +0.020 A 
ATOM     21  C   UNL     1       0.502  -2.024   0.621  0.00  0.00    +0.029 A 
ATOM     22  C   UNL     1       0.121  -0.808   1.106  0.00  0.00    +0.070 A 
ENDBRANCH   7  22
ENDBRANCH   1  10
BRANCH   3  23
ATOM     23  O   UNL     1       3.107   7.833   3.187  0.00  0.00    -0.492 OA
BRANCH  23  24
ATOM     24  C   UNL     1       3.476   8.983   2.425  0.00  0.00    +0.213 C 
BRANCH  24  25
ATOM     25  C   UNL     1       3.954  10.089   3.369  0.00  0.00    -0.033 C 
BRANCH  25  26
ATOM     26  N   UNL     1       5.186   9.658   4.044  0.00  0.00    +0.382 N 
ATOM     27  H   UNL     1       5.899   9.472   3.355  0.00  0.00    -0.089 HD
ATOM     28  H   UNL     1       5.500  10.387   4.666  0.00  0.00    -0.089 HD
ATOM     29  H   UNL     1       5.003   8.819   4.574  0.00  0.00    -0.089 HD
ENDBRANCH  25  26
BRANCH  25  30
ATOM     30  C   UNL     1       4.231  11.361   2.566  0.00  0.00    +0.022 C 
BRANCH  30  31
ATOM     31  C   UNL     1       4.583  12.483   3.508  0.00  0.00    -0.049 A 
ATOM     32  C   UNL     1       3.587  13.294   4.019  0.00  0.00    +0.003 A 
ATOM     33  C   UNL     1       3.910  14.323   4.884  0.00  0.00    +0.000 A 
ATOM     34  C   UNL     1       5.228  14.542   5.237  0.00  0.00    +0.000 A 
ATOM     35  C   UNL     1       6.224  13.731   4.726  0.00  0.00    +0.000 A 
ATOM     36  C   UNL     1       5.901  12.699   3.865  0.00  0.00    +0.003 A 
ENDBRANCH  30  31
ENDBRANCH  25  30
ENDBRANCH  24  25
ENDBRANCH  23  24
ENDBRANCH   3  23
TORSDOF 8
