REMARK  Name = CHEMBL383527
REMARK  7 active torsions:
REMARK  status: ('A' for Active; 'I' for Inactive)
REMARK    1  A    between atoms: C_10  and  C_11
REMARK    2  A    between atoms: C_11  and  C_12
REMARK    3  A    between atoms: C_12  and  C_14
REMARK    4  A    between atoms: C_12  and  N_31
REMARK    5  A    between atoms: N_16  and  C_17
REMARK    6  A    between atoms: C_19  and  C_23
REMARK    7  A    between atoms: C_24  and  C_25
REMARK                            x       y       z     vdW  Elec       q    Type
REMARK                         _______ _______ _______ _____ _____    ______ ____
ROOT
ATOM      1  C   UNL     1       6.699   1.191   1.392  0.00  0.00    +0.234 C 
ATOM      2  O   UNL     1       6.779   2.399   1.459  0.00  0.00    -0.274 OA
ATOM      3  N   UNL     1       7.818   0.445   1.314  0.00  0.00    -0.283 N 
ATOM      4  H   UNL     1       7.758  -0.523   1.329  0.00  0.00    +0.155 HD
ENDROOT
BRANCH   3   5
ATOM      5  C   UNL     1       9.068   1.067   1.211  0.00  0.00    +0.052 A 
ATOM      6  C   UNL     1       9.315   2.264   1.872  0.00  0.00    +0.034 A 
ATOM      7  C   UNL     1      10.581   2.846   1.737  0.00  0.00    -0.005 A 
ATOM      8  C   UNL     1      11.539   2.204   0.947  0.00  0.00    +0.118 A 
ATOM      9  N   UNL     1      11.259   1.071   0.339  0.00  0.00    -0.261 NA
ATOM     10  C   UNL     1      10.079   0.492   0.450  0.00  0.00    +0.134 A 
BRANCH   7  11
ATOM     11  C   UNL     1      10.898   4.116   2.415  0.00  0.00    +0.010 C 
ATOM     12  C   UNL     1      12.116   4.665   2.278  0.00  0.00    +0.008 C 
BRANCH  12  13
ATOM     13  C   UNL     1      12.432   5.934   2.956  0.00  0.00    -0.022 A 
ATOM     14  C   UNL     1      11.479   6.582   3.754  0.00  0.00    +0.027 A 
ATOM     15  C   UNL     1      11.820   7.768   4.370  0.00  0.00    +0.111 A 
ATOM     16  N   UNL     1      13.021   8.292   4.216  0.00  0.00    -0.263 NA
ATOM     17  C   UNL     1      13.948   7.715   3.475  0.00  0.00    +0.111 A 
ATOM     18  C   UNL     1      13.697   6.524   2.826  0.00  0.00    +0.027 A 
ENDBRANCH  12  13
ENDBRANCH   7  11
ENDBRANCH   3   5
BRANCH   1  19
ATOM     19  C   UNL     1       5.348   0.524   1.397  0.00  0.00    +0.142 C 
BRANCH  19  20
ATOM     20  N   UNL     1       4.349   1.444   1.956  0.00  0.00    -0.320 NA
ATOM     21  H   UNL     1       4.290   2.290   1.409  0.00  0.00    +0.119 HD
ATOM     22  H   UNL     1       3.447   0.998   2.030  0.00  0.00    +0.119 HD
ENDBRANCH  19  20
BRANCH  19  23
ATOM     23  C   UNL     1       4.956   0.155  -0.035  0.00  0.00    +0.063 C 
BRANCH  23  33
ATOM     24  C   UNL     1      -0.021   1.349   0.033  0.00  0.00    +0.001 A 
ATOM     25  C   UNL     1       1.163   2.084   0.019  0.00  0.00    +0.001 A 
ATOM     26  C   UNL     1       2.374   1.461   0.002  0.00  0.00    +0.009 A 
ATOM     27  C   UNL     1       2.433   0.057  -0.001  0.00  0.00    -0.015 A 
ATOM     28  C   UNL     1       1.228  -0.690   0.014  0.00  0.00    -0.018 A 
ATOM     29  C   UNL     1      -0.002  -0.011   0.031  0.00  0.00    +0.008 A 
ATOM     30  C   UNL     1       1.288  -2.093   0.012  0.00  0.00    +0.008 A 
ATOM     31  C   UNL     1       2.498  -2.716  -0.005  0.00  0.00    +0.001 A 
ATOM     32  C   UNL     1       3.683  -1.982  -0.019  0.00  0.00    +0.004 A 
ATOM     33  C   UNL     1       3.664  -0.621  -0.018  0.00  0.00    -0.038 A 
ENDBRANCH  23  33
ENDBRANCH  19  23
ENDBRANCH   1  19
TORSDOF 7
