REMARK  Name = CHEMBL381328
REMARK  8 active torsions:
REMARK  status: ('A' for Active; 'I' for Inactive)
REMARK    1  A    between atoms: C_6  and  C_11
REMARK    2  A    between atoms: C_11  and  C_12
REMARK    3  A    between atoms: C_12  and  C_14
REMARK    4  A    between atoms: C_12  and  N_30
REMARK    5  A    between atoms: C_14  and  O_15
REMARK    6  A    between atoms: O_15  and  C_16
REMARK    7  A    between atoms: C_18  and  C_22
REMARK    8  A    between atoms: C_23  and  C_24
REMARK                            x       y       z     vdW  Elec       q    Type
REMARK                         _______ _______ _______ _____ _____    ______ ____
ROOT
ATOM      1  C   UNL     1       5.470  -2.953   1.377  0.00  0.00    -0.033 C 
ENDROOT
BRANCH   1   2
ATOM      2  N   UNL     1       5.739  -1.669   2.037  0.00  0.00    +0.382 N 
ATOM      3  H   UNL     1       6.461  -1.176   1.533  0.00  0.00    -0.089 HD
ATOM      4  H   UNL     1       4.897  -1.113   2.047  0.00  0.00    -0.089 HD
ATOM      5  H   UNL     1       6.043  -1.835   2.985  0.00  0.00    -0.089 HD
ENDBRANCH   1   2
BRANCH   1   6
ATOM      6  C   UNL     1       5.008  -2.700  -0.060  0.00  0.00    +0.022 C 
BRANCH   6  12
ATOM      7  C   UNL     1      -0.016   1.357   0.009  0.00  0.00    +0.001 A 
ATOM      8  C   UNL     1       1.169   2.091   0.002  0.00  0.00    +0.001 A 
ATOM      9  C   UNL     1       2.378   1.468  -0.013  0.00  0.00    +0.008 A 
ATOM     10  C   UNL     1       2.438   0.063  -0.021  0.00  0.00    -0.018 A 
ATOM     11  C   UNL     1       3.668  -0.615  -0.036  0.00  0.00    +0.012 A 
ATOM     12  C   UNL     1       3.687  -1.976  -0.043  0.00  0.00    -0.048 A 
ATOM     13  C   UNL     1       2.502  -2.710  -0.036  0.00  0.00    +0.004 A 
ATOM     14  C   UNL     1       1.292  -2.087  -0.021  0.00  0.00    +0.009 A 
ATOM     15  C   UNL     1       1.233  -0.683  -0.013  0.00  0.00    -0.018 A 
ATOM     16  C   UNL     1       0.002  -0.004   0.002  0.00  0.00    +0.008 A 
ENDBRANCH   6  12
ENDBRANCH   1   6
BRANCH   1  17
ATOM     17  C   UNL     1       6.746  -3.796   1.361  0.00  0.00    +0.213 C 
BRANCH  17  18
ATOM     18  O   UNL     1       7.112  -4.130   2.702  0.00  0.00    -0.492 OA
BRANCH  18  19
ATOM     19  C   UNL     1       8.233  -4.882   2.866  0.00  0.00    +0.139 A 
ATOM     20  C   UNL     1       8.650  -5.251   4.138  0.00  0.00    +0.056 A 
ATOM     21  C   UNL     1       9.811  -6.027   4.255  0.00  0.00    -0.003 A 
ATOM     22  C   UNL     1      10.497  -6.394   3.094  0.00  0.00    +0.118 A 
ATOM     23  N   UNL     1      10.062  -6.019   1.909  0.00  0.00    -0.259 NA
ATOM     24  C   UNL     1       8.970  -5.294   1.764  0.00  0.00    +0.156 A 
BRANCH  21  25
ATOM     25  C   UNL     1      10.300  -6.447   5.580  0.00  0.00    +0.010 C 
ATOM     26  C   UNL     1      11.414  -7.190   5.679  0.00  0.00    +0.008 C 
BRANCH  26  27
ATOM     27  C   UNL     1      11.903  -7.611   7.004  0.00  0.00    -0.022 A 
ATOM     28  C   UNL     1      11.218  -7.251   8.172  0.00  0.00    +0.027 A 
ATOM     29  C   UNL     1      11.713  -7.667   9.391  0.00  0.00    +0.111 A 
ATOM     30  N   UNL     1      12.813  -8.392   9.465  0.00  0.00    -0.263 NA
ATOM     31  C   UNL     1      13.489  -8.752   8.390  0.00  0.00    +0.111 A 
ATOM     32  C   UNL     1      13.064  -8.387   7.130  0.00  0.00    +0.027 A 
ENDBRANCH  26  27
ENDBRANCH  21  25
ENDBRANCH  18  19
ENDBRANCH  17  18
ENDBRANCH   1  17
TORSDOF 8
