REMARK  Name = CHEMBL517163
REMARK  9 active torsions:
REMARK  status: ('A' for Active; 'I' for Inactive)
REMARK    1  A    between atoms: C_1  and  N_2
REMARK    2  A    between atoms: N_2  and  C_3
REMARK    3  A    between atoms: N_2  and  C_4
REMARK    4  A    between atoms: C_4  and  C_5
REMARK    5  A    between atoms: C_13  and  N_18
REMARK    6  A    between atoms: C_14  and  O_16
REMARK    7  A    between atoms: O_16  and  C_17
REMARK    8  A    between atoms: C_27  and  N_29
REMARK    9  A    between atoms: N_29  and  C_30
REMARK                            x       y       z     vdW  Elec       q    Type
REMARK                         _______ _______ _______ _____ _____    ______ ____
ROOT
ATOM      1  N   UNL     1       7.223   1.589  -0.639  0.00  0.00    -0.281 N 
ATOM      2  C   UNL     1       6.846   1.632   0.693  0.00  0.00    +0.223 A 
ATOM      3  N   UNL     1       5.809   0.910   1.085  0.00  0.00    -0.196 NA
ATOM      4  C   UNL     1       5.414   0.923   2.357  0.00  0.00    +0.145 A 
ATOM      5  C   UNL     1       6.122   1.720   3.275  0.00  0.00    +0.059 A 
ATOM      6  C   UNL     1       5.467   1.534   4.569  0.00  0.00    +0.032 A 
ATOM      7  C   UNL     1       4.452   0.678   4.370  0.00  0.00    +0.085 A 
ATOM      8  N   UNL     1       4.410   0.305   3.050  0.00  0.00    -0.346 N 
ATOM      9  H   UNL     1       3.763  -0.307   2.664  0.00  0.00    +0.167 HD
ATOM     10  C   UNL     1       7.216   2.470   2.815  0.00  0.00    +0.137 A 
ATOM     11  N   UNL     1       7.542   2.392   1.529  0.00  0.00    -0.198 NA
ATOM     12  H   UNL     1       8.033   2.037  -0.929  0.00  0.00    +0.155 HD
ENDROOT
BRANCH   1  21
ATOM     13  C   UNL     1       2.098   0.080  -1.188  0.00  0.00    +0.203 C 
ATOM     14  O   UNL     1       2.528   0.698  -0.237  0.00  0.00    -0.277 OA
ATOM     15  N   UNL     1       2.925  -0.270  -2.193  0.00  0.00    -0.272 N 
ATOM     16  C   UNL     1       2.523  -1.009  -3.393  0.00  0.00    +0.118 C 
ATOM     17  C   UNL     1       3.808  -1.159  -4.223  0.00  0.00    +0.056 C 
ATOM     18  C   UNL     1       4.876  -0.471  -3.403  0.00  0.00    -0.021 A 
ATOM     19  C   UNL     1       4.293   0.024  -2.247  0.00  0.00    +0.041 A 
ATOM     20  C   UNL     1       5.085   0.711  -1.326  0.00  0.00    +0.050 A 
ATOM     21  C   UNL     1       6.435   0.898  -1.568  0.00  0.00    +0.078 A 
ATOM     22  C   UNL     1       7.009   0.400  -2.735  0.00  0.00    +0.142 A 
ATOM     23  C   UNL     1       6.225  -0.289  -3.645  0.00  0.00    +0.053 A 
BRANCH  22  24
ATOM     24  O   UNL     1       8.336   0.583  -2.976  0.00  0.00    -0.493 OA
ATOM     25  C   UNL     1       8.854   0.044  -4.194  0.00  0.00    +0.277 C 
ENDBRANCH  22  24
BRANCH  13  26
ATOM     26  C   UNL     1       0.640  -0.296  -1.246  0.00  0.00    +0.018 C 
BRANCH  26  28
ATOM     27  C   UNL     1      -0.019   1.666  -0.033  0.00  0.00    -0.096 C 
ATOM     28  N   UNL     1      -0.041   0.197  -0.042  0.00  0.00    +0.382 N 
ATOM     29  C   UNL     1      -1.433  -0.271  -0.040  0.00  0.00    -0.096 C 
ATOM     30  H   UNL     1       0.432  -0.151   0.779  0.00  0.00    -0.082 HD
ENDBRANCH  26  28
ENDBRANCH  13  26
ENDBRANCH   1  21
BRANCH  10  31
ATOM     31  N   UNL     1       7.942   3.269   3.683  0.00  0.00    -0.298 N 
ATOM     32  H   UNL     1       7.751   3.251   4.634  0.00  0.00    +0.154 HD
BRANCH  31  33
ATOM     33  C   UNL     1       8.945   4.096   3.192  0.00  0.00    +0.045 A 
ATOM     34  C   UNL     1       8.909   4.530   1.872  0.00  0.00    +0.024 A 
ATOM     35  C   UNL     1       9.904   5.352   1.383  0.00  0.00    +0.002 A 
ATOM     36  C   UNL     1      10.949   5.752   2.204  0.00  0.00    +0.006 A 
ATOM     37  C   UNL     1      10.999   5.331   3.511  0.00  0.00    -0.016 A 
ATOM     38  C   UNL     1       9.997   4.503   4.027  0.00  0.00    +0.062 A 
ATOM     39  C   UNL     1      10.308   4.224   5.438  0.00  0.00    +0.246 C 
ATOM     40  O   UNL     1       9.634   3.529   6.173  0.00  0.00    -0.270 OA
ATOM     41  N   UNL     1      11.443   4.848   5.798  0.00  0.00    -0.307 N 
ATOM     42  C   UNL     1      11.971   5.575   4.639  0.00  0.00    +0.140 C 
ATOM     43  H   UNL     1      11.851   4.815   6.678  0.00  0.00    +0.149 HD
ENDBRANCH  31  33
ENDBRANCH  10  31
TORSDOF 6
