REMARK  Name = CHEMBL1081105
REMARK  8 active torsions:
REMARK  status: ('A' for Active; 'I' for Inactive)
REMARK    1  A    between atoms: C_3  and  C_28
REMARK    2  A    between atoms: C_6  and  C_7
REMARK    3  A    between atoms: C_7  and  C_8
REMARK    4  A    between atoms: C_8  and  C_10
REMARK    5  A    between atoms: C_8  and  N_27
REMARK    6  A    between atoms: C_10  and  C_11
REMARK    7  A    between atoms: C_11  and  C_12
REMARK    8  A    between atoms: C_14  and  C_17
REMARK                            x       y       z     vdW  Elec       q    Type
REMARK                         _______ _______ _______ _____ _____    ______ ____
ROOT
ATOM      1  C   UNL     1      -2.991  -1.917  -1.423  0.00  0.00    -0.008 C 
ENDROOT
BRANCH   1   2
ATOM      2  C   UNL     1      -1.745  -1.028  -1.429  0.00  0.00    -0.070 C 
BRANCH   2   3
ATOM      3  N   UNL     1      -2.060   0.252  -2.076  0.00  0.00    +0.380 N 
ATOM      4  H   UNL     1      -1.238   0.838  -2.079  0.00  0.00    -0.090 HD
ATOM      5  H   UNL     1      -2.358   0.085  -3.025  0.00  0.00    -0.090 HD
ATOM      6  H   UNL     1      -2.799   0.713  -1.567  0.00  0.00    -0.090 HD
ENDBRANCH   2   3
BRANCH   2   7
ATOM      7  C   UNL     1      -1.293  -0.775   0.011  0.00  0.00    +0.019 C 
BRANCH   7  13
ATOM      8  C   UNL     1      -0.017   1.378   0.010  0.00  0.00    +0.004 A 
ATOM      9  C   UNL     1       1.171   2.086   0.002  0.00  0.00    +0.012 A 
ATOM     10  C   UNL     1       2.377   1.411  -0.013  0.00  0.00    +0.055 A 
ATOM     11  C   UNL     1       2.396   0.029  -0.020  0.00  0.00    +0.012 A 
ATOM     12  C   UNL     1       1.208  -0.679  -0.012  0.00  0.00    +0.004 A 
ATOM     13  C   UNL     1       0.002  -0.004   0.002  0.00  0.00    -0.049 A 
BRANCH  10  14
ATOM     14  C   UNL     1       3.672   2.182  -0.022  0.00  0.00    +0.417 C 
ATOM     15  F   UNL     1       4.086   2.414   1.294  0.00  0.00    -0.166 F 
ATOM     16  F   UNL     1       4.651   1.442  -0.695  0.00  0.00    -0.166 F 
ATOM     17  F   UNL     1       3.482   3.405  -0.674  0.00  0.00    -0.166 F 
ENDBRANCH  10  14
ENDBRANCH   7  13
ENDBRANCH   2   7
ENDBRANCH   1   2
BRANCH   1  18
ATOM     18  C   UNL     1      -3.370  -2.272  -2.862  0.00  0.00    +0.075 C 
BRANCH  18  19
ATOM     19  C   UNL     1      -4.597  -3.147  -2.856  0.00  0.00    +0.138 A 
ATOM     20  C   UNL     1      -5.870  -2.719  -2.911  0.00  0.00    +0.076 A 
ATOM     21  C   UNL     1      -6.716  -3.854  -2.883  0.00  0.00    +0.114 A 
ATOM     22  N   UNL     1      -5.955  -4.919  -2.814  0.00  0.00    -0.078 NA
ATOM     23  O   UNL     1      -4.607  -4.488  -2.802  0.00  0.00    -0.359 OA
BRANCH  21  24
ATOM     24  C   UNL     1      -8.200  -3.840  -2.925  0.00  0.00    +0.004 A 
ATOM     25  C   UNL     1      -8.882  -2.615  -3.005  0.00  0.00    +0.011 A 
ATOM     26  C   UNL     1     -10.240  -2.573  -3.046  0.00  0.00    +0.010 A 
ATOM     27  C   UNL     1     -10.978  -3.767  -3.007  0.00  0.00    +0.000 A 
ATOM     28  C   UNL     1     -12.382  -3.773  -3.046  0.00  0.00    +0.119 A 
ATOM     29  N   UNL     1     -13.034  -4.911  -3.008  0.00  0.00    -0.263 NA
ATOM     30  C   UNL     1     -12.424  -6.086  -2.932  0.00  0.00    +0.111 A 
ATOM     31  C   UNL     1     -11.066  -6.189  -2.888  0.00  0.00    +0.028 A 
ATOM     32  C   UNL     1     -10.298  -5.010  -2.925  0.00  0.00    -0.014 A 
ATOM     33  C   UNL     1      -8.898  -5.034  -2.890  0.00  0.00    +0.018 A 
ENDBRANCH  21  24
ENDBRANCH  18  19
ENDBRANCH   1  18
TORSDOF 8
