REMARK  Name = CHEMBL207217
REMARK  8 active torsions:
REMARK  status: ('A' for Active; 'I' for Inactive)
REMARK    1  A    between atoms: C_7  and  C_11
REMARK    2  A    between atoms: C_11  and  C_12
REMARK    3  A    between atoms: C_12  and  C_14
REMARK    4  A    between atoms: C_12  and  N_31
REMARK    5  A    between atoms: C_14  and  O_15
REMARK    6  A    between atoms: O_15  and  C_16
REMARK    7  A    between atoms: C_18  and  C_22
REMARK    8  A    between atoms: N_31  and  C_32
REMARK                            x       y       z     vdW  Elec       q    Type
REMARK                         _______ _______ _______ _____ _____    ______ ____
ROOT
ATOM      1  C   UNL     1       0.216  -3.607  -1.448  0.00  0.00    +0.112 C 
ENDROOT
BRANCH   1   2
ATOM      2  N   UNL     1      -0.531  -2.522  -2.088  0.00  0.00    -0.337 N 
ATOM      3  H   UNL     1      -1.008  -1.875  -1.545  0.00  0.00    +0.146 HD
BRANCH   2   4
ATOM      4  C   UNL     1      -0.557  -2.419  -3.478  0.00  0.00    +0.030 A 
ATOM      5  C   UNL     1       0.242  -3.291  -4.238  0.00  0.00    +0.025 A 
ATOM      6  C   UNL     1       0.262  -3.242  -5.589  0.00  0.00    +0.035 A 
ATOM      7  C   UNL     1      -0.571  -2.255  -6.277  0.00  0.00    +0.134 A 
ATOM      8  C   UNL     1      -1.403  -1.350  -5.458  0.00  0.00    +0.136 A 
ATOM      9  C   UNL     1      -1.359  -1.483  -4.050  0.00  0.00    +0.056 A 
ATOM     10  N   UNL     1      -2.061  -0.555  -6.272  0.00  0.00    -0.049 NA
ATOM     11  O   UNL     1      -1.702  -0.896  -7.600  0.00  0.00    -0.242 OA
ATOM     12  N   UNL     1      -0.770  -1.962  -7.540  0.00  0.00    -0.049 NA
ENDBRANCH   2   4
ENDBRANCH   1   2
BRANCH   1  13
ATOM     13  C   UNL     1       0.690  -3.154  -0.066  0.00  0.00    +0.062 C 
BRANCH  13  20
ATOM     14  C   UNL     1       0.259   1.486  -0.567  0.00  0.00    +0.001 A 
ATOM     15  C   UNL     1       1.482   2.135  -0.673  0.00  0.00    +0.002 A 
ATOM     16  C   UNL     1       2.661   1.423  -0.628  0.00  0.00    +0.026 A 
ATOM     17  C   UNL     1       2.628   0.041  -0.474  0.00  0.00    +0.047 A 
ATOM     18  C   UNL     1       1.386  -0.611  -0.367  0.00  0.00    +0.003 A 
ATOM     19  C   UNL     1       0.204   0.130  -0.416  0.00  0.00    +0.010 A 
ATOM     20  C   UNL     1       1.689  -2.037  -0.218  0.00  0.00    -0.021 A 
ATOM     21  C   UNL     1       3.026  -2.159  -0.243  0.00  0.00    +0.087 A 
ATOM     22  N   UNL     1       3.603  -0.928  -0.395  0.00  0.00    -0.360 N 
ATOM     23  H   UNL     1       4.558  -0.762  -0.440  0.00  0.00    +0.165 HD
ENDBRANCH  13  20
ENDBRANCH   1  13
BRANCH   1  24
ATOM     24  C   UNL     1      -0.689  -4.832  -1.302  0.00  0.00    +0.251 C 
BRANCH  24  25
ATOM     25  O   UNL     1      -1.076  -5.296  -2.596  0.00  0.00    -0.489 OA
BRANCH  25  26
ATOM     26  C   UNL     1      -1.887  -6.386  -2.644  0.00  0.00    +0.139 A 
ATOM     27  C   UNL     1      -2.303  -6.900  -3.866  0.00  0.00    +0.057 A 
ATOM     28  C   UNL     1      -3.136  -8.021  -3.863  0.00  0.00    +0.004 A 
ATOM     29  C   UNL     1      -3.515  -8.577  -2.642  0.00  0.00    +0.119 A 
ATOM     30  N   UNL     1      -3.097  -8.057  -1.507  0.00  0.00    -0.259 NA
ATOM     31  C   UNL     1      -2.305  -7.002  -1.474  0.00  0.00    +0.156 A 
BRANCH  28  32
ATOM     32  C   UNL     1      -3.609  -8.611  -5.139  0.00  0.00    -0.014 A 
ATOM     33  C   UNL     1      -3.200  -8.024  -6.354  0.00  0.00    +0.011 A 
ATOM     34  C   UNL     1      -3.598  -8.515  -7.548  0.00  0.00    +0.034 A 
ATOM     35  C   UNL     1      -4.475  -9.686  -7.582  0.00  0.00    +0.134 A 
ATOM     36  C   UNL     1      -4.892 -10.286  -6.299  0.00  0.00    +0.135 A 
ATOM     37  C   UNL     1      -4.421  -9.705  -5.097  0.00  0.00    +0.042 A 
ATOM     38  N   UNL     1      -5.668 -11.312  -6.563  0.00  0.00    -0.049 NA
ATOM     39  O   UNL     1      -5.785 -11.421  -7.971  0.00  0.00    -0.242 OA
ATOM     40  N   UNL     1      -5.019 -10.379  -8.553  0.00  0.00    -0.049 NA
ENDBRANCH  28  32
ENDBRANCH  25  26
ENDBRANCH  24  25
ENDBRANCH   1  24
TORSDOF 8
