REMARK  Name = CHEMBL575428
REMARK  12 active torsions:
REMARK  status: ('A' for Active; 'I' for Inactive)
REMARK    1  A    between atoms: C_1  and  C_2
REMARK    2  A    between atoms: C_5  and  C_12
REMARK    3  A    between atoms: C_14  and  O_18
REMARK    4  A    between atoms: O_18  and  C_19
REMARK    5  A    between atoms: C_19  and  C_20
REMARK    6  A    between atoms: C_20  and  C_22
REMARK    7  A    between atoms: C_20  and  N_38
REMARK    8  A    between atoms: C_22  and  C_23
REMARK    9  A    between atoms: C_27  and  O_29
REMARK   10  A    between atoms: O_29  and  C_30
REMARK   11  A    between atoms: C_30  and  C_31
REMARK   12  A    between atoms: C_31  and  N_32
REMARK                            x       y       z     vdW  Elec       q    Type
REMARK                         _______ _______ _______ _____ _____    ______ ____
ROOT
ATOM      1  C   UNL     1       0.130  -4.381 -10.358  0.00  0.00    -0.033 C 
ENDROOT
BRANCH   1   2
ATOM      2  N   UNL     1      -1.167  -5.001 -10.057  0.00  0.00    +0.382 N 
ATOM      3  H   UNL     1      -1.298  -5.810 -10.645  0.00  0.00    -0.089 HD
ATOM      4  H   UNL     1      -1.189  -5.281  -9.088  0.00  0.00    -0.089 HD
ATOM      5  H   UNL     1      -1.906  -4.336 -10.232  0.00  0.00    -0.089 HD
ENDBRANCH   1   2
BRANCH   1   6
ATOM      6  C   UNL     1       0.328  -3.153  -9.467  0.00  0.00    +0.213 C 
BRANCH   6   7
ATOM      7  O   UNL     1       0.413  -3.565  -8.101  0.00  0.00    -0.492 OA
BRANCH   7  10
ATOM      8  C   UNL     1       0.865  -1.869  -4.908  0.00  0.00    +0.022 A 
ATOM      9  C   UNL     1       0.683  -2.908  -5.824  0.00  0.00    +0.058 A 
ATOM     10  C   UNL     1       0.590  -2.588  -7.172  0.00  0.00    +0.139 A 
ATOM     11  C   UNL     1       0.682  -1.258  -7.560  0.00  0.00    +0.156 A 
ATOM     12  N   UNL     1       0.855  -0.302  -6.668  0.00  0.00    -0.259 NA
ATOM     13  C   UNL     1       0.942  -0.560  -5.379  0.00  0.00    +0.121 A 
BRANCH   8  18
ATOM     14  C   UNL     1       1.239   0.892   0.044  0.00  0.00    +0.068 C 
ATOM     15  C   UNL     1       1.227  -0.614  -0.015  0.00  0.00    +0.068 A 
ATOM     16  C   UNL     1       1.138  -1.392  -1.191  0.00  0.00    +0.026 A 
ATOM     17  C   UNL     1       1.040  -1.102  -2.558  0.00  0.00    +0.040 A 
ATOM     18  C   UNL     1       0.970  -2.155  -3.456  0.00  0.00    +0.073 A 
ATOM     19  N   UNL     1       0.994  -3.419  -3.037  0.00  0.00    -0.253 NA
ATOM     20  C   UNL     1       1.085  -3.737  -1.766  0.00  0.00    +0.139 A 
ATOM     21  C   UNL     1       1.161  -2.746  -0.792  0.00  0.00    +0.084 A 
ATOM     22  N   UNL     1       1.261  -2.746   0.574  0.00  0.00    -0.275 N 
ATOM     23  H   UNL     1       1.299  -3.532   1.142  0.00  0.00    +0.189 HD
ATOM     24  N   UNL     1       1.303  -1.415   1.009  0.00  0.00    -0.178 NA
ENDBRANCH   8  18
ENDBRANCH   7  10
ENDBRANCH   6   7
ENDBRANCH   1   6
BRANCH   1  25
ATOM     25  C   UNL     1       0.164  -3.956 -11.827  0.00  0.00    +0.022 C 
BRANCH  25  26
ATOM     26  C   UNL     1       0.092  -5.178 -12.706  0.00  0.00    -0.045 A 
ATOM     27  C   UNL     1       1.255  -5.816 -13.098  0.00  0.00    +0.004 A 
ATOM     28  C   UNL     1       1.193  -6.937 -13.904  0.00  0.00    +0.004 A 
ATOM     29  C   UNL     1      -0.032  -7.423 -14.320  0.00  0.00    +0.045 A 
ATOM     30  C   UNL     1      -1.200  -6.785 -13.928  0.00  0.00    +0.121 A 
ATOM     31  C   UNL     1      -1.135  -5.664 -13.114  0.00  0.00    +0.049 A 
BRANCH  30  32
ATOM     32  O   UNL     1      -2.405  -7.262 -14.336  0.00  0.00    -0.494 OA
BRANCH  32  33
ATOM     33  C   UNL     1      -2.396  -8.424 -15.167  0.00  0.00    +0.210 C 
BRANCH  33  34
ATOM     34  C   UNL     1      -3.834  -8.808 -15.522  0.00  0.00    -0.037 C 
BRANCH  34  35
ATOM     35  N   UNL     1      -4.445  -7.736 -16.318  0.00  0.00    +0.385 N 
ATOM     36  C   UNL     1      -5.867  -8.037 -16.537  0.00  0.00    -0.050 C 
ATOM     37  C   UNL     1      -6.501  -6.919 -17.367  0.00  0.00    +0.141 C 
ATOM     38  O   UNL     1      -5.795  -6.790 -18.604  0.00  0.00    -0.383 OA
ATOM     39  C   UNL     1      -4.400  -6.520 -18.443  0.00  0.00    +0.141 C 
ATOM     40  C   UNL     1      -3.761  -7.638 -17.615  0.00  0.00    -0.050 C 
ATOM     41  H   UNL     1      -4.359  -6.860 -15.825  0.00  0.00    -0.081 HD
ENDBRANCH  34  35
ENDBRANCH  33  34
ENDBRANCH  32  33
ENDBRANCH  30  32
ENDBRANCH  25  26
ENDBRANCH   1  25
TORSDOF 11
