REMARK  Name = CHEMBL469357
REMARK  7 active torsions:
REMARK  status: ('A' for Active; 'I' for Inactive)
REMARK    1  A    between atoms: C_4  and  C_7
REMARK    2  A    between atoms: C_7  and  C_8
REMARK    3  A    between atoms: C_7  and  N_10
REMARK    4  A    between atoms: C_8  and  N_9
REMARK    5  A    between atoms: C_11  and  C_13
REMARK    6  A    between atoms: C_15  and  C_28
REMARK    7  A    between atoms: C_16  and  C_18
REMARK                            x       y       z     vdW  Elec       q    Type
REMARK                         _______ _______ _______ _____ _____    ______ ____
ROOT
ATOM      1  C   UNL     1       4.554  -3.592   2.217  0.00  0.00    +0.075 A 
ATOM      2  C   UNL     1       5.619  -4.063   2.965  0.00  0.00    +0.030 A 
ATOM      3  C   UNL     1       5.418  -5.143   3.795  0.00  0.00    -0.001 A 
ATOM      4  C   UNL     1       4.142  -5.713   3.840  0.00  0.00    +0.029 A 
ATOM      5  S   UNL     1       3.231  -4.690   2.696  0.00  0.00    -0.083 S 
ENDROOT
BRANCH   4   6
ATOM      6  C   UNL     1       3.669  -6.859   4.634  0.00  0.00    +0.001 A 
ATOM      7  C   UNL     1       4.399  -8.052   4.689  0.00  0.00    +0.029 A 
ATOM      8  C   UNL     1       3.918  -9.103   5.447  0.00  0.00    +0.114 A 
ATOM      9  N   UNL     1       2.789  -9.013   6.120  0.00  0.00    -0.237 NA
ATOM     10  C   UNL     1       2.049  -7.912   6.110  0.00  0.00    +0.139 A 
ATOM     11  C   UNL     1       2.468  -6.791   5.370  0.00  0.00    +0.027 A 
ATOM     12  C   UNL     1       1.452  -5.762   5.573  0.00  0.00    +0.029 A 
ATOM     13  C   UNL     1       0.523  -6.287   6.390  0.00  0.00    +0.085 A 
ATOM     14  N   UNL     1       0.860  -7.573   6.712  0.00  0.00    -0.346 N 
ATOM     15  H   UNL     1       0.343  -8.156   7.290  0.00  0.00    +0.167 HD
ENDBRANCH   4   6
BRANCH   3  16
ATOM     16  C   UNL     1       6.524  -5.688   4.617  0.00  0.00    +0.001 A 
ATOM     17  C   UNL     1       7.723  -6.089   4.019  0.00  0.00    +0.011 A 
ATOM     18  C   UNL     1       8.726  -6.591   4.831  0.00  0.00    +0.020 A 
ATOM     19  C   UNL     1       8.512  -6.678   6.195  0.00  0.00    +0.111 A 
ATOM     20  N   UNL     1       7.370  -6.292   6.731  0.00  0.00    -0.263 NA
ATOM     21  C   UNL     1       6.389  -5.802   6.000  0.00  0.00    +0.119 A 
ENDBRANCH   3  16
BRANCH   1  23
ATOM     22  N   UNL     1       3.373  -2.158   0.638  0.00  0.00    -0.306 N 
ATOM     23  C   UNL     1       4.520  -2.470   1.273  0.00  0.00    +0.251 C 
ATOM     24  O   UNL     1       5.527  -1.820   1.064  0.00  0.00    -0.270 OA
ATOM     25  H   UNL     1       2.570  -2.676   0.805  0.00  0.00    +0.150 HD
BRANCH  22  26
ATOM     26  C   UNL     1       3.339  -1.037  -0.304  0.00  0.00    +0.086 C 
BRANCH  26  30
ATOM     27  C   UNL     1      -0.649   0.469  -0.583  0.00  0.00    +0.000 A 
ATOM     28  C   UNL     1       0.421   1.344  -0.566  0.00  0.00    +0.000 A 
ATOM     29  C   UNL     1       1.711   0.857  -0.475  0.00  0.00    +0.005 A 
ATOM     30  C   UNL     1       1.932  -0.506  -0.402  0.00  0.00    -0.029 A 
ATOM     31  C   UNL     1       0.862  -1.381  -0.419  0.00  0.00    +0.005 A 
ATOM     32  C   UNL     1      -0.428  -0.894  -0.510  0.00  0.00    +0.000 A 
ENDBRANCH  26  30
BRANCH  26  33
ATOM     33  C   UNL     1       3.800  -1.515  -1.682  0.00  0.00    -0.059 C 
BRANCH  33  34
ATOM     34  N   UNL     1       5.123  -2.142  -1.565  0.00  0.00    +0.380 N 
ATOM     35  H   UNL     1       5.783  -1.470  -1.204  0.00  0.00    -0.090 HD
ATOM     36  H   UNL     1       5.068  -2.930  -0.937  0.00  0.00    -0.090 HD
ATOM     37  H   UNL     1       5.428  -2.457  -2.474  0.00  0.00    -0.090 HD
ENDBRANCH  33  34
ENDBRANCH  26  33
ENDBRANCH  22  26
ENDBRANCH   1  23
TORSDOF 7
