REMARK  Name = CHEMBL211281
REMARK  8 active torsions:
REMARK  status: ('A' for Active; 'I' for Inactive)
REMARK    1  A    between atoms: C_7  and  C_11
REMARK    2  A    between atoms: C_11  and  C_12
REMARK    3  A    between atoms: C_12  and  C_14
REMARK    4  A    between atoms: C_12  and  N_31
REMARK    5  A    between atoms: C_14  and  O_15
REMARK    6  A    between atoms: O_15  and  C_16
REMARK    7  A    between atoms: C_18  and  C_22
REMARK    8  A    between atoms: N_31  and  C_32
REMARK                            x       y       z     vdW  Elec       q    Type
REMARK                         _______ _______ _______ _____ _____    ______ ____
ROOT
ATOM      1  C   UNL     1       0.236  -3.589  -1.455  0.00  0.00    +0.113 C 
ENDROOT
BRANCH   1   2
ATOM      2  N   UNL     1      -0.550  -2.472  -1.985  0.00  0.00    -0.332 N 
ATOM      3  H   UNL     1      -0.247  -1.997  -2.775  0.00  0.00    +0.147 HD
BRANCH   2   4
ATOM      4  C   UNL     1      -1.728  -2.092  -1.356  0.00  0.00    +0.067 A 
ATOM      5  C   UNL     1      -2.580  -1.099  -1.702  0.00  0.00    +0.039 A 
ATOM      6  C   UNL     1      -3.764  -0.876  -0.896  0.00  0.00    -0.006 A 
ATOM      7  C   UNL     1      -4.794   0.087  -1.048  0.00  0.00    +0.029 A 
ATOM      8  C   UNL     1      -5.823   0.112  -0.159  0.00  0.00    +0.111 A 
ATOM      9  N   UNL     1      -5.906  -0.735   0.854  0.00  0.00    -0.262 NA
ATOM     10  C   UNL     1      -4.982  -1.659   1.056  0.00  0.00    +0.126 A 
ATOM     11  C   UNL     1      -3.908  -1.753   0.206  0.00  0.00    +0.039 A 
ATOM     12  S   UNL     1      -2.485  -2.804   0.093  0.00  0.00    -0.072 S 
ENDBRANCH   2   4
ENDBRANCH   1   2
BRANCH   1  13
ATOM     13  C   UNL     1       0.666  -3.275  -0.021  0.00  0.00    +0.062 C 
BRANCH  13  20
ATOM     14  C   UNL     1      -0.017   1.362   0.009  0.00  0.00    +0.001 A 
ATOM     15  C   UNL     1       1.170   2.083   0.002  0.00  0.00    +0.002 A 
ATOM     16  C   UNL     1       2.386   1.436  -0.013  0.00  0.00    +0.026 A 
ATOM     17  C   UNL     1       2.428   0.046  -0.021  0.00  0.00    +0.047 A 
ATOM     18  C   UNL     1       1.223  -0.681  -0.013  0.00  0.00    +0.003 A 
ATOM     19  C   UNL     1       0.002  -0.004   0.002  0.00  0.00    +0.010 A 
ATOM     20  C   UNL     1       1.604  -2.095  -0.025  0.00  0.00    -0.021 A 
ATOM     21  C   UNL     1       2.945  -2.141  -0.038  0.00  0.00    +0.087 A 
ATOM     22  N   UNL     1       3.455  -0.871  -0.036  0.00  0.00    -0.360 N 
ATOM     23  H   UNL     1       4.399  -0.650  -0.044  0.00  0.00    +0.165 HD
ENDBRANCH  13  20
ENDBRANCH   1  13
BRANCH   1  24
ATOM     24  C   UNL     1      -0.614  -4.861  -1.466  0.00  0.00    +0.251 C 
BRANCH  24  25
ATOM     25  O   UNL     1      -0.919  -5.219  -2.816  0.00  0.00    -0.489 OA
BRANCH  25  26
ATOM     26  C   UNL     1      -1.673  -6.334  -3.003  0.00  0.00    +0.139 A 
ATOM     27  C   UNL     1      -2.006  -6.750  -4.285  0.00  0.00    +0.057 A 
ATOM     28  C   UNL     1      -2.784  -7.904  -4.426  0.00  0.00    +0.010 A 
ATOM     29  C   UNL     1      -3.192  -8.587  -3.280  0.00  0.00    +0.120 A 
ATOM     30  N   UNL     1      -2.852  -8.155  -2.083  0.00  0.00    -0.259 NA
ATOM     31  C   UNL     1      -2.115  -7.074  -1.915  0.00  0.00    +0.156 A 
BRANCH  28  32
ATOM     32  C   UNL     1      -3.168  -8.392  -5.768  0.00  0.00    +0.022 A 
ATOM     33  C   UNL     1      -3.915  -9.479  -6.091  0.00  0.00    +0.024 A 
ATOM     34  C   UNL     1      -4.172  -9.776  -7.440  0.00  0.00    -0.007 A 
ATOM     35  C   UNL     1      -4.918 -10.847  -7.999  0.00  0.00    +0.029 A 
ATOM     36  C   UNL     1      -5.040 -10.947  -9.349  0.00  0.00    +0.111 A 
ATOM     37  N   UNL     1      -4.487 -10.078 -10.179  0.00  0.00    -0.262 NA
ATOM     38  C   UNL     1      -3.779  -9.056  -9.732  0.00  0.00    +0.126 A 
ATOM     39  C   UNL     1      -3.605  -8.880  -8.380  0.00  0.00    +0.038 A 
ATOM     40  S   UNL     1      -2.770  -7.692  -7.362  0.00  0.00    -0.087 S 
ENDBRANCH  28  32
ENDBRANCH  25  26
ENDBRANCH  24  25
ENDBRANCH   1  24
TORSDOF 8
