REMARK  Name = CHEMBL577379
REMARK  8 active torsions:
REMARK  status: ('A' for Active; 'I' for Inactive)
REMARK    1  A    between atoms: C_4  and  C_7
REMARK    2  A    between atoms: C_10  and  C_17
REMARK    3  A    between atoms: C_19  and  O_23
REMARK    4  A    between atoms: O_23  and  C_24
REMARK    5  A    between atoms: C_24  and  C_25
REMARK    6  A    between atoms: C_25  and  C_27
REMARK    7  A    between atoms: C_25  and  N_38
REMARK    8  A    between atoms: C_27  and  C_28
REMARK                            x       y       z     vdW  Elec       q    Type
REMARK                         _______ _______ _______ _____ _____    ______ ____
ROOT
ATOM      1  C   UNL     1       3.862  -2.377   4.818  0.00  0.00    +0.004 A 
ATOM      2  C   UNL     1       3.972  -3.472   5.679  0.00  0.00    +0.057 A 
ATOM      3  C   UNL     1       3.947  -3.237   7.048  0.00  0.00    +0.139 A 
ATOM      4  C   UNL     1       3.815  -1.934   7.508  0.00  0.00    +0.156 A 
ATOM      5  N   UNL     1       3.713  -0.924   6.667  0.00  0.00    -0.259 NA
ATOM      6  C   UNL     1       3.739  -1.100   5.362  0.00  0.00    +0.119 A 
ENDROOT
BRANCH   1  10
ATOM      7  C   UNL     1       3.711  -0.707  -0.038  0.00  0.00    +0.137 C 
ATOM      8  C   UNL     1       3.800  -1.661   1.132  0.00  0.00    -0.009 A 
ATOM      9  C   UNL     1       3.779  -1.472   2.493  0.00  0.00    +0.015 A 
ATOM     10  C   UNL     1       3.883  -2.571   3.347  0.00  0.00    -0.016 A 
ATOM     11  C   UNL     1       4.008  -3.851   2.810  0.00  0.00    +0.010 A 
ATOM     12  C   UNL     1       4.027  -4.031   1.445  0.00  0.00    +0.024 A 
ATOM     13  C   UNL     1       3.924  -2.935   0.589  0.00  0.00    +0.038 A 
ATOM     14  N   UNL     1       3.920  -2.867  -0.804  0.00  0.00    -0.284 N 
ATOM     15  C   UNL     1       3.800  -1.606  -1.253  0.00  0.00    +0.229 C 
ATOM     16  O   UNL     1       3.769  -1.254  -2.413  0.00  0.00    -0.274 OA
ATOM     17  H   UNL     1       3.996  -3.641  -1.384  0.00  0.00    +0.155 HD
BRANCH   7  21
ATOM     18  C   UNL     1      -0.017   1.378   0.010  0.00  0.00    +0.000 A 
ATOM     19  C   UNL     1       1.171   2.086   0.002  0.00  0.00    +0.000 A 
ATOM     20  C   UNL     1       2.377   1.411  -0.013  0.00  0.00    +0.005 A 
ATOM     21  C   UNL     1       2.396   0.029  -0.020  0.00  0.00    -0.031 A 
ATOM     22  C   UNL     1       1.208  -0.679  -0.012  0.00  0.00    +0.005 A 
ATOM     23  C   UNL     1       0.002  -0.004   0.002  0.00  0.00    +0.000 A 
ENDBRANCH   7  21
ENDBRANCH   1  10
BRANCH   3  24
ATOM     24  O   UNL     1       4.050  -4.270   7.925  0.00  0.00    -0.492 OA
BRANCH  24  25
ATOM     25  C   UNL     1       4.015  -3.946   9.316  0.00  0.00    +0.213 C 
BRANCH  25  26
ATOM     26  C   UNL     1       4.143  -5.227  10.142  0.00  0.00    -0.033 C 
BRANCH  26  27
ATOM     27  N   UNL     1       5.465  -5.826   9.915  0.00  0.00    +0.382 N 
ATOM     28  H   UNL     1       5.572  -6.045   8.935  0.00  0.00    -0.089 HD
ATOM     29  H   UNL     1       6.182  -5.174  10.193  0.00  0.00    -0.089 HD
ATOM     30  H   UNL     1       5.549  -6.672  10.459  0.00  0.00    -0.089 HD
ENDBRANCH  26  27
BRANCH  26  31
ATOM     31  C   UNL     1       3.982  -4.896  11.627  0.00  0.00    +0.024 C 
BRANCH  31  32
ATOM     32  C   UNL     1       3.985  -6.171  12.430  0.00  0.00    -0.024 A 
ATOM     33  C   UNL     1       2.908  -6.866  12.828  0.00  0.00    +0.087 A 
ATOM     34  N   UNL     1       3.300  -7.969  13.537  0.00  0.00    -0.360 N 
ATOM     35  H   UNL     1       2.700  -8.623  13.927  0.00  0.00    +0.165 HD
ATOM     36  C   UNL     1       4.675  -8.011  13.613  0.00  0.00    +0.047 A 
ATOM     37  C   UNL     1       5.164  -6.890  12.918  0.00  0.00    +0.003 A 
ATOM     38  C   UNL     1       6.540  -6.675  12.824  0.00  0.00    +0.010 A 
ATOM     39  C   UNL     1       7.406  -7.557  13.406  0.00  0.00    +0.001 A 
ATOM     40  C   UNL     1       6.928  -8.666  14.090  0.00  0.00    +0.002 A 
ATOM     41  C   UNL     1       5.574  -8.893  14.203  0.00  0.00    +0.026 A 
ENDBRANCH  31  32
ENDBRANCH  26  31
ENDBRANCH  25  26
ENDBRANCH  24  25
ENDBRANCH   3  24
TORSDOF 8
