REMARK  Name = CHEMBL203624
REMARK  8 active torsions:
REMARK  status: ('A' for Active; 'I' for Inactive)
REMARK    1  A    between atoms: C_7  and  C_11
REMARK    2  A    between atoms: C_11  and  C_12
REMARK    3  A    between atoms: C_12  and  C_14
REMARK    4  A    between atoms: C_12  and  N_30
REMARK    5  A    between atoms: C_14  and  N_15
REMARK    6  A    between atoms: N_15  and  C_16
REMARK    7  A    between atoms: C_18  and  C_22
REMARK    8  A    between atoms: C_23  and  C_24
REMARK                            x       y       z     vdW  Elec       q    Type
REMARK                         _______ _______ _______ _____ _____    ______ ____
ROOT
ATOM      1  C   UNL     1      -0.614  -4.861  -1.466  0.00  0.00    +0.086 C 
ENDROOT
BRANCH   1   2
ATOM      2  N   UNL     1      -1.125  -5.095  -2.819  0.00  0.00    -0.344 N 
ATOM      3  H   UNL     1      -0.903  -4.480  -3.535  0.00  0.00    +0.146 HD
BRANCH   2   4
ATOM      4  C   UNL     1      -1.933  -6.206  -3.078  0.00  0.00    +0.046 A 
ATOM      5  C   UNL     1      -2.418  -6.440  -4.360  0.00  0.00    +0.034 A 
ATOM      6  C   UNL     1      -3.223  -7.566  -4.568  0.00  0.00    -0.005 A 
ATOM      7  C   UNL     1      -3.505  -8.405  -3.485  0.00  0.00    +0.118 A 
ATOM      8  N   UNL     1      -3.023  -8.142  -2.289  0.00  0.00    -0.261 NA
ATOM      9  C   UNL     1      -2.257  -7.093  -2.058  0.00  0.00    +0.133 A 
BRANCH   6  10
ATOM     10  C   UNL     1      -3.764  -7.863  -5.906  0.00  0.00    +0.010 C 
ATOM     11  C   UNL     1      -4.535  -8.946  -6.093  0.00  0.00    +0.008 C 
BRANCH  11  12
ATOM     12  C   UNL     1      -5.077  -9.243  -7.431  0.00  0.00    -0.022 A 
ATOM     13  C   UNL     1      -4.795  -8.411  -8.524  0.00  0.00    +0.027 A 
ATOM     14  C   UNL     1      -5.322  -8.727  -9.757  0.00  0.00    +0.111 A 
ATOM     15  N   UNL     1      -6.082  -9.794  -9.917  0.00  0.00    -0.263 NA
ATOM     16  C   UNL     1      -6.373 -10.604  -8.916  0.00  0.00    +0.111 A 
ATOM     17  C   UNL     1      -5.883 -10.368  -7.649  0.00  0.00    +0.027 A 
ENDBRANCH  11  12
ENDBRANCH   6  10
ENDBRANCH   2   4
ENDBRANCH   1   2
BRANCH   1  18
ATOM     18  C   UNL     1       0.236  -3.589  -1.455  0.00  0.00    -0.053 C 
BRANCH  18  19
ATOM     19  N   UNL     1      -0.552  -2.469  -1.986  0.00  0.00    +0.381 N 
ATOM     20  H   UNL     1       0.009  -1.630  -1.979  0.00  0.00    -0.090 HD
ATOM     21  H   UNL     1      -0.836  -2.676  -2.932  0.00  0.00    -0.090 HD
ATOM     22  H   UNL     1      -1.370  -2.331  -1.412  0.00  0.00    -0.090 HD
ENDBRANCH  18  19
BRANCH  18  23
ATOM     23  C   UNL     1       0.666  -3.275  -0.021  0.00  0.00    +0.022 C 
BRANCH  23  30
ATOM     24  C   UNL     1      -0.017   1.362   0.009  0.00  0.00    +0.001 A 
ATOM     25  C   UNL     1       1.170   2.083   0.002  0.00  0.00    +0.002 A 
ATOM     26  C   UNL     1       2.386   1.436  -0.013  0.00  0.00    +0.026 A 
ATOM     27  C   UNL     1       2.428   0.046  -0.021  0.00  0.00    +0.047 A 
ATOM     28  C   UNL     1       1.223  -0.681  -0.013  0.00  0.00    +0.003 A 
ATOM     29  C   UNL     1       0.002  -0.004   0.002  0.00  0.00    +0.010 A 
ATOM     30  C   UNL     1       1.604  -2.095  -0.025  0.00  0.00    -0.024 A 
ATOM     31  C   UNL     1       2.945  -2.141  -0.038  0.00  0.00    +0.087 A 
ATOM     32  N   UNL     1       3.455  -0.871  -0.036  0.00  0.00    -0.360 N 
ATOM     33  H   UNL     1       4.399  -0.650  -0.044  0.00  0.00    +0.165 HD
ENDBRANCH  23  30
ENDBRANCH  18  23
ENDBRANCH   1  18
TORSDOF 8
