REMARK  Name = CHEMBL1202518
REMARK  9 active torsions:
REMARK  status: ('A' for Active; 'I' for Inactive)
REMARK    1  A    between atoms: C_1  and  O_2
REMARK    2  A    between atoms: O_2  and  C_3
REMARK    3  A    between atoms: C_6  and  O_38
REMARK    4  A    between atoms: C_7  and  C_10
REMARK    5  A    between atoms: C_10  and  C_12
REMARK    6  A    between atoms: C_15  and  C_18
REMARK    7  A    between atoms: N_20  and  C_21
REMARK    8  A    between atoms: C_28  and  N_29
REMARK    9  A    between atoms: C_30  and  C_32
REMARK                            x       y       z     vdW  Elec       q    Type
REMARK                         _______ _______ _______ _____ _____    ______ ____
ROOT
ATOM      1  C   UNL     1      -7.636  -6.783  -0.375  0.00  0.00    +0.244 C 
ATOM      2  O   UNL     1      -8.647  -6.133  -0.555  0.00  0.00    -0.270 OA
ATOM      3  N   UNL     1      -7.708  -8.124  -0.268  0.00  0.00    -0.307 N 
ATOM      4  H   UNL     1      -6.901  -8.643  -0.124  0.00  0.00    +0.149 HD
ENDROOT
BRANCH   3   5
ATOM      5  C   UNL     1      -9.005  -8.799  -0.368  0.00  0.00    +0.092 C 
ATOM      6  C   UNL     1      -9.697  -8.779   1.018  0.00  0.00    +0.022 C 
ATOM      7  C   UNL     1     -11.155  -9.105   0.838  0.00  0.00    -0.017 C 
ATOM      8  C   UNL     1     -11.470 -10.606   0.965  0.00  0.00    -0.082 C 
ATOM      9  N   UNL     1     -10.490 -11.476   0.279  0.00  0.00    +0.380 N 
ATOM     10  C   UNL     1     -10.111 -10.947  -1.009  0.00  0.00    -0.058 C 
ATOM     11  C   UNL     1      -8.798 -10.166  -0.829  0.00  0.00    +0.076 C 
ATOM     12  H   UNL     1      -9.666 -11.561   0.855  0.00  0.00    -0.086 HD
ATOM     13  H   UNL     1     -10.896 -12.390   0.151  0.00  0.00    -0.086 HD
BRANCH  11  14
ATOM     14  N   UNL     1      -8.094 -10.129  -2.113  0.00  0.00    -0.309 N 
ATOM     15  C   UNL     1      -7.352 -11.184  -2.505  0.00  0.00    +0.244 C 
ATOM     16  O   UNL     1      -7.268 -12.166  -1.794  0.00  0.00    -0.270 OA
ATOM     17  H   UNL     1      -8.161  -9.346  -2.680  0.00  0.00    +0.149 HD
BRANCH  15  18
ATOM     18  C   UNL     1      -6.639 -11.146  -3.803  0.00  0.00    +0.040 A 
ATOM     19  C   UNL     1      -6.718 -10.025  -4.634  0.00  0.00    +0.033 A 
ATOM     20  C   UNL     1      -6.037 -10.032  -5.836  0.00  0.00    +0.111 A 
ATOM     21  N   UNL     1      -5.322 -11.077  -6.202  0.00  0.00    -0.263 NA
ATOM     22  C   UNL     1      -5.221 -12.154  -5.449  0.00  0.00    +0.111 A 
ATOM     23  C   UNL     1      -5.864 -12.230  -4.229  0.00  0.00    +0.033 A 
ENDBRANCH  15  18
ENDBRANCH  11  14
ENDBRANCH   3   5
BRANCH   1  27
ATOM     24  C   UNL     1      -3.871  -4.824  -0.083  0.00  0.00    +0.023 A 
ATOM     25  C   UNL     1      -5.032  -4.077  -0.290  0.00  0.00    +0.012 A 
ATOM     26  C   UNL     1      -6.252  -4.712  -0.385  0.00  0.00    +0.014 A 
ATOM     27  C   UNL     1      -6.326  -6.101  -0.274  0.00  0.00    +0.037 A 
ATOM     28  C   UNL     1      -5.165  -6.848  -0.067  0.00  0.00    +0.014 A 
ATOM     29  C   UNL     1      -3.945  -6.215   0.022  0.00  0.00    +0.012 A 
BRANCH  24  30
ATOM     30  C   UNL     1      -2.561  -4.143   0.019  0.00  0.00    +0.200 C 
ATOM     31  O   UNL     1      -1.540  -4.798   0.099  0.00  0.00    -0.286 OA
BRANCH  30  36
ATOM     32  C   UNL     1      -2.533  -0.582   1.221  0.00  0.00    +0.156 A 
ATOM     33  C   UNL     1      -2.370   0.104   0.025  0.00  0.00    +0.052 A 
ATOM     34  C   UNL     1      -2.270  -0.586  -1.169  0.00  0.00    +0.050 A 
ATOM     35  C   UNL     1      -2.331  -1.970  -1.182  0.00  0.00    +0.131 A 
ATOM     36  C   UNL     1      -2.495  -2.672   0.022  0.00  0.00    +0.102 A 
ATOM     37  C   UNL     1      -2.591  -1.966   1.228  0.00  0.00    +0.179 A 
ATOM     38  F   UNL     1      -2.744  -2.631   2.393  0.00  0.00    -0.201 F 
BRANCH  32  40
ATOM     39  C   UNL     1      -2.563   1.532   2.310  0.00  0.00    +0.277 C 
ATOM     40  O   UNL     1      -2.630   0.107   2.390  0.00  0.00    -0.492 OA
ENDBRANCH  32  40
BRANCH  35  41
ATOM     41  O   UNL     1      -2.233  -2.644  -2.355  0.00  0.00    -0.506 OA
ATOM     42  H   UNL     1      -1.323  -2.812  -2.638  0.00  0.00    +0.292 HD
ENDBRANCH  35  41
ENDBRANCH  30  36
ENDBRANCH  24  30
ENDBRANCH   1  27
TORSDOF 8
