REMARK  Name = CHEMBL596072
REMARK  9 active torsions:
REMARK  status: ('A' for Active; 'I' for Inactive)
REMARK    1  A    between atoms: C_1  and  C_2
REMARK    2  A    between atoms: C_5  and  C_12
REMARK    3  A    between atoms: C_14  and  O_23
REMARK    4  A    between atoms: C_17  and  C_18
REMARK    5  A    between atoms: O_23  and  C_24
REMARK    6  A    between atoms: C_24  and  C_25
REMARK    7  A    between atoms: C_25  and  C_27
REMARK    8  A    between atoms: C_25  and  N_38
REMARK    9  A    between atoms: C_27  and  C_28
REMARK                            x       y       z     vdW  Elec       q    Type
REMARK                         _______ _______ _______ _____ _____    ______ ____
ROOT
ATOM      1  C   UNL     1      -0.001  -1.517  -4.884  0.00  0.00    +0.013 A 
ATOM      2  C   UNL     1      -0.932  -0.666  -5.479  0.00  0.00    +0.058 A 
ATOM      3  C   UNL     1      -0.901  -0.516  -6.861  0.00  0.00    +0.139 A 
ATOM      4  C   UNL     1       0.048  -1.210  -7.600  0.00  0.00    +0.157 A 
ATOM      5  N   UNL     1       0.916  -2.008  -7.013  0.00  0.00    -0.251 NA
ATOM      6  C   UNL     1       0.930  -2.180  -5.699  0.00  0.00    +0.082 A 
ENDROOT
BRANCH   1  11
ATOM      7  C   UNL     1      -0.018   1.503   0.010  0.00  0.00    +0.068 C 
ATOM      8  C   UNL     1       0.002  -0.004   0.002  0.00  0.00    +0.069 A 
ATOM      9  C   UNL     1       0.008  -0.859  -1.181  0.00  0.00    +0.042 A 
ATOM     10  C   UNL     1      -0.002  -0.616  -2.558  0.00  0.00    +0.023 A 
ATOM     11  C   UNL     1       0.009  -1.713  -3.414  0.00  0.00    +0.003 A 
ATOM     12  C   UNL     1       0.029  -3.003  -2.872  0.00  0.00    +0.121 A 
ATOM     13  N   UNL     1       0.038  -3.200  -1.574  0.00  0.00    -0.235 NA
ATOM     14  C   UNL     1       0.029  -2.188  -0.712  0.00  0.00    +0.156 A 
ATOM     15  N   UNL     1       0.034  -2.120   0.655  0.00  0.00    -0.260 N 
ATOM     16  H   UNL     1       0.047  -2.881   1.255  0.00  0.00    +0.191 HD
ATOM     17  N   UNL     1       0.023  -0.778   1.049  0.00  0.00    -0.177 NA
ENDBRANCH   1  11
BRANCH   6  18
ATOM     18  C   UNL     1       1.931  -3.084  -5.086  0.00  0.00    +0.039 A 
ATOM     19  C   UNL     1       2.472  -4.324  -5.655  0.00  0.00    +0.051 A 
ATOM     20  C   UNL     1       3.343  -4.799  -4.750  0.00  0.00    +0.195 A 
ATOM     21  O   UNL     1       3.378  -3.968  -3.698  0.00  0.00    -0.470 OA
ATOM     22  C   UNL     1       2.545  -2.934  -3.882  0.00  0.00    +0.204 A 
ENDBRANCH   6  18
BRANCH   3  23
ATOM     23  O   UNL     1      -1.790   0.303  -7.482  0.00  0.00    -0.492 OA
BRANCH  23  24
ATOM     24  C   UNL     1      -1.694   0.405  -8.904  0.00  0.00    +0.213 C 
BRANCH  24  25
ATOM     25  C   UNL     1      -2.768   1.364  -9.420  0.00  0.00    -0.033 C 
BRANCH  25  26
ATOM     26  N   UNL     1      -2.501   2.717  -8.915  0.00  0.00    +0.382 N 
ATOM     27  H   UNL     1      -3.209   3.350  -9.255  0.00  0.00    -0.089 HD
ATOM     28  H   UNL     1      -2.515   2.708  -7.906  0.00  0.00    -0.089 HD
ATOM     29  H   UNL     1      -1.595   3.023  -9.236  0.00  0.00    -0.089 HD
ENDBRANCH  25  26
BRANCH  25  30
ATOM     30  C   UNL     1      -2.747   1.378 -10.950  0.00  0.00    +0.024 C 
BRANCH  30  31
ATOM     31  C   UNL     1      -3.883   2.226 -11.461  0.00  0.00    -0.024 A 
ATOM     32  C   UNL     1      -5.099   1.794 -11.831  0.00  0.00    +0.087 A 
ATOM     33  N   UNL     1      -5.866   2.851 -12.239  0.00  0.00    -0.360 N 
ATOM     34  H   UNL     1      -6.782   2.787 -12.552  0.00  0.00    +0.165 HD
ATOM     35  C   UNL     1      -5.144   4.019 -12.139  0.00  0.00    +0.047 A 
ATOM     36  C   UNL     1      -3.873   3.680 -11.641  0.00  0.00    +0.003 A 
ATOM     37  C   UNL     1      -2.919   4.677 -11.430  0.00  0.00    +0.010 A 
ATOM     38  C   UNL     1      -3.227   5.980 -11.704  0.00  0.00    +0.001 A 
ATOM     39  C   UNL     1      -4.481   6.320 -12.192  0.00  0.00    +0.002 A 
ATOM     40  C   UNL     1      -5.434   5.351 -12.416  0.00  0.00    +0.026 A 
ENDBRANCH  30  31
ENDBRANCH  25  30
ENDBRANCH  24  25
ENDBRANCH  23  24
ENDBRANCH   3  23
TORSDOF 8
