REMARK  Name = CHEMBL1173350
REMARK  1 active torsions:
REMARK  status: ('A' for Active; 'I' for Inactive)
REMARK    1  A    between atoms: C_10  and  N_11
REMARK                            x       y       z     vdW  Elec       q    Type
REMARK                         _______ _______ _______ _____ _____    ______ ____
ROOT
ATOM      1  N   UNL     1       4.381   1.570  -0.031  0.00  0.00    -0.314 N 
ATOM      2  C   UNL     1       3.983   2.988  -0.119  0.00  0.00    +0.107 C 
ATOM      3  C   UNL     1       5.158   3.772   0.520  0.00  0.00    +0.027 C 
ATOM      4  C   UNL     1       6.374   2.941   0.054  0.00  0.00    -0.015 C 
ATOM      5  C   UNL     1       5.849   1.498   0.059  0.00  0.00    +0.113 C 
ATOM      6  C   UNL     1       7.527   3.096   1.038  0.00  0.00    -0.011 C 
ATOM      7  C   UNL     1       8.050   4.534   0.984  0.00  0.00    -0.082 C 
ATOM      8  N   UNL     1       8.492   4.845  -0.381  0.00  0.00    +0.379 N 
ATOM      9  C   UNL     1       7.349   4.791  -1.302  0.00  0.00    -0.082 C 
ATOM     10  C   UNL     1       6.795   3.364  -1.347  0.00  0.00    -0.011 C 
ATOM     11  H   UNL     1       8.894   5.770  -0.401  0.00  0.00    -0.086 HD
ATOM     12  H   UNL     1       9.186   4.172  -0.670  0.00  0.00    -0.086 HD
ENDROOT
BRANCH   1  22
ATOM     13  C   UNL     1       2.472  -0.608   3.284  0.00  0.00    +0.105 A 
ATOM     14  C   UNL     1       3.212   0.275   2.593  0.00  0.00    +0.071 A 
ATOM     15  C   UNL     1       3.034  -0.041   1.177  0.00  0.00    +0.077 A 
ATOM     16  C   UNL     1       2.158  -1.141   1.126  0.00  0.00    +0.145 A 
ATOM     17  N   UNL     1       1.836  -1.461   2.417  0.00  0.00    -0.344 N 
ATOM     18  H   UNL     1       1.245  -2.184   2.680  0.00  0.00    +0.167 HD
ATOM     19  N   UNL     1       1.825  -1.636  -0.065  0.00  0.00    -0.218 NA
ATOM     20  C   UNL     1       2.304  -1.107  -1.170  0.00  0.00    +0.225 A 
ATOM     21  N   UNL     1       3.128  -0.074  -1.168  0.00  0.00    -0.220 NA
ATOM     22  C   UNL     1       3.519   0.489  -0.029  0.00  0.00    +0.135 A 
ATOM     23 CL   UNL     1       4.192   1.546   3.255  0.00  0.00    -0.081 Cl
ENDBRANCH   1  22
TORSDOF 1
