REMARK  Name = CHEMBL470202
REMARK  7 active torsions:
REMARK  status: ('A' for Active; 'I' for Inactive)
REMARK    1  A    between atoms: C_4  and  C_7
REMARK    2  A    between atoms: C_7  and  C_8
REMARK    3  A    between atoms: C_7  and  N_10
REMARK    4  A    between atoms: C_8  and  N_9
REMARK    5  A    between atoms: C_11  and  C_13
REMARK    6  A    between atoms: C_15  and  C_28
REMARK    7  A    between atoms: C_16  and  C_18
REMARK                            x       y       z     vdW  Elec       q    Type
REMARK                         _______ _______ _______ _____ _____    ______ ____
ROOT
ATOM      1  C   UNL     1       4.533  -3.604   2.203  0.00  0.00    +0.075 A 
ATOM      2  C   UNL     1       5.611  -4.055   2.946  0.00  0.00    +0.030 A 
ATOM      3  C   UNL     1       5.429  -5.127   3.791  0.00  0.00    +0.001 A 
ATOM      4  C   UNL     1       4.160  -5.708   3.857  0.00  0.00    +0.029 A 
ATOM      5  S   UNL     1       3.227  -4.708   2.710  0.00  0.00    -0.083 S 
ENDROOT
BRANCH   4   6
ATOM      6  C   UNL     1       3.708  -6.849   4.670  0.00  0.00    +0.001 A 
ATOM      7  C   UNL     1       4.451  -8.033   4.732  0.00  0.00    +0.029 A 
ATOM      8  C   UNL     1       3.989  -9.079   5.508  0.00  0.00    +0.114 A 
ATOM      9  N   UNL     1       2.866  -8.993   6.191  0.00  0.00    -0.237 NA
ATOM     10  C   UNL     1       2.114  -7.900   6.176  0.00  0.00    +0.139 A 
ATOM     11  C   UNL     1       2.513  -6.784   5.417  0.00  0.00    +0.027 A 
ATOM     12  C   UNL     1       1.489  -5.763   5.618  0.00  0.00    +0.029 A 
ATOM     13  C   UNL     1       0.574  -6.287   6.451  0.00  0.00    +0.085 A 
ATOM     14  N   UNL     1       0.929  -7.566   6.787  0.00  0.00    -0.346 N 
ATOM     15  H   UNL     1       0.424  -8.147   7.377  0.00  0.00    +0.167 HD
ENDBRANCH   4   6
BRANCH   3  16
ATOM     16  C   UNL     1       6.551  -5.651   4.609  0.00  0.00    +0.020 A 
ATOM     17  C   UNL     1       7.764  -6.065   4.142  0.00  0.00    +0.113 A 
ATOM     18  N   UNL     1       8.494  -6.465   5.204  0.00  0.00    -0.284 N 
ATOM     19  H   UNL     1       9.400  -6.810   5.174  0.00  0.00    +0.188 HD
ATOM     20  N   UNL     1       7.718  -6.296   6.357  0.00  0.00    -0.182 NA
ATOM     21  C   UNL     1       6.559  -5.804   6.009  0.00  0.00    +0.142 A 
ENDBRANCH   3  16
BRANCH   1  23
ATOM     22  N   UNL     1       3.321  -2.202   0.619  0.00  0.00    -0.306 N 
ATOM     23  C   UNL     1       4.478  -2.494   1.246  0.00  0.00    +0.251 C 
ATOM     24  O   UNL     1       5.477  -1.837   1.017  0.00  0.00    -0.270 OA
ATOM     25  H   UNL     1       2.525  -2.725   0.801  0.00  0.00    +0.150 HD
BRANCH  22  26
ATOM     26  C   UNL     1       3.266  -1.093  -0.337  0.00  0.00    +0.086 C 
BRANCH  26  30
ATOM     27  C   UNL     1      -0.739   0.371  -0.592  0.00  0.00    +0.000 A 
ATOM     28  C   UNL     1       0.323   1.257  -0.597  0.00  0.00    +0.000 A 
ATOM     29  C   UNL     1       1.619   0.783  -0.514  0.00  0.00    +0.005 A 
ATOM     30  C   UNL     1       1.853  -0.577  -0.426  0.00  0.00    -0.029 A 
ATOM     31  C   UNL     1       0.792  -1.462  -0.420  0.00  0.00    +0.005 A 
ATOM     32  C   UNL     1      -0.504  -0.989  -0.505  0.00  0.00    +0.000 A 
ENDBRANCH  26  30
BRANCH  26  33
ATOM     33  C   UNL     1       3.718  -1.584  -1.714  0.00  0.00    -0.059 C 
BRANCH  33  34
ATOM     34  N   UNL     1       5.048  -2.196  -1.603  0.00  0.00    +0.380 N 
ATOM     35  H   UNL     1       5.346  -2.520  -2.511  0.00  0.00    -0.090 HD
ATOM     36  H   UNL     1       5.705  -1.513  -1.258  0.00  0.00    -0.090 HD
ATOM     37  H   UNL     1       5.007  -2.977  -0.965  0.00  0.00    -0.090 HD
ENDBRANCH  33  34
ENDBRANCH  26  33
ENDBRANCH  22  26
ENDBRANCH   1  23
TORSDOF 7
