REMARK  Name = CHEMBL594749
REMARK  9 active torsions:
REMARK  status: ('A' for Active; 'I' for Inactive)
REMARK    1  A    between atoms: C_1  and  C_2
REMARK    2  A    between atoms: C_5  and  C_12
REMARK    3  A    between atoms: C_14  and  O_24
REMARK    4  A    between atoms: C_17  and  C_18
REMARK    5  A    between atoms: O_24  and  C_25
REMARK    6  A    between atoms: C_25  and  C_26
REMARK    7  A    between atoms: C_26  and  C_28
REMARK    8  A    between atoms: C_26  and  N_35
REMARK    9  A    between atoms: C_28  and  C_29
REMARK                            x       y       z     vdW  Elec       q    Type
REMARK                         _______ _______ _______ _____ _____    ______ ____
ROOT
ATOM      1  C   UNL     1      -0.008  -1.429  -4.905  0.00  0.00    +0.013 A 
ATOM      2  C   UNL     1      -1.002  -0.638  -5.480  0.00  0.00    +0.058 A 
ATOM      3  C   UNL     1      -0.964  -0.423  -6.853  0.00  0.00    +0.139 A 
ATOM      4  C   UNL     1       0.053  -0.996  -7.605  0.00  0.00    +0.157 A 
ATOM      5  N   UNL     1       0.981  -1.740  -7.040  0.00  0.00    -0.249 NA
ATOM      6  C   UNL     1       0.993  -1.970  -5.732  0.00  0.00    +0.095 A 
ENDROOT
BRANCH   1  11
ATOM      7  C   UNL     1       3.460  -0.823  -0.399  0.00  0.00    +0.068 C 
ATOM      8  C   UNL     1       2.082  -1.413  -0.246  0.00  0.00    +0.067 A 
ATOM      9  C   UNL     1       1.110  -1.619  -1.316  0.00  0.00    +0.023 A 
ATOM     10  C   UNL     1       1.115  -1.369  -2.691  0.00  0.00    +0.020 A 
ATOM     11  C   UNL     1      -0.002  -1.690  -3.446  0.00  0.00    -0.015 A 
ATOM     12  C   UNL     1      -1.127  -2.259  -2.834  0.00  0.00    +0.010 A 
ATOM     13  C   UNL     1      -1.139  -2.506  -1.494  0.00  0.00    +0.028 A 
ATOM     14  C   UNL     1      -0.027  -2.192  -0.713  0.00  0.00    +0.066 A 
ATOM     15  N   UNL     1       0.256  -2.317   0.622  0.00  0.00    -0.277 N 
ATOM     16  H   UNL     1      -0.342  -2.683   1.292  0.00  0.00    +0.189 HD
ATOM     17  N   UNL     1       1.547  -1.837   0.863  0.00  0.00    -0.178 NA
ENDBRANCH   1  11
BRANCH   6  18
ATOM     18  C   UNL     1       2.058  -2.804  -5.144  0.00  0.00    +0.066 A 
ATOM     19  C   UNL     1       3.378  -2.782  -5.489  0.00  0.00    +0.029 A 
ATOM     20  C   UNL     1       4.034  -3.728  -4.686  0.00  0.00    +0.019 A 
ATOM     21  C   UNL     1       3.111  -4.297  -3.881  0.00  0.00    +0.083 A 
ATOM     22  N   UNL     1       1.899  -3.735  -4.149  0.00  0.00    -0.359 N 
ATOM     23  H   UNL     1       1.062  -3.958  -3.710  0.00  0.00    +0.165 HD
ENDBRANCH   6  18
BRANCH   3  24
ATOM     24  O   UNL     1      -1.914   0.341  -7.454  0.00  0.00    -0.492 OA
BRANCH  24  25
ATOM     25  C   UNL     1      -1.807   0.516  -8.868  0.00  0.00    +0.213 C 
BRANCH  25  26
ATOM     26  C   UNL     1      -2.956   1.398  -9.361  0.00  0.00    -0.033 C 
BRANCH  26  27
ATOM     27  N   UNL     1      -2.818   2.745  -8.792  0.00  0.00    +0.382 N 
ATOM     28  H   UNL     1      -1.938   3.145  -9.082  0.00  0.00    -0.089 HD
ATOM     29  H   UNL     1      -3.575   3.327  -9.117  0.00  0.00    -0.089 HD
ATOM     30  H   UNL     1      -2.845   2.689  -7.785  0.00  0.00    -0.089 HD
ENDBRANCH  26  27
BRANCH  26  31
ATOM     31  C   UNL     1      -2.914   1.484 -10.888  0.00  0.00    +0.022 C 
BRANCH  31  32
ATOM     32  C   UNL     1      -4.114   2.250 -11.382  0.00  0.00    -0.049 A 
ATOM     33  C   UNL     1      -5.288   1.582 -11.677  0.00  0.00    +0.003 A 
ATOM     34  C   UNL     1      -6.389   2.285 -12.129  0.00  0.00    +0.000 A 
ATOM     35  C   UNL     1      -6.316   3.656 -12.286  0.00  0.00    +0.000 A 
ATOM     36  C   UNL     1      -5.143   4.325 -11.991  0.00  0.00    +0.000 A 
ATOM     37  C   UNL     1      -4.043   3.622 -11.534  0.00  0.00    +0.003 A 
ENDBRANCH  31  32
ENDBRANCH  26  31
ENDBRANCH  25  26
ENDBRANCH  24  25
ENDBRANCH   3  24
TORSDOF 8
