REMARK  Name = CHEMBL207496
REMARK  7 active torsions:
REMARK  status: ('A' for Active; 'I' for Inactive)
REMARK    1  A    between atoms: C_7  and  C_11
REMARK    2  A    between atoms: C_11  and  C_12
REMARK    3  A    between atoms: C_12  and  C_14
REMARK    4  A    between atoms: C_12  and  N_32
REMARK    5  A    between atoms: C_14  and  O_15
REMARK    6  A    between atoms: O_15  and  C_16
REMARK    7  A    between atoms: C_24  and  C_26
REMARK                            x       y       z     vdW  Elec       q    Type
REMARK                         _______ _______ _______ _____ _____    ______ ____
ROOT
ATOM      1  C   UNL     1      -0.614  -4.861  -1.466  0.00  0.00    +0.213 C 
ENDROOT
BRANCH   1   2
ATOM      2  C   UNL     1       0.236  -3.589  -1.455  0.00  0.00    -0.033 C 
BRANCH   2   3
ATOM      3  N   UNL     1      -0.552  -2.469  -1.986  0.00  0.00    +0.382 N 
ATOM      4  H   UNL     1      -1.370  -2.331  -1.412  0.00  0.00    -0.089 HD
ATOM      5  H   UNL     1       0.009  -1.630  -1.979  0.00  0.00    -0.089 HD
ATOM      6  H   UNL     1      -0.836  -2.676  -2.932  0.00  0.00    -0.089 HD
ENDBRANCH   2   3
BRANCH   2   7
ATOM      7  C   UNL     1       0.666  -3.275  -0.021  0.00  0.00    +0.024 C 
BRANCH   7  14
ATOM      8  C   UNL     1      -0.017   1.362   0.009  0.00  0.00    +0.001 A 
ATOM      9  C   UNL     1       1.170   2.083   0.002  0.00  0.00    +0.002 A 
ATOM     10  C   UNL     1       2.386   1.436  -0.013  0.00  0.00    +0.026 A 
ATOM     11  C   UNL     1       2.428   0.046  -0.021  0.00  0.00    +0.047 A 
ATOM     12  C   UNL     1       1.223  -0.681  -0.013  0.00  0.00    +0.003 A 
ATOM     13  C   UNL     1       0.002  -0.004   0.002  0.00  0.00    +0.010 A 
ATOM     14  C   UNL     1       1.604  -2.095  -0.025  0.00  0.00    -0.024 A 
ATOM     15  C   UNL     1       2.945  -2.141  -0.038  0.00  0.00    +0.087 A 
ATOM     16  N   UNL     1       3.455  -0.871  -0.036  0.00  0.00    -0.360 N 
ATOM     17  H   UNL     1       4.399  -0.650  -0.044  0.00  0.00    +0.165 HD
ENDBRANCH   7  14
ENDBRANCH   2   7
ENDBRANCH   1   2
BRANCH   1  18
ATOM     18  O   UNL     1      -0.919  -5.219  -2.816  0.00  0.00    -0.491 OA
BRANCH  18  19
ATOM     19  C   UNL     1      -1.672  -6.333  -3.003  0.00  0.00    +0.148 A 
ATOM     20  C   UNL     1      -2.120  -7.071  -1.927  0.00  0.00    +0.157 A 
ATOM     21  N   UNL     1      -2.856  -8.159  -2.093  0.00  0.00    -0.257 NA
ATOM     22  C   UNL     1      -3.207  -8.609  -3.274  0.00  0.00    +0.139 A 
ATOM     23  C   UNL     1      -2.804  -7.933  -4.439  0.00  0.00    +0.093 A 
ATOM     24  C   UNL     1      -2.020  -6.759  -4.300  0.00  0.00    +0.045 A 
ATOM     25  C   UNL     1      -1.610  -6.063  -5.451  0.00  0.00    +0.016 A 
ATOM     26  C   UNL     1      -1.994  -6.550  -6.667  0.00  0.00    +0.029 A 
ATOM     27  C   UNL     1      -2.775  -7.714  -6.739  0.00  0.00    +0.072 A 
ATOM     28  N   UNL     1      -3.145  -8.366  -5.654  0.00  0.00    -0.245 NA
BRANCH  27  29
ATOM     29  C   UNL     1      -3.184  -8.229  -8.068  0.00  0.00    +0.003 A 
ATOM     30  C   UNL     1      -2.797  -7.576  -9.242  0.00  0.00    +0.030 A 
ATOM     31  C   UNL     1      -3.200  -8.091 -10.458  0.00  0.00    +0.111 A 
ATOM     32  N   UNL     1      -3.938  -9.182 -10.521  0.00  0.00    -0.263 NA
ATOM     33  C   UNL     1      -4.324  -9.828  -9.438  0.00  0.00    +0.111 A 
ATOM     34  C   UNL     1      -3.962  -9.385  -8.182  0.00  0.00    +0.030 A 
ENDBRANCH  27  29
ENDBRANCH  18  19
ENDBRANCH   1  18
TORSDOF 7
