REMARK  Name = CHEMBL270157
REMARK  6 active torsions:
REMARK  status: ('A' for Active; 'I' for Inactive)
REMARK    1  A    between atoms: C_4  and  C_7
REMARK    2  A    between atoms: C_10  and  N_41
REMARK    3  A    between atoms: C_16  and  C_17
REMARK    4  A    between atoms: C_20  and  C_23
REMARK    5  A    between atoms: C_23  and  N_24
REMARK    6  A    between atoms: C_27  and  N_30
REMARK                            x       y       z     vdW  Elec       q    Type
REMARK                         _______ _______ _______ _____ _____    ______ ____
ROOT
ATOM      1  C   UNL     1       2.885  -2.068   1.873  0.00  0.00    +0.001 A 
ATOM      2  C   UNL     1       2.061  -1.071   2.395  0.00  0.00    +0.010 A 
ATOM      3  C   UNL     1       1.080  -1.399   3.307  0.00  0.00    +0.002 A 
ATOM      4  C   UNL     1       0.912  -2.713   3.705  0.00  0.00    -0.064 A 
ATOM      5  C   UNL     1       1.726  -3.707   3.191  0.00  0.00    +0.002 A 
ATOM      6  C   UNL     1       2.707  -3.392   2.273  0.00  0.00    +0.010 A 
ENDROOT
BRANCH   1  16
ATOM      7  C   UNL     1       3.698  -0.687  -0.038  0.00  0.00    +0.009 A 
ATOM      8  C   UNL     1       4.669  -0.340  -0.962  0.00  0.00    +0.025 A 
ATOM      9  C   UNL     1       5.882  -1.048  -0.943  0.00  0.00    +0.060 A 
ATOM     10  C   UNL     1       7.061  -0.996  -1.686  0.00  0.00    +0.121 A 
ATOM     11  N   UNL     1       7.887  -1.938  -1.202  0.00  0.00    -0.262 N 
ATOM     12  N   UNL     1       7.272  -2.616  -0.145  0.00  0.00    -0.152 NA
ATOM     13  H   UNL     1       8.779  -2.120  -1.536  0.00  0.00    +0.190 HD
ATOM     14  C   UNL     1       6.064  -2.120   0.051  0.00  0.00    +0.184 A 
ATOM     15  N   UNL     1       5.072  -2.394   0.913  0.00  0.00    -0.225 NA
ATOM     16  C   UNL     1       3.941  -1.723   0.892  0.00  0.00    +0.081 A 
BRANCH   7  20
ATOM     17  C   UNL     1      -0.017   1.379   0.010  0.00  0.00    +0.000 A 
ATOM     18  C   UNL     1       1.169   2.093   0.002  0.00  0.00    +0.001 A 
ATOM     19  C   UNL     1       2.377   1.427  -0.013  0.00  0.00    +0.008 A 
ATOM     20  C   UNL     1       2.403   0.033  -0.021  0.00  0.00    -0.016 A 
ATOM     21  C   UNL     1       1.205  -0.680  -0.013  0.00  0.00    +0.008 A 
ATOM     22  C   UNL     1       0.002  -0.004   0.002  0.00  0.00    +0.001 A 
ENDBRANCH   7  20
BRANCH  10  23
ATOM     23  N   UNL     1       7.330  -0.132  -2.733  0.00  0.00    -0.343 N 
ATOM     24  H   UNL     1       6.663   0.517  -3.010  0.00  0.00    +0.144 HD
ATOM     25  H   UNL     1       8.184  -0.174  -3.189  0.00  0.00    +0.144 HD
ENDBRANCH  10  23
ENDBRANCH   1  16
BRANCH   4  26
ATOM     26  C   UNL     1      -0.162  -3.064   4.702  0.00  0.00    -0.043 C 
BRANCH  26  27
ATOM     27  N   UNL     1      -1.408  -3.377   3.990  0.00  0.00    +0.382 N 
ATOM     28  C   UNL     1      -1.889  -2.176   3.296  0.00  0.00    -0.076 C 
ATOM     29  C   UNL     1      -3.142  -2.517   2.487  0.00  0.00    +0.006 C 
ATOM     30  C   UNL     1      -4.230  -3.031   3.435  0.00  0.00    +0.089 C 
ATOM     31  C   UNL     1      -3.692  -4.239   4.207  0.00  0.00    +0.006 C 
ATOM     32  C   UNL     1      -2.418  -3.834   4.952  0.00  0.00    -0.076 C 
ATOM     33  H   UNL     1      -1.234  -4.107   3.315  0.00  0.00    -0.081 HD
BRANCH  30  34
ATOM     34  N   UNL     1      -5.407  -3.431   2.658  0.00  0.00    -0.289 N 
ATOM     35  C   UNL     1      -6.684  -2.889   2.778  0.00  0.00    +0.070 A 
ATOM     36  C   UNL     1      -7.226  -1.897   3.581  0.00  0.00    +0.028 A 
ATOM     37  C   UNL     1      -8.564  -1.574   3.466  0.00  0.00    +0.002 A 
ATOM     38  C   UNL     1      -9.366  -2.236   2.552  0.00  0.00    +0.002 A 
ATOM     39  C   UNL     1      -8.835  -3.226   1.748  0.00  0.00    +0.028 A 
ATOM     40  C   UNL     1      -7.493  -3.557   1.856  0.00  0.00    +0.067 A 
ATOM     41  N   UNL     1      -6.682  -4.483   1.205  0.00  0.00    -0.306 N 
ATOM     42  H   UNL     1      -6.965  -5.096   0.509  0.00  0.00    +0.170 HD
ATOM     43  C   UNL     1      -5.435  -4.380   1.704  0.00  0.00    +0.328 A 
ATOM     44  O   UNL     1      -4.481  -5.045   1.348  0.00  0.00    -0.247 OA
ENDBRANCH  30  34
ENDBRANCH  26  27
ENDBRANCH   4  26
TORSDOF 6
