REMARK  Name = CHEMBL593142
REMARK  9 active torsions:
REMARK  status: ('A' for Active; 'I' for Inactive)
REMARK    1  A    between atoms: C_1  and  C_2
REMARK    2  A    between atoms: C_5  and  C_12
REMARK    3  A    between atoms: C_14  and  O_23
REMARK    4  A    between atoms: C_17  and  C_18
REMARK    5  A    between atoms: O_23  and  C_24
REMARK    6  A    between atoms: C_24  and  C_25
REMARK    7  A    between atoms: C_25  and  C_27
REMARK    8  A    between atoms: C_25  and  N_38
REMARK    9  A    between atoms: C_27  and  C_28
REMARK                            x       y       z     vdW  Elec       q    Type
REMARK                         _______ _______ _______ _____ _____    ______ ____
ROOT
ATOM      1  C   UNL     1      -0.004  -1.421  -4.904  0.00  0.00    +0.012 A 
ATOM      2  C   UNL     1      -0.935  -0.548  -5.465  0.00  0.00    +0.057 A 
ATOM      3  C   UNL     1      -0.905  -0.344  -6.840  0.00  0.00    +0.139 A 
ATOM      4  C   UNL     1       0.043  -1.008  -7.606  0.00  0.00    +0.157 A 
ATOM      5  N   UNL     1       0.912  -1.828  -7.052  0.00  0.00    -0.251 NA
ATOM      6  C   UNL     1       0.927  -2.052  -5.745  0.00  0.00    +0.082 A 
ENDROOT
BRANCH   1  11
ATOM      7  C   UNL     1      -0.018   1.503   0.010  0.00  0.00    +0.068 C 
ATOM      8  C   UNL     1       0.002  -0.004   0.002  0.00  0.00    +0.067 A 
ATOM      9  C   UNL     1       0.008  -0.858  -1.182  0.00  0.00    +0.023 A 
ATOM     10  C   UNL     1      -0.002  -0.608  -2.557  0.00  0.00    +0.020 A 
ATOM     11  C   UNL     1       0.008  -1.674  -3.443  0.00  0.00    -0.015 A 
ATOM     12  C   UNL     1       0.029  -2.990  -2.963  0.00  0.00    +0.010 A 
ATOM     13  C   UNL     1       0.039  -3.241  -1.623  0.00  0.00    +0.028 A 
ATOM     14  C   UNL     1       0.029  -2.186  -0.712  0.00  0.00    +0.066 A 
ATOM     15  N   UNL     1       0.035  -2.119   0.657  0.00  0.00    -0.277 N 
ATOM     16  H   UNL     1       0.049  -2.881   1.257  0.00  0.00    +0.189 HD
ATOM     17  N   UNL     1       0.023  -0.777   1.050  0.00  0.00    -0.178 NA
ENDBRANCH   1  11
BRANCH   6  18
ATOM     18  C   UNL     1       1.930  -2.978  -5.169  0.00  0.00    +0.039 A 
ATOM     19  C   UNL     1       2.470  -4.195  -5.787  0.00  0.00    +0.051 A 
ATOM     20  C   UNL     1       3.342  -4.705  -4.902  0.00  0.00    +0.195 A 
ATOM     21  O   UNL     1       3.377  -3.915  -3.818  0.00  0.00    -0.470 OA
ATOM     22  C   UNL     1       2.544  -2.874  -3.961  0.00  0.00    +0.204 A 
ENDBRANCH   6  18
BRANCH   3  23
ATOM     23  O   UNL     1      -1.795   0.499  -7.428  0.00  0.00    -0.492 OA
BRANCH  23  24
ATOM     24  C   UNL     1      -1.700   0.656  -8.845  0.00  0.00    +0.213 C 
BRANCH  24  25
ATOM     25  C   UNL     1      -2.776   1.635  -9.322  0.00  0.00    -0.033 C 
BRANCH  25  26
ATOM     26  N   UNL     1      -2.508   2.967  -8.764  0.00  0.00    +0.382 N 
ATOM     27  H   UNL     1      -3.217   3.612  -9.079  0.00  0.00    -0.089 HD
ATOM     28  H   UNL     1      -2.521   2.918  -7.757  0.00  0.00    -0.089 HD
ATOM     29  H   UNL     1      -1.602   3.285  -9.074  0.00  0.00    -0.089 HD
ENDBRANCH  25  26
BRANCH  25  30
ATOM     30  C   UNL     1      -2.756   1.708 -10.850  0.00  0.00    +0.024 C 
BRANCH  30  31
ATOM     31  C   UNL     1      -3.893   2.575 -11.326  0.00  0.00    -0.022 A 
ATOM     32  C   UNL     1      -5.109   2.158 -11.712  0.00  0.00    +0.087 A 
ATOM     33  N   UNL     1      -5.877   3.231 -12.078  0.00  0.00    -0.360 N 
ATOM     34  H   UNL     1      -6.793   3.179 -12.393  0.00  0.00    +0.165 HD
ATOM     35  C   UNL     1      -5.160   4.390 -11.934  0.00  0.00    +0.049 A 
ATOM     36  C   UNL     1      -3.883   4.034 -11.450  0.00  0.00    +0.019 A 
ATOM     37  C   UNL     1      -2.946   5.035 -11.207  0.00  0.00    +0.092 A 
ATOM     38  N   UNL     1      -3.255   6.297 -11.426  0.00  0.00    -0.366 N 
ATOM     39  C   UNL     1      -4.443   6.664 -11.877  0.00  0.00    +0.084 A 
ATOM     40  C   UNL     1      -5.426   5.740 -12.152  0.00  0.00    +0.043 A 
ATOM     41  H   UNL     1      -2.589   6.979 -11.251  0.00  0.00    +0.165 HD
ENDBRANCH  30  31
ENDBRANCH  25  30
ENDBRANCH  24  25
ENDBRANCH  23  24
ENDBRANCH   3  23
TORSDOF 8
