REMARK  Name = CHEMBL523695
REMARK  5 active torsions:
REMARK  status: ('A' for Active; 'I' for Inactive)
REMARK    1  A    between atoms: C_1  and  C_2
REMARK    2  A    between atoms: C_2  and  N_3
REMARK    3  A    between atoms: C_5  and  C_18
REMARK    4  A    between atoms: C_11  and  C_12
REMARK    5  A    between atoms: C_23  and  N_26
REMARK                            x       y       z     vdW  Elec       q    Type
REMARK                         _______ _______ _______ _____ _____    ______ ____
ROOT
ATOM      1  N   UNL     1      -1.613   0.058   0.142  0.00  0.00    -0.322 N 
ATOM      2  C   UNL     1      -2.206  -0.612   1.178  0.00  0.00    +0.084 A 
ATOM      3  C   UNL     1      -1.843  -0.925   2.498  0.00  0.00    +0.080 A 
ATOM      4  C   UNL     1      -2.741  -1.648   3.281  0.00  0.00    +0.126 A 
ATOM      5  N   UNL     1      -3.908  -2.033   2.800  0.00  0.00    -0.260 NA
ATOM      6  C   UNL     1      -4.292  -1.763   1.569  0.00  0.00    +0.140 A 
ATOM      7  C   UNL     1      -3.463  -1.043   0.706  0.00  0.00    +0.108 A 
ATOM      8  N   UNL     1      -3.571  -0.621  -0.575  0.00  0.00    -0.224 NA
ATOM      9  C   UNL     1      -2.488   0.034  -0.913  0.00  0.00    +0.167 A 
ENDROOT
BRANCH   9  10
ATOM     10  C   UNL     1      -2.243   0.650  -2.236  0.00  0.00    +0.190 A 
ATOM     11  C   UNL     1      -3.170   0.639  -3.375  0.00  0.00    +0.191 A 
ATOM     12  N   UNL     1      -2.610   1.279  -4.365  0.00  0.00    -0.033 NA
ATOM     13  O   UNL     1      -1.336   1.722  -3.933  0.00  0.00    -0.240 OA
ATOM     14  N   UNL     1      -1.167   1.303  -2.591  0.00  0.00    -0.044 NA
ATOM     15  N   UNL     1      -4.426   0.048  -3.396  0.00  0.00    -0.339 N 
ATOM     16  H   UNL     1      -4.760  -0.410  -2.608  0.00  0.00    +0.144 HD
ATOM     17  H   UNL     1      -4.970   0.092  -4.198  0.00  0.00    +0.144 HD
ENDBRANCH   9  10
BRANCH   3  18
ATOM     18  C   UNL     1      -0.540  -0.499   3.043  0.00  0.00    +0.250 C 
ATOM     19  O   UNL     1      -0.189   0.660   2.942  0.00  0.00    -0.270 OA
ATOM     20  N   UNL     1       0.261  -1.396   3.652  0.00  0.00    -0.299 N 
ATOM     21  C   UNL     1       0.014  -2.842   3.745  0.00  0.00    +0.106 C 
ATOM     22  C   UNL     1       1.179  -3.456   4.548  0.00  0.00    +0.004 C 
ATOM     23  C   UNL     1       1.726  -2.244   5.348  0.00  0.00    -0.056 C 
ATOM     24  C   UNL     1       1.534  -1.089   4.329  0.00  0.00    +0.092 C 
BRANCH  23  25
ATOM     25  N   UNL     1       3.147  -2.425   5.674  0.00  0.00    +0.381 N 
ATOM     26  H   UNL     1       3.679  -2.517   4.821  0.00  0.00    -0.090 HD
ATOM     27  H   UNL     1       3.478  -1.626   6.193  0.00  0.00    -0.090 HD
ATOM     28  H   UNL     1       3.260  -3.258   6.232  0.00  0.00    -0.090 HD
ENDBRANCH  23  25
ENDBRANCH   3  18
BRANCH   1  30
ATOM     29  C   UNL     1      -0.440   2.175   0.494  0.00  0.00    +0.027 C 
ATOM     30  C   UNL     1      -0.291   0.689   0.160  0.00  0.00    +0.120 C 
ENDBRANCH   1  30
TORSDOF 4
