REMARK  Name = CHEMBL512858
REMARK  7 active torsions:
REMARK  status: ('A' for Active; 'I' for Inactive)
REMARK    1  A    between atoms: C_4  and  C_7
REMARK    2  A    between atoms: C_7  and  C_8
REMARK    3  A    between atoms: C_7  and  N_10
REMARK    4  A    between atoms: C_8  and  N_9
REMARK    5  A    between atoms: C_11  and  C_13
REMARK    6  A    between atoms: C_15  and  C_28
REMARK    7  A    between atoms: C_16  and  C_18
REMARK                            x       y       z     vdW  Elec       q    Type
REMARK                         _______ _______ _______ _____ _____    ______ ____
ROOT
ATOM      1  C   UNL     1       4.604  -3.386  -2.620  0.00  0.00    +0.075 A 
ATOM      2  C   UNL     1       5.624  -4.149  -3.170  0.00  0.00    +0.025 A 
ATOM      3  C   UNL     1       5.309  -5.345  -3.750  0.00  0.00    -0.029 A 
ATOM      4  C   UNL     1       3.982  -5.749  -3.767  0.00  0.00    +0.024 A 
ATOM      5  S   UNL     1       3.167  -4.399  -2.931  0.00  0.00    -0.083 S 
ENDROOT
BRANCH   4   6
ATOM      6  C   UNL     1       3.396  -6.982  -4.326  0.00  0.00    +0.001 A 
ATOM      7  C   UNL     1       3.736  -7.427  -5.607  0.00  0.00    +0.029 A 
ATOM      8  C   UNL     1       3.164  -8.588  -6.092  0.00  0.00    +0.114 A 
ATOM      9  N   UNL     1       2.304  -9.287  -5.380  0.00  0.00    -0.237 NA
ATOM     10  C   UNL     1       1.938  -8.920  -4.159  0.00  0.00    +0.139 A 
ATOM     11  C   UNL     1       2.478  -7.753  -3.586  0.00  0.00    +0.027 A 
ATOM     12  C   UNL     1       1.887  -7.638  -2.256  0.00  0.00    +0.029 A 
ATOM     13  C   UNL     1       1.066  -8.691  -2.100  0.00  0.00    +0.085 A 
ATOM     14  N   UNL     1       1.080  -9.461  -3.232  0.00  0.00    -0.346 N 
ATOM     15  H   UNL     1       0.568 -10.276  -3.357  0.00  0.00    +0.167 HD
ENDBRANCH   4   6
BRANCH   1  17
ATOM     16  N   UNL     1       3.568  -1.500  -1.474  0.00  0.00    -0.306 N 
ATOM     17  C   UNL     1       4.686  -2.084  -1.951  0.00  0.00    +0.251 C 
ATOM     18  O   UNL     1       5.762  -1.531  -1.825  0.00  0.00    -0.270 OA
ATOM     19  H   UNL     1       2.710  -1.941  -1.575  0.00  0.00    +0.150 HD
BRANCH  16  20
ATOM     20  C   UNL     1       3.650  -0.199  -0.805  0.00  0.00    +0.086 C 
BRANCH  20  24
ATOM     21  C   UNL     1      -0.110   1.803  -1.124  0.00  0.00    +0.000 A 
ATOM     22  C   UNL     1       1.067   2.516  -1.262  0.00  0.00    +0.000 A 
ATOM     23  C   UNL     1       2.284   1.868  -1.159  0.00  0.00    +0.005 A 
ATOM     24  C   UNL     1       2.324   0.507  -0.917  0.00  0.00    -0.029 A 
ATOM     25  C   UNL     1       1.147  -0.205  -0.777  0.00  0.00    +0.005 A 
ATOM     26  C   UNL     1      -0.069   0.443  -0.882  0.00  0.00    +0.000 A 
ENDBRANCH  20  24
BRANCH  20  27
ATOM     27  C   UNL     1       3.995  -0.406   0.671  0.00  0.00    -0.059 C 
BRANCH  27  28
ATOM     28  N   UNL     1       5.227  -1.199   0.779  0.00  0.00    +0.380 N 
ATOM     29  H   UNL     1       5.455  -1.335   1.753  0.00  0.00    -0.090 HD
ATOM     30  H   UNL     1       5.090  -2.096   0.337  0.00  0.00    -0.090 HD
ATOM     31  H   UNL     1       5.983  -0.711   0.322  0.00  0.00    -0.090 HD
ENDBRANCH  27  28
ENDBRANCH  20  27
ENDBRANCH  16  20
ENDBRANCH   1  17
BRANCH   3  32
ATOM     32  C   UNL     1       6.382  -6.209  -4.360  0.00  0.00    +0.020 C 
ATOM     33  C   UNL     1       7.836  -5.873  -4.023  0.00  0.00    +0.009 C 
ATOM     34  C   UNL     1       7.285  -5.572  -5.418  0.00  0.00    +0.009 C 
ENDBRANCH   3  32
TORSDOF 7
