REMARK  Name = CHEMBL1173384
REMARK  5 active torsions:
REMARK  status: ('A' for Active; 'I' for Inactive)
REMARK    1  A    between atoms: C_1  and  C_2
REMARK    2  A    between atoms: C_8  and  N_12
REMARK    3  A    between atoms: C_15  and  C_17
REMARK    4  A    between atoms: C_15  and  N_21
REMARK    5  A    between atoms: C_17  and  N_18
REMARK                            x       y       z     vdW  Elec       q    Type
REMARK                         _______ _______ _______ _____ _____    ______ ____
ROOT
ATOM      1  N   UNL     1       0.009   0.688   2.848  0.00  0.00    -0.316 N 
ATOM      2  C   UNL     1      -0.222   1.909   2.055  0.00  0.00    +0.105 C 
ATOM      3  C   UNL     1      -0.751   2.949   3.074  0.00  0.00    +0.009 C 
ATOM      4  C   UNL     1       0.088   2.605   4.333  0.00  0.00    -0.038 C 
ATOM      5  C   UNL     1       0.215   1.069   4.253  0.00  0.00    +0.095 C 
ENDROOT
BRANCH   1  13
ATOM      6  C   UNL     1      -3.173   0.211   3.003  0.00  0.00    +0.046 C 
ATOM      7  C   UNL     1      -2.583  -1.062   2.453  0.00  0.00    -0.021 A 
ATOM      8  C   UNL     1      -3.257  -2.167   2.096  0.00  0.00    +0.088 A 
ATOM      9  N   UNL     1      -2.381  -3.119   1.642  0.00  0.00    -0.345 N 
ATOM     10  H   UNL     1      -2.632  -4.001   1.327  0.00  0.00    +0.167 HD
ATOM     11  C   UNL     1      -1.100  -2.641   1.697  0.00  0.00    +0.143 A 
ATOM     12  C   UNL     1      -1.168  -1.329   2.201  0.00  0.00    +0.061 A 
ATOM     13  C   UNL     1       0.023  -0.604   2.353  0.00  0.00    +0.134 A 
ATOM     14  N   UNL     1       1.167  -1.189   2.009  0.00  0.00    -0.220 NA
ATOM     15  C   UNL     1       1.185  -2.422   1.536  0.00  0.00    +0.225 A 
ATOM     16  N   UNL     1       0.094  -3.142   1.385  0.00  0.00    -0.218 NA
ENDBRANCH   1  13
BRANCH   4  17
ATOM     17  N   UNL     1       1.409   3.245   4.269  0.00  0.00    +0.384 N 
ATOM     18  H   UNL     1       1.296   4.247   4.241  0.00  0.00    -0.089 HD
ATOM     19  H   UNL     1       1.946   2.990   5.085  0.00  0.00    -0.089 HD
ATOM     20  H   UNL     1       1.891   2.938   3.439  0.00  0.00    -0.089 HD
ENDBRANCH   4  17
BRANCH   4  21
ATOM     21  C   UNL     1      -0.654   3.018   5.607  0.00  0.00    +0.092 C 
BRANCH  21  22
ATOM     22  N   UNL     1      -0.870   4.466   5.598  0.00  0.00    -0.319 N 
ATOM     23  C   UNL     1      -1.509   5.058   6.627  0.00  0.00    +0.325 C 
ATOM     24  O   UNL     1      -1.905   4.391   7.560  0.00  0.00    -0.280 OA
ATOM     25  H   UNL     1      -0.553   5.000   4.853  0.00  0.00    +0.148 HD
ENDBRANCH  21  22
ENDBRANCH   4  21
TORSDOF 4
