REMARK  Name = CHEMBL603675
REMARK  8 active torsions:
REMARK  status: ('A' for Active; 'I' for Inactive)
REMARK    1  A    between atoms: C_1  and  C_2
REMARK    2  A    between atoms: C_2  and  C_3
REMARK    3  A    between atoms: C_2  and  C_4
REMARK    4  A    between atoms: C_2  and  C_5
REMARK    5  A    between atoms: C_8  and  C_11
REMARK    6  A    between atoms: C_11  and  C_12
REMARK    7  A    between atoms: C_12  and  N_28
REMARK    8  A    between atoms: N_15  and  C_18
REMARK                            x       y       z     vdW  Elec       q    Type
REMARK                         _______ _______ _______ _____ _____    ______ ____
ROOT
ATOM      1  C   UNL     1       2.512  -0.855  -5.881  0.00  0.00    -0.064 C 
ATOM      2  C   UNL     1       1.018  -0.697  -6.172  0.00  0.00    +0.006 C 
ATOM      3  C   UNL     1       0.430  -2.057  -6.560  0.00  0.00    +0.104 C 
ATOM      4  N   UNL     1       1.208  -2.606  -7.679  0.00  0.00    -0.329 N 
ATOM      5  C   UNL     1       2.666  -2.717  -7.539  0.00  0.00    +0.104 C 
ATOM      6  C   UNL     1       3.229  -1.349  -7.140  0.00  0.00    +0.006 C 
ENDROOT
BRANCH   4   7
ATOM      7  C   UNL     1       0.578  -3.012  -8.844  0.00  0.00    +0.043 A 
ATOM      8  C   UNL     1       0.381  -2.138  -9.899  0.00  0.00    +0.043 A 
ATOM      9  C   UNL     1      -0.253  -2.568 -11.057  0.00  0.00    +0.115 A 
ATOM     10  N   UNL     1      -0.693  -3.789 -11.226  0.00  0.00    -0.234 NA
ATOM     11  C   UNL     1      -0.563  -4.732 -10.278  0.00  0.00    +0.183 A 
ATOM     12  C   UNL     1       0.100  -4.383  -9.012  0.00  0.00    +0.059 A 
ATOM     13  C   UNL     1       0.102  -5.524  -8.238  0.00  0.00    +0.116 A 
ATOM     14  N   UNL     1      -0.492  -6.497  -8.941  0.00  0.00    -0.282 N 
ATOM     15  N   UNL     1      -0.905  -6.004 -10.184  0.00  0.00    -0.154 NA
ATOM     16  H   UNL     1      -0.625  -7.406  -8.631  0.00  0.00    +0.188 HD
ENDBRANCH   4   7
BRANCH   1  17
ATOM     17  N   UNL     1       3.071   0.442  -5.477  0.00  0.00    +0.382 N 
ATOM     18  H   UNL     1       4.056   0.338  -5.285  0.00  0.00    -0.089 HD
ATOM     19  H   UNL     1       2.943   1.111  -6.222  0.00  0.00    -0.089 HD
ATOM     20  H   UNL     1       2.599   0.768  -4.647  0.00  0.00    -0.089 HD
ENDBRANCH   1  17
BRANCH   1  21
ATOM     21  C   UNL     1       2.707  -1.868  -4.752  0.00  0.00    +0.022 C 
BRANCH  21  25
ATOM     22  C   UNL     1       0.707  -0.490  -1.238  0.00  0.00    -0.042 A 
ATOM     23  C   UNL     1       0.036  -1.284  -2.148  0.00  0.00    +0.004 A 
ATOM     24  C   UNL     1       0.683  -1.730  -3.286  0.00  0.00    +0.004 A 
ATOM     25  C   UNL     1       2.001  -1.381  -3.513  0.00  0.00    -0.049 A 
ATOM     26  C   UNL     1       2.672  -0.586  -2.603  0.00  0.00    +0.004 A 
ATOM     27  C   UNL     1       2.024  -0.137  -1.467  0.00  0.00    +0.004 A 
BRANCH  22  29
ATOM     28  C   UNL     1      -0.019   1.526   0.010  0.00  0.00    +0.015 C 
ATOM     29  C   UNL     1       0.002  -0.004   0.002  0.00  0.00    -0.013 C 
ATOM     30  C   UNL     1       0.742  -0.511   1.242  0.00  0.00    +0.015 C 
ATOM     31  C   UNL     1      -1.433  -0.534   0.013  0.00  0.00    +0.015 C 
ENDBRANCH  22  29
ENDBRANCH  21  25
ENDBRANCH   1  21
TORSDOF 5
