REMARK  Name = CHEMBL595708
REMARK  9 active torsions:
REMARK  status: ('A' for Active; 'I' for Inactive)
REMARK    1  A    between atoms: C_1  and  C_2
REMARK    2  A    between atoms: C_5  and  C_12
REMARK    3  A    between atoms: C_14  and  O_23
REMARK    4  A    between atoms: C_17  and  C_18
REMARK    5  A    between atoms: O_23  and  C_24
REMARK    6  A    between atoms: C_24  and  C_25
REMARK    7  A    between atoms: C_25  and  C_27
REMARK    8  A    between atoms: C_25  and  N_34
REMARK    9  A    between atoms: C_27  and  C_28
REMARK                            x       y       z     vdW  Elec       q    Type
REMARK                         _______ _______ _______ _____ _____    ______ ____
ROOT
ATOM      1  C   UNL     1      -0.002  -1.421  -4.904  0.00  0.00    +0.015 A 
ATOM      2  C   UNL     1      -0.933  -0.548  -5.466  0.00  0.00    +0.058 A 
ATOM      3  C   UNL     1      -0.902  -0.344  -6.840  0.00  0.00    +0.139 A 
ATOM      4  C   UNL     1       0.046  -1.010  -7.608  0.00  0.00    +0.157 A 
ATOM      5  N   UNL     1       0.915  -1.830  -7.055  0.00  0.00    -0.248 NA
ATOM      6  C   UNL     1       0.930  -2.054  -5.746  0.00  0.00    +0.114 A 
ENDROOT
BRANCH   1  11
ATOM      7  C   UNL     1      -0.018   1.503   0.010  0.00  0.00    +0.068 C 
ATOM      8  C   UNL     1       0.002  -0.004   0.002  0.00  0.00    +0.067 A 
ATOM      9  C   UNL     1       0.008  -0.858  -1.182  0.00  0.00    +0.023 A 
ATOM     10  C   UNL     1      -0.002  -0.608  -2.557  0.00  0.00    +0.020 A 
ATOM     11  C   UNL     1       0.008  -1.675  -3.444  0.00  0.00    -0.015 A 
ATOM     12  C   UNL     1       0.028  -2.990  -2.963  0.00  0.00    +0.010 A 
ATOM     13  C   UNL     1       0.037  -3.241  -1.623  0.00  0.00    +0.028 A 
ATOM     14  C   UNL     1       0.029  -2.186  -0.712  0.00  0.00    +0.066 A 
ATOM     15  N   UNL     1       0.034  -2.119   0.657  0.00  0.00    -0.277 N 
ATOM     16  H   UNL     1       0.047  -2.881   1.257  0.00  0.00    +0.189 HD
ATOM     17  N   UNL     1       0.023  -0.777   1.050  0.00  0.00    -0.178 NA
ENDBRANCH   1  11
BRANCH   6  18
ATOM     18  C   UNL     1       1.928  -2.977  -5.173  0.00  0.00    +0.153 A 
ATOM     19  C   UNL     1       2.412  -4.101  -5.768  0.00  0.00    +0.051 A 
ATOM     20  C   UNL     1       3.335  -4.670  -4.870  0.00  0.00    +0.042 A 
ATOM     21  C   UNL     1       3.369  -3.875  -3.781  0.00  0.00    +0.196 A 
ATOM     22  O   UNL     1       2.522  -2.850  -3.970  0.00  0.00    -0.461 OA
ENDBRANCH   6  18
BRANCH   3  23
ATOM     23  O   UNL     1      -1.791   0.499  -7.428  0.00  0.00    -0.492 OA
BRANCH  23  24
ATOM     24  C   UNL     1      -1.696   0.656  -8.845  0.00  0.00    +0.213 C 
BRANCH  24  25
ATOM     25  C   UNL     1      -2.771   1.635  -9.323  0.00  0.00    -0.033 C 
BRANCH  25  26
ATOM     26  N   UNL     1      -2.502   2.967  -8.765  0.00  0.00    +0.382 N 
ATOM     27  H   UNL     1      -3.211   3.613  -9.080  0.00  0.00    -0.089 HD
ATOM     28  H   UNL     1      -2.515   2.919  -7.757  0.00  0.00    -0.089 HD
ATOM     29  H   UNL     1      -1.596   3.285  -9.075  0.00  0.00    -0.089 HD
ENDBRANCH  25  26
BRANCH  25  30
ATOM     30  C   UNL     1      -2.751   1.709 -10.851  0.00  0.00    +0.022 C 
BRANCH  30  31
ATOM     31  C   UNL     1      -3.887   2.577 -11.327  0.00  0.00    -0.049 A 
ATOM     32  C   UNL     1      -5.121   2.015 -11.595  0.00  0.00    +0.003 A 
ATOM     33  C   UNL     1      -6.163   2.811 -12.032  0.00  0.00    +0.000 A 
ATOM     34  C   UNL     1      -5.971   4.170 -12.199  0.00  0.00    +0.000 A 
ATOM     35  C   UNL     1      -4.738   4.732 -11.930  0.00  0.00    +0.000 A 
ATOM     36  C   UNL     1      -3.697   3.937 -11.490  0.00  0.00    +0.003 A 
ENDBRANCH  30  31
ENDBRANCH  25  30
ENDBRANCH  24  25
ENDBRANCH  23  24
ENDBRANCH   3  23
TORSDOF 8
