REMARK  Name = CHEMBL207139
REMARK  12 active torsions:
REMARK  status: ('A' for Active; 'I' for Inactive)
REMARK    1  A    between atoms: C_1  and  C_2
REMARK    2  A    between atoms: C_2  and  C_3
REMARK    3  A    between atoms: C_2  and  C_4
REMARK    4  A    between atoms: C_2  and  C_10
REMARK    5  A    between atoms: C_4  and  C_5
REMARK    6  A    between atoms: C_13  and  C_20
REMARK    7  A    between atoms: C_22  and  O_26
REMARK    8  A    between atoms: O_26  and  C_27
REMARK    9  A    between atoms: C_27  and  C_28
REMARK   10  A    between atoms: C_28  and  C_30
REMARK   11  A    between atoms: C_28  and  N_41
REMARK   12  A    between atoms: C_30  and  C_31
REMARK                            x       y       z     vdW  Elec       q    Type
REMARK                         _______ _______ _______ _____ _____    ______ ____
ROOT
ATOM      1  C   UNL     1       4.742   2.412  -1.783  0.00  0.00    +0.004 A 
ATOM      2  C   UNL     1       6.133   2.526  -1.837  0.00  0.00    +0.057 A 
ATOM      3  C   UNL     1       6.681   3.783  -2.059  0.00  0.00    +0.139 A 
ATOM      4  C   UNL     1       5.835   4.872  -2.218  0.00  0.00    +0.156 A 
ATOM      5  N   UNL     1       4.526   4.728  -2.160  0.00  0.00    -0.259 NA
ATOM      6  C   UNL     1       3.963   3.554  -1.958  0.00  0.00    +0.119 A 
ENDROOT
BRANCH   1  10
ATOM      7  C   UNL     1       0.691  -0.688  -1.179  0.00  0.00    +0.113 C 
ATOM      8  C   UNL     1       2.131  -0.241  -1.284  0.00  0.00    -0.013 A 
ATOM      9  C   UNL     1       2.714   0.985  -1.501  0.00  0.00    +0.014 A 
ATOM     10  C   UNL     1       4.104   1.093  -1.548  0.00  0.00    -0.016 A 
ATOM     11  C   UNL     1       4.889  -0.046  -1.375  0.00  0.00    +0.010 A 
ATOM     12  C   UNL     1       4.297  -1.270  -1.157  0.00  0.00    +0.024 A 
ATOM     13  C   UNL     1       2.908  -1.381  -1.110  0.00  0.00    +0.037 A 
ATOM     14  N   UNL     1       2.091  -2.494  -0.907  0.00  0.00    -0.285 N 
ATOM     15  C   UNL     1       0.785  -2.179  -0.932  0.00  0.00    +0.225 C 
ATOM     16  O   UNL     1      -0.143  -2.945  -0.785  0.00  0.00    -0.275 OA
ATOM     17  H   UNL     1       2.428  -3.392  -0.764  0.00  0.00    +0.155 HD
BRANCH   7  19
ATOM     18  C   UNL     1      -0.053   1.514  -0.263  0.00  0.00    +0.012 C 
ATOM     19  C   UNL     1      -0.003   0.007  -0.005  0.00  0.00    -0.021 C 
ATOM     20  C   UNL     1       0.779  -0.265   1.282  0.00  0.00    +0.012 C 
BRANCH  19  21
ATOM     21  C   UNL     1      -1.427  -0.534   0.139  0.00  0.00    -0.008 C 
BRANCH  21  22
ATOM     22  C   UNL     1      -2.074   0.060   1.391  0.00  0.00    -0.071 C 
ATOM     23  C   UNL     1      -3.439  -0.613   1.647  0.00  0.00    -0.018 C 
ATOM     24  C   UNL     1      -4.322   0.563   2.140  0.00  0.00    -0.021 C 
ATOM     25  C   UNL     1      -3.783   1.738   1.286  0.00  0.00    -0.082 C 
ATOM     26  N   UNL     1      -2.327   1.499   1.190  0.00  0.00    +0.381 N 
ATOM     27  H   UNL     1      -1.848   2.030   1.901  0.00  0.00    -0.086 HD
ATOM     28  H   UNL     1      -1.996   1.778   0.279  0.00  0.00    -0.086 HD
ENDBRANCH  21  22
ENDBRANCH  19  21
ENDBRANCH   7  19
ENDBRANCH   1  10
BRANCH   3  29
ATOM     29  O   UNL     1       8.029   3.945  -2.120  0.00  0.00    -0.492 OA
BRANCH  29  30
ATOM     30  C   UNL     1       8.514   5.269  -2.351  0.00  0.00    +0.213 C 
BRANCH  30  31
ATOM     31  C   UNL     1      10.043   5.253  -2.387  0.00  0.00    -0.033 C 
BRANCH  31  32
ATOM     32  N   UNL     1      10.498   4.466  -3.541  0.00  0.00    +0.382 N 
ATOM     33  H   UNL     1      10.146   4.880  -4.391  0.00  0.00    -0.089 HD
ATOM     34  H   UNL     1      11.507   4.455  -3.564  0.00  0.00    -0.089 HD
ATOM     35  H   UNL     1      10.154   3.521  -3.460  0.00  0.00    -0.089 HD
ENDBRANCH  31  32
BRANCH  31  36
ATOM     36  C   UNL     1      10.566   6.686  -2.510  0.00  0.00    +0.024 C 
BRANCH  36  37
ATOM     37  C   UNL     1      12.070   6.682  -2.422  0.00  0.00    -0.024 A 
ATOM     38  C   UNL     1      12.806   6.882  -1.317  0.00  0.00    +0.087 A 
ATOM     39  N   UNL     1      14.137   6.805  -1.623  0.00  0.00    -0.360 N 
ATOM     40  H   UNL     1      14.862   6.916  -0.988  0.00  0.00    +0.165 HD
ATOM     41  C   UNL     1      14.295   6.548  -2.966  0.00  0.00    +0.047 A 
ATOM     42  C   UNL     1      13.007   6.453  -3.524  0.00  0.00    +0.003 A 
ATOM     43  C   UNL     1      12.856   6.189  -4.887  0.00  0.00    +0.010 A 
ATOM     44  C   UNL     1      13.962   6.020  -5.672  0.00  0.00    +0.001 A 
ATOM     45  C   UNL     1      15.235   6.108  -5.125  0.00  0.00    +0.002 A 
ATOM     46  C   UNL     1      15.406   6.377  -3.784  0.00  0.00    +0.026 A 
ENDBRANCH  36  37
ENDBRANCH  31  36
ENDBRANCH  30  31
ENDBRANCH  29  30
ENDBRANCH   3  29
TORSDOF 10
