REMARK  Name = CHEMBL213618
REMARK  8 active torsions:
REMARK  status: ('A' for Active; 'I' for Inactive)
REMARK    1  A    between atoms: C_1  and  N_2
REMARK    2  A    between atoms: C_7  and  C_9
REMARK    3  A    between atoms: C_12  and  C_14
REMARK    4  A    between atoms: N_16  and  C_17
REMARK    5  A    between atoms: C_17  and  C_19
REMARK    6  A    between atoms: C_17  and  C_28
REMARK    7  A    between atoms: C_19  and  C_20
REMARK    8  A    between atoms: C_28  and  N_29
REMARK                            x       y       z     vdW  Elec       q    Type
REMARK                         _______ _______ _______ _____ _____    ______ ____
ROOT
ATOM      1  C   UNL     1      -3.494  -7.808   0.085  0.00  0.00    +0.251 C 
ATOM      2  O   UNL     1      -2.575  -8.548   0.382  0.00  0.00    -0.270 OA
ATOM      3  N   UNL     1      -4.720  -8.316  -0.149  0.00  0.00    -0.310 N 
ATOM      4  H   UNL     1      -5.452  -7.726  -0.386  0.00  0.00    +0.149 HD
ENDROOT
BRANCH   1   8
ATOM      5  C   UNL     1      -3.315  -3.680  -0.326  0.00  0.00    +0.038 A 
ATOM      6  C   UNL     1      -2.120  -4.289   0.023  0.00  0.00    +0.018 A 
ATOM      7  C   UNL     1      -2.095  -5.647   0.178  0.00  0.00    +0.021 A 
ATOM      8  C   UNL     1      -3.267  -6.362  -0.020  0.00  0.00    +0.074 A 
ATOM      9  S   UNL     1      -4.430  -5.071  -0.428  0.00  0.00    -0.082 S 
BRANCH   5  16
ATOM     10  C   UNL     1      -2.104   2.286  -0.703  0.00  0.00    +0.128 C 
ATOM     11  N   UNL     1      -1.847   0.860  -0.491  0.00  0.00    -0.317 N 
ATOM     12  C   UNL     1      -2.876  -0.057  -0.627  0.00  0.00    +0.215 A 
ATOM     13  N   UNL     1      -4.086   0.375  -0.954  0.00  0.00    -0.223 NA
ATOM     14  C   UNL     1      -5.096  -0.468  -1.094  0.00  0.00    +0.116 A 
ATOM     15  C   UNL     1      -4.883  -1.820  -0.894  0.00  0.00    +0.049 A 
ATOM     16  C   UNL     1      -3.595  -2.247  -0.550  0.00  0.00    +0.083 A 
ATOM     17  N   UNL     1      -2.625  -1.341  -0.432  0.00  0.00    -0.214 NA
ATOM     18  H   UNL     1      -0.956   0.557  -0.256  0.00  0.00    +0.149 HD
ENDBRANCH   5  16
ENDBRANCH   1   8
BRANCH   3  19
ATOM     19  C   UNL     1      -4.946  -9.760  -0.044  0.00  0.00    +0.060 C 
BRANCH  19  20
ATOM     20  C   UNL     1      -6.239 -10.018   0.731  0.00  0.00    +0.057 C 
BRANCH  20  21
ATOM     21  C   UNL     1      -6.075  -9.546   2.153  0.00  0.00    -0.027 A 
ATOM     22  C   UNL     1      -6.547  -8.301   2.526  0.00  0.00    +0.006 A 
ATOM     23  C   UNL     1      -6.397  -7.866   3.829  0.00  0.00    +0.020 A 
ATOM     24  C   UNL     1      -5.775  -8.678   4.762  0.00  0.00    +0.042 A 
ATOM     25  C   UNL     1      -5.303  -9.923   4.389  0.00  0.00    +0.040 A 
ATOM     26  C   UNL     1      -5.458 -10.360   3.086  0.00  0.00    +0.046 A 
ATOM     27 CL   UNL     1      -4.872 -11.925   2.619  0.00  0.00    -0.083 Cl
ATOM     28 CL   UNL     1      -5.586  -8.132   6.399  0.00  0.00    -0.083 Cl
ENDBRANCH  20  21
ENDBRANCH  19  20
BRANCH  19  29
ATOM     29  C   UNL     1      -5.064 -10.361  -1.447  0.00  0.00    -0.064 C 
BRANCH  29  30
ATOM     30  N   UNL     1      -3.873 -10.010  -2.231  0.00  0.00    +0.379 N 
ATOM     31  H   UNL     1      -3.950 -10.406  -3.156  0.00  0.00    -0.090 HD
ATOM     32  H   UNL     1      -3.799  -9.006  -2.300  0.00  0.00    -0.090 HD
ATOM     33  H   UNL     1      -3.050 -10.377  -1.776  0.00  0.00    -0.090 HD
ENDBRANCH  29  30
ENDBRANCH  19  29
ENDBRANCH   3  19
TORSDOF 7
