REMARK  Name = CHEMBL1095612
REMARK  11 active torsions:
REMARK  status: ('A' for Active; 'I' for Inactive)
REMARK    1  A    between atoms: C_1  and  O_2
REMARK    2  A    between atoms: O_2  and  C_3
REMARK    3  A    between atoms: C_8  and  C_20
REMARK    4  A    between atoms: C_16  and  O_17
REMARK    5  A    between atoms: O_17  and  C_18
REMARK    6  A    between atoms: C_22  and  O_26
REMARK    7  A    between atoms: O_26  and  C_27
REMARK    8  A    between atoms: C_27  and  C_28
REMARK    9  A    between atoms: C_28  and  C_30
REMARK   10  A    between atoms: C_28  and  N_41
REMARK   11  A    between atoms: C_30  and  C_31
REMARK                            x       y       z     vdW  Elec       q    Type
REMARK                         _______ _______ _______ _____ _____    ______ ____
ROOT
ATOM      1  C   UNL     1       3.047   3.812  -5.395  0.00  0.00    +0.022 A 
ATOM      2  C   UNL     1       3.555   4.470  -6.518  0.00  0.00    +0.058 A 
ATOM      3  C   UNL     1       3.556   5.859  -6.522  0.00  0.00    +0.139 A 
ATOM      4  C   UNL     1       3.057   6.539  -5.419  0.00  0.00    +0.156 A 
ATOM      5  N   UNL     1       2.585   5.885  -4.375  0.00  0.00    -0.259 NA
ATOM      6  C   UNL     1       2.559   4.569  -4.332  0.00  0.00    +0.121 A 
ENDROOT
BRANCH   1  12
ATOM      7  C   UNL     1       0.606  -0.607  -1.056  0.00  0.00    +0.162 A 
ATOM      8  C   UNL     1       1.168   0.160  -2.054  0.00  0.00    +0.060 A 
ATOM      9  C   UNL     1       1.788  -0.461  -3.139  0.00  0.00    +0.012 A 
ATOM     10  C   UNL     1       2.399   0.308  -4.223  0.00  0.00    -0.002 A 
ATOM     11  C   UNL     1       2.413   1.701  -4.261  0.00  0.00    +0.037 A 
ATOM     12  C   UNL     1       3.022   2.330  -5.338  0.00  0.00    +0.075 A 
ATOM     13  N   UNL     1       3.585   1.630  -6.322  0.00  0.00    -0.232 NA
ATOM     14  C   UNL     1       3.600   0.310  -6.337  0.00  0.00    +0.126 A 
ATOM     15  C   UNL     1       3.005  -0.413  -5.283  0.00  0.00    +0.040 A 
ATOM     16  C   UNL     1       2.991  -1.819  -5.245  0.00  0.00    +0.123 A 
ATOM     17  N   UNL     1       2.436  -2.473  -4.261  0.00  0.00    -0.254 NA
ATOM     18  C   UNL     1       1.839  -1.873  -3.217  0.00  0.00    +0.075 A 
ATOM     19  C   UNL     1       1.261  -2.633  -2.191  0.00  0.00    +0.077 A 
ATOM     20  C   UNL     1       0.659  -2.004  -1.124  0.00  0.00    +0.164 A 
ATOM     21  N   UNL     1       4.199  -0.364  -7.386  0.00  0.00    -0.343 N 
ATOM     22  H   UNL     1       4.607   0.133  -8.112  0.00  0.00    +0.144 HD
ATOM     23  H   UNL     1       4.209  -1.334  -7.397  0.00  0.00    +0.144 HD
BRANCH   7  25
ATOM     24  C   UNL     1      -0.017   1.425   0.010  0.00  0.00    +0.277 C 
ATOM     25  O   UNL     1       0.002  -0.004   0.002  0.00  0.00    -0.491 OA
ENDBRANCH   7  25
BRANCH  20  26
ATOM     26  O   UNL     1       0.106  -2.748  -0.130  0.00  0.00    -0.491 OA
ATOM     27  C   UNL     1       0.193  -4.168  -0.257  0.00  0.00    +0.277 C 
ENDBRANCH  20  26
ENDBRANCH   1  12
BRANCH   3  28
ATOM     28  O   UNL     1       4.040   6.544  -7.591  0.00  0.00    -0.492 OA
BRANCH  28  29
ATOM     29  C   UNL     1       4.005   7.971  -7.518  0.00  0.00    +0.213 C 
BRANCH  29  30
ATOM     30  C   UNL     1       4.587   8.562  -8.803  0.00  0.00    -0.033 C 
BRANCH  30  31
ATOM     31  N   UNL     1       3.723   8.211  -9.938  0.00  0.00    +0.382 N 
ATOM     32  H   UNL     1       2.798   8.584  -9.785  0.00  0.00    -0.089 HD
ATOM     33  H   UNL     1       4.107   8.601 -10.786  0.00  0.00    -0.089 HD
ATOM     34  H   UNL     1       3.671   7.207 -10.023  0.00  0.00    -0.089 HD
ENDBRANCH  30  31
BRANCH  30  35
ATOM     35  C   UNL     1       4.666  10.085  -8.674  0.00  0.00    +0.024 C 
BRANCH  35  36
ATOM     36  C   UNL     1       5.351  10.657  -9.888  0.00  0.00    -0.024 A 
ATOM     37  C   UNL     1       6.655  10.950 -10.005  0.00  0.00    +0.087 A 
ATOM     38  N   UNL     1       6.911  11.452 -11.252  0.00  0.00    -0.360 N 
ATOM     39  H   UNL     1       7.782  11.736 -11.571  0.00  0.00    +0.165 HD
ATOM     40  C   UNL     1       5.747  11.495 -11.987  0.00  0.00    +0.047 A 
ATOM     41  C   UNL     1       4.720  10.993 -11.167  0.00  0.00    +0.003 A 
ATOM     42  C   UNL     1       3.415  10.911 -11.657  0.00  0.00    +0.010 A 
ATOM     43  C   UNL     1       3.143  11.317 -12.933  0.00  0.00    +0.001 A 
ATOM     44  C   UNL     1       4.154  11.809 -13.747  0.00  0.00    +0.002 A 
ATOM     45  C   UNL     1       5.447  11.907 -13.281  0.00  0.00    +0.026 A 
ENDBRANCH  35  36
ENDBRANCH  30  35
ENDBRANCH  29  30
ENDBRANCH  28  29
ENDBRANCH   3  28
TORSDOF 9
