REMARK  Name = CHEMBL247250
REMARK  6 active torsions:
REMARK  status: ('A' for Active; 'I' for Inactive)
REMARK    1  A    between atoms: C_1  and  N_2
REMARK    2  A    between atoms: C_9  and  C_12
REMARK    3  A    between atoms: C_12  and  N_13
REMARK    4  A    between atoms: N_13  and  C_14
REMARK    5  A    between atoms: C_15  and  C_19
REMARK    6  A    between atoms: N_21  and  C_22
REMARK                            x       y       z     vdW  Elec       q    Type
REMARK                         _______ _______ _______ _____ _____    ______ ____
ROOT
ATOM      1  C   UNL     1       5.715  -5.520  -5.505  0.00  0.00    +0.138 A 
ATOM      2  C   UNL     1       6.981  -5.919  -5.069  0.00  0.00    +0.115 A 
ATOM      3  S   UNL     1       7.463  -6.995  -6.410  0.00  0.00    -0.069 S 
ATOM      4  C   UNL     1       6.075  -6.839  -7.348  0.00  0.00    +0.158 A 
ATOM      5  N   UNL     1       5.318  -6.022  -6.655  0.00  0.00    -0.232 NA
ENDROOT
BRANCH   2   6
ATOM      6  C   UNL     1       7.684  -5.569  -3.892  0.00  0.00    +0.258 C 
ATOM      7  O   UNL     1       7.180  -4.808  -3.084  0.00  0.00    -0.269 OA
ATOM      8  N   UNL     1       8.912  -6.076  -3.664  0.00  0.00    -0.281 N 
ATOM      9  H   UNL     1       9.344  -6.621  -4.339  0.00  0.00    +0.155 HD
BRANCH   8  10
ATOM     10  C   UNL     1       9.563  -5.816  -2.452  0.00  0.00    +0.037 A 
ATOM     11  C   UNL     1      10.945  -5.688  -2.420  0.00  0.00    +0.027 A 
ATOM     12  C   UNL     1      11.589  -5.431  -1.225  0.00  0.00    +0.051 A 
ATOM     13  C   UNL     1      10.858  -5.300  -0.055  0.00  0.00    +0.173 A 
ATOM     14  C   UNL     1       9.472  -5.428  -0.084  0.00  0.00    +0.174 A 
ATOM     15  C   UNL     1       8.826  -5.679  -1.283  0.00  0.00    +0.073 A 
ATOM     16  O   UNL     1       8.991  -5.259   1.183  0.00  0.00    -0.395 OA
ATOM     17  C   UNL     1      10.127  -5.433   2.051  0.00  0.00    +0.589 C 
ATOM     18  O   UNL     1      11.246  -5.051   1.231  0.00  0.00    -0.395 OA
ATOM     19  F   UNL     1      10.025  -4.595   3.167  0.00  0.00    -0.125 F 
ATOM     20  F   UNL     1      10.242  -6.770   2.448  0.00  0.00    -0.125 F 
ENDBRANCH   8  10
ENDBRANCH   2   6
BRANCH   1  21
ATOM     21  N   UNL     1       4.921  -4.651  -4.769  0.00  0.00    -0.324 N 
ATOM     22  H   UNL     1       5.243  -4.298  -3.924  0.00  0.00    +0.148 HD
BRANCH  21  23
ATOM     23  C   UNL     1       3.598  -4.266  -5.266  0.00  0.00    +0.139 C 
BRANCH  23  32
ATOM     24  C   UNL     1      -0.792  -1.189   1.577  0.00  0.00    +0.129 C 
ATOM     25  N   UNL     1      -0.068  -0.601   0.447  0.00  0.00    -0.302 N 
ATOM     26  C   UNL     1       0.449  -1.397  -0.509  0.00  0.00    +0.305 C 
ATOM     27  O   UNL     1       0.316  -2.603  -0.434  0.00  0.00    -0.252 OA
ATOM     28  N   UNL     1       1.115  -0.857  -1.549  0.00  0.00    -0.254 N 
ATOM     29  C   UNL     1       1.740  -1.683  -2.482  0.00  0.00    +0.126 A 
ATOM     30  C   UNL     1       2.518  -1.120  -3.488  0.00  0.00    +0.044 A 
ATOM     31  C   UNL     1       3.133  -1.951  -4.407  0.00  0.00    +0.010 A 
ATOM     32  C   UNL     1       2.948  -3.322  -4.288  0.00  0.00    -0.012 A 
ATOM     33  C   UNL     1       2.163  -3.812  -3.264  0.00  0.00    +0.118 A 
ATOM     34  N   UNL     1       1.593  -2.995  -2.398  0.00  0.00    -0.240 NA
ATOM     35  H   UNL     1       0.038   0.361   0.387  0.00  0.00    +0.150 HD
ATOM     36  H   UNL     1       1.159   0.107  -1.648  0.00  0.00    +0.158 HD
ENDBRANCH  23  32
ENDBRANCH  21  23
ENDBRANCH   1  21
TORSDOF 5
