REMARK  Name = CHEMBL1202525
REMARK  10 active torsions:
REMARK  status: ('A' for Active; 'I' for Inactive)
REMARK    1  A    between atoms: C_1  and  O_2
REMARK    2  A    between atoms: O_2  and  C_3
REMARK    3  A    between atoms: C_6  and  O_37
REMARK    4  A    between atoms: C_7  and  C_10
REMARK    5  A    between atoms: C_10  and  C_12
REMARK    6  A    between atoms: C_15  and  C_18
REMARK    7  A    between atoms: C_18  and  O_19
REMARK    8  A    between atoms: O_19  and  C_20
REMARK    9  A    between atoms: C_27  and  N_28
REMARK   10  A    between atoms: C_29  and  C_31
REMARK                            x       y       z     vdW  Elec       q    Type
REMARK                         _______ _______ _______ _____ _____    ______ ____
ROOT
ATOM      1  C   UNL     1      -7.654  -6.793  -0.379  0.00  0.00    +0.195 C 
ENDROOT
BRANCH   1   5
ATOM      2  C   UNL     1      -3.869  -4.824  -0.084  0.00  0.00    +0.022 A 
ATOM      3  C   UNL     1      -5.032  -4.080  -0.291  0.00  0.00    +0.012 A 
ATOM      4  C   UNL     1      -6.250  -4.721  -0.385  0.00  0.00    +0.006 A 
ATOM      5  C   UNL     1      -6.320  -6.099  -0.275  0.00  0.00    -0.022 A 
ATOM      6  C   UNL     1      -5.171  -6.843  -0.069  0.00  0.00    +0.006 A 
ATOM      7  C   UNL     1      -3.946  -6.214   0.021  0.00  0.00    +0.012 A 
BRANCH   2   8
ATOM      8  C   UNL     1      -2.561  -4.144   0.018  0.00  0.00    +0.200 C 
ATOM      9  O   UNL     1      -1.539  -4.798   0.099  0.00  0.00    -0.286 OA
BRANCH   8  14
ATOM     10  C   UNL     1      -2.532  -0.582   1.222  0.00  0.00    +0.156 A 
ATOM     11  C   UNL     1      -2.369   0.103   0.026  0.00  0.00    +0.052 A 
ATOM     12  C   UNL     1      -2.269  -0.586  -1.168  0.00  0.00    +0.050 A 
ATOM     13  C   UNL     1      -2.330  -1.970  -1.181  0.00  0.00    +0.131 A 
ATOM     14  C   UNL     1      -2.495  -2.672   0.022  0.00  0.00    +0.102 A 
ATOM     15  C   UNL     1      -2.590  -1.966   1.228  0.00  0.00    +0.179 A 
ATOM     16  F   UNL     1      -2.743  -2.633   2.393  0.00  0.00    -0.201 F 
BRANCH  10  18
ATOM     17  C   UNL     1      -2.561   1.531   2.312  0.00  0.00    +0.277 C 
ATOM     18  O   UNL     1      -2.629   0.106   2.391  0.00  0.00    -0.492 OA
ENDBRANCH  10  18
BRANCH  13  19
ATOM     19  O   UNL     1      -2.232  -2.644  -2.355  0.00  0.00    -0.506 OA
ATOM     20  H   UNL     1      -1.323  -2.812  -2.637  0.00  0.00    +0.292 HD
ENDBRANCH  13  19
ENDBRANCH   8  14
ENDBRANCH   2   8
ENDBRANCH   1   5
BRANCH   1  21
ATOM     21  O   UNL     1      -7.912  -7.127  -1.744  0.00  0.00    -0.370 OA
BRANCH  21  22
ATOM     22  C   UNL     1      -9.159  -7.793  -1.954  0.00  0.00    +0.137 C 
ATOM     23  C   UNL     1      -8.948  -9.322  -1.818  0.00  0.00    +0.031 C 
ATOM     24  C   UNL     1     -10.290  -9.983  -1.646  0.00  0.00    -0.016 C 
ATOM     25  C   UNL     1     -10.930 -10.428  -2.973  0.00  0.00    -0.082 C 
ATOM     26  N   UNL     1     -10.800  -9.430  -4.056  0.00  0.00    +0.380 N 
ATOM     27  C   UNL     1     -11.033  -8.087  -3.582  0.00  0.00    -0.058 C 
ATOM     28  C   UNL     1      -9.666  -7.452  -3.277  0.00  0.00    +0.085 C 
ATOM     29  H   UNL     1      -9.869  -9.484  -4.443  0.00  0.00    -0.086 HD
ATOM     30  H   UNL     1     -11.468  -9.642  -4.781  0.00  0.00    -0.086 HD
BRANCH  28  31
ATOM     31  N   UNL     1      -9.794  -5.995  -3.372  0.00  0.00    -0.308 N 
ATOM     32  C   UNL     1      -9.748  -5.391  -4.575  0.00  0.00    +0.244 C 
ATOM     33  O   UNL     1      -9.602  -6.054  -5.583  0.00  0.00    -0.270 OA
ATOM     34  H   UNL     1      -9.911  -5.465  -2.567  0.00  0.00    +0.149 HD
BRANCH  32  35
ATOM     35  C   UNL     1      -9.877  -3.918  -4.671  0.00  0.00    +0.040 A 
ATOM     36  C   UNL     1     -10.041  -3.136  -3.524  0.00  0.00    +0.033 A 
ATOM     37  C   UNL     1     -10.157  -1.766  -3.659  0.00  0.00    +0.111 A 
ATOM     38  N   UNL     1     -10.115  -1.197  -4.847  0.00  0.00    -0.263 NA
ATOM     39  C   UNL     1      -9.962  -1.897  -5.953  0.00  0.00    +0.111 A 
ATOM     40  C   UNL     1      -9.833  -3.272  -5.910  0.00  0.00    +0.033 A 
ENDBRANCH  32  35
ENDBRANCH  28  31
ENDBRANCH  21  22
ENDBRANCH   1  21
TORSDOF 9
