REMARK  Name = CHEMBL261542
REMARK  6 active torsions:
REMARK  status: ('A' for Active; 'I' for Inactive)
REMARK    1  A    between atoms: C_4  and  C_7
REMARK    2  A    between atoms: C_8  and  C_17
REMARK    3  A    between atoms: C_20  and  C_23
REMARK    4  A    between atoms: C_23  and  N_24
REMARK    5  A    between atoms: C_27  and  C_30
REMARK    6  A    between atoms: C_32  and  C_36
REMARK                            x       y       z     vdW  Elec       q    Type
REMARK                         _______ _______ _______ _____ _____    ______ ____
ROOT
ATOM      1  C   UNL     1       2.738  -2.360   1.567  0.00  0.00    +0.002 A 
ATOM      2  C   UNL     1       1.803  -1.467   2.090  0.00  0.00    +0.010 A 
ATOM      3  C   UNL     1       0.758  -1.938   2.859  0.00  0.00    +0.002 A 
ATOM      4  C   UNL     1       0.638  -3.293   3.111  0.00  0.00    -0.064 A 
ATOM      5  C   UNL     1       1.563  -4.183   2.596  0.00  0.00    +0.002 A 
ATOM      6  C   UNL     1       2.608  -3.725   1.820  0.00  0.00    +0.010 A 
ENDROOT
BRANCH   1   8
ATOM      7  C   UNL     1       3.618  -0.901  -0.274  0.00  0.00    +0.098 A 
ATOM      8  C   UNL     1       3.861  -1.860   0.740  0.00  0.00    +0.098 A 
ATOM      9  N   UNL     1       5.084  -2.310   0.953  0.00  0.00    -0.243 NA
ATOM     10  C   UNL     1       6.098  -1.859   0.207  0.00  0.00    +0.090 A 
ATOM     11  C   UNL     1       7.409  -2.324   0.414  0.00  0.00    +0.030 A 
ATOM     12  C   UNL     1       8.424  -1.849  -0.359  0.00  0.00    +0.002 A 
ATOM     13  C   UNL     1       8.184  -0.906  -1.357  0.00  0.00    +0.002 A 
ATOM     14  C   UNL     1       6.929  -0.432  -1.586  0.00  0.00    +0.030 A 
ATOM     15  C   UNL     1       5.855  -0.898  -0.809  0.00  0.00    +0.090 A 
ATOM     16  N   UNL     1       4.611  -0.452  -1.020  0.00  0.00    -0.243 NA
BRANCH   7  20
ATOM     17  C   UNL     1      -0.331   0.526  -0.933  0.00  0.00    +0.000 A 
ATOM     18  C   UNL     1       0.726   1.418  -0.888  0.00  0.00    +0.001 A 
ATOM     19  C   UNL     1       2.010   0.961  -0.675  0.00  0.00    +0.010 A 
ATOM     20  C   UNL     1       2.242  -0.404  -0.503  0.00  0.00    +0.002 A 
ATOM     21  C   UNL     1       1.173  -1.298  -0.549  0.00  0.00    +0.010 A 
ATOM     22  C   UNL     1      -0.107  -0.829  -0.764  0.00  0.00    +0.001 A 
ENDBRANCH   7  20
ENDBRANCH   1   8
BRANCH   4  23
ATOM     23  C   UNL     1      -0.504  -3.801   3.953  0.00  0.00    -0.043 C 
BRANCH  23  24
ATOM     24  N   UNL     1      -1.650  -4.110   3.087  0.00  0.00    +0.382 N 
ATOM     25  C   UNL     1      -2.136  -2.874   2.462  0.00  0.00    -0.078 C 
ATOM     26  C   UNL     1      -3.278  -3.201   1.497  0.00  0.00    -0.009 C 
ATOM     27  C   UNL     1      -4.419  -3.867   2.272  0.00  0.00    +0.036 C 
ATOM     28  C   UNL     1      -3.883  -5.114   2.980  0.00  0.00    -0.009 C 
ATOM     29  C   UNL     1      -2.719  -4.716   3.890  0.00  0.00    -0.078 C 
ATOM     30  H   UNL     1      -1.362  -4.757   2.368  0.00  0.00    -0.081 HD
BRANCH  27  31
ATOM     31  C   UNL     1      -5.514  -4.263   1.315  0.00  0.00    +0.066 A 
ATOM     32  C   UNL     1      -5.566  -5.449   0.583  0.00  0.00    +0.053 A 
ATOM     33  C   UNL     1      -6.711  -5.431  -0.162  0.00  0.00    +0.066 A 
ATOM     34  N   UNL     1      -7.351  -4.258   0.104  0.00  0.00    -0.277 N 
ATOM     35  H   UNL     1      -8.193  -3.965  -0.279  0.00  0.00    +0.189 HD
ATOM     36  N   UNL     1      -6.578  -3.553   1.036  0.00  0.00    -0.178 NA
BRANCH  33  37
ATOM     37  C   UNL     1      -7.170  -6.490  -1.089  0.00  0.00    +0.003 A 
ATOM     38  C   UNL     1      -6.422  -7.658  -1.274  0.00  0.00    +0.029 A 
ATOM     39  C   UNL     1      -6.888  -8.618  -2.147  0.00  0.00    +0.111 A 
ATOM     40  N   UNL     1      -8.020  -8.447  -2.802  0.00  0.00    -0.263 NA
ATOM     41  C   UNL     1      -8.756  -7.361  -2.657  0.00  0.00    +0.111 A 
ATOM     42  C   UNL     1      -8.368  -6.353  -1.799  0.00  0.00    +0.029 A 
ENDBRANCH  33  37
ENDBRANCH  27  31
ENDBRANCH  23  24
ENDBRANCH   4  23
TORSDOF 6
