REMARK  Name = CHEMBL205415
REMARK  7 active torsions:
REMARK  status: ('A' for Active; 'I' for Inactive)
REMARK    1  A    between atoms: C_7  and  C_11
REMARK    2  A    between atoms: C_11  and  C_12
REMARK    3  A    between atoms: C_12  and  C_14
REMARK    4  A    between atoms: C_12  and  N_31
REMARK    5  A    between atoms: N_16  and  C_17
REMARK    6  A    between atoms: C_19  and  C_23
REMARK    7  A    between atoms: C_24  and  C_25
REMARK                            x       y       z     vdW  Elec       q    Type
REMARK                         _______ _______ _______ _____ _____    ______ ____
ROOT
ATOM      1  C   UNL     1      -0.602  -4.842  -1.467  0.00  0.00    +0.234 C 
ATOM      2  O   UNL     1      -1.811  -4.763  -1.516  0.00  0.00    -0.274 OA
ATOM      3  N   UNL     1      -0.007  -6.050  -1.416  0.00  0.00    -0.283 N 
ATOM      4  H   UNL     1       0.960  -6.117  -1.445  0.00  0.00    +0.155 HD
ENDROOT
BRANCH   3   5
ATOM      5  C   UNL     1      -0.786  -7.210  -1.320  0.00  0.00    +0.052 A 
ATOM      6  C   UNL     1      -2.014  -7.288  -1.966  0.00  0.00    +0.034 A 
ATOM      7  C   UNL     1      -2.755  -8.469  -1.839  0.00  0.00    -0.005 A 
ATOM      8  C   UNL     1      -2.232  -9.515  -1.073  0.00  0.00    +0.118 A 
ATOM      9  N   UNL     1      -1.064  -9.395  -0.479  0.00  0.00    -0.261 NA
ATOM     10  C   UNL     1      -0.337  -8.299  -0.582  0.00  0.00    +0.134 A 
BRANCH   7  11
ATOM     11  C   UNL     1      -4.064  -8.607  -2.502  0.00  0.00    +0.010 C 
ATOM     12  C   UNL     1      -4.765  -9.745  -2.373  0.00  0.00    +0.008 C 
BRANCH  12  13
ATOM     13  C   UNL     1      -6.074  -9.883  -3.035  0.00  0.00    -0.022 A 
ATOM     14  C   UNL     1      -6.603  -8.841  -3.810  0.00  0.00    +0.027 A 
ATOM     15  C   UNL     1      -7.831  -9.014  -4.412  0.00  0.00    +0.111 A 
ATOM     16  N   UNL     1      -8.505 -10.139  -4.267  0.00  0.00    -0.263 NA
ATOM     17  C   UNL     1      -8.044 -11.145  -3.547  0.00  0.00    +0.111 A 
ATOM     18  C   UNL     1      -6.822 -11.062  -2.914  0.00  0.00    +0.027 A 
ENDBRANCH  12  13
ENDBRANCH   7  11
ENDBRANCH   3   5
BRANCH   1  19
ATOM     19  C   UNL     1       0.236  -3.589  -1.464  0.00  0.00    +0.142 C 
BRANCH  19  20
ATOM     20  N   UNL     1      -0.554  -2.470  -1.994  0.00  0.00    -0.320 NA
ATOM     21  H   UNL     1      -1.377  -2.311  -1.433  0.00  0.00    +0.119 HD
ATOM     22  H   UNL     1       0.005  -1.633  -2.063  0.00  0.00    +0.119 HD
ENDBRANCH  19  20
BRANCH  19  23
ATOM     23  C   UNL     1       0.673  -3.272  -0.032  0.00  0.00    +0.065 C 
BRANCH  23  30
ATOM     24  C   UNL     1      -0.009   1.366  -0.012  0.00  0.00    +0.001 A 
ATOM     25  C   UNL     1       1.177   2.087  -0.027  0.00  0.00    +0.002 A 
ATOM     26  C   UNL     1       2.393   1.440  -0.046  0.00  0.00    +0.026 A 
ATOM     27  C   UNL     1       2.435   0.049  -0.050  0.00  0.00    +0.047 A 
ATOM     28  C   UNL     1       1.230  -0.677  -0.034  0.00  0.00    +0.003 A 
ATOM     29  C   UNL     1       0.009   0.000  -0.016  0.00  0.00    +0.010 A 
ATOM     30  C   UNL     1       1.610  -2.091  -0.043  0.00  0.00    -0.020 A 
ATOM     31  C   UNL     1       2.952  -2.138  -0.062  0.00  0.00    +0.087 A 
ATOM     32  N   UNL     1       3.462  -0.868  -0.067  0.00  0.00    -0.360 N 
ATOM     33  H   UNL     1       4.406  -0.647  -0.079  0.00  0.00    +0.165 HD
ENDBRANCH  23  30
ENDBRANCH  19  23
ENDBRANCH   1  19
TORSDOF 7
