REMARK  Name = CHEMBL1080911
REMARK  8 active torsions:
REMARK  status: ('A' for Active; 'I' for Inactive)
REMARK    1  A    between atoms: C_1  and  C_2
REMARK    2  A    between atoms: C_5  and  C_12
REMARK    3  A    between atoms: N_17  and  C_18
REMARK    4  A    between atoms: C_18  and  C_19
REMARK    5  A    between atoms: C_19  and  C_21
REMARK    6  A    between atoms: C_19  and  N_32
REMARK    7  A    between atoms: C_21  and  C_22
REMARK    8  A    between atoms: C_25  and  C_28
REMARK                            x       y       z     vdW  Elec       q    Type
REMARK                         _______ _______ _______ _____ _____    ______ ____
ROOT
ATOM      1  C   UNL     1      -0.002  -1.423  -4.901  0.00  0.00    +0.134 A 
ATOM      2  N   UNL     1      -0.015  -0.276  -5.568  0.00  0.00    -0.140 NA
ATOM      3  N   UNL     1      -0.022  -0.238  -6.828  0.00  0.00    -0.126 NA
ATOM      4  C   UNL     1      -0.017  -1.343  -7.564  0.00  0.00    +0.182 A 
ATOM      5  S   UNL     1       0.008  -2.579  -6.269  0.00  0.00    -0.031 S 
ATOM      6  N   UNL     1      -0.023  -1.496  -8.941  0.00  0.00    -0.324 N 
ATOM      7  H   UNL     1      -0.018  -2.385  -9.330  0.00  0.00    +0.148 HD
ENDROOT
BRANCH   1  12
ATOM      8  C   UNL     1      -0.018   1.503   0.010  0.00  0.00    +0.068 C 
ATOM      9  C   UNL     1       0.002  -0.004   0.002  0.00  0.00    +0.067 A 
ATOM     10  C   UNL     1       0.008  -0.858  -1.182  0.00  0.00    +0.023 A 
ATOM     11  C   UNL     1      -0.002  -0.608  -2.557  0.00  0.00    +0.022 A 
ATOM     12  C   UNL     1       0.009  -1.675  -3.444  0.00  0.00    +0.010 A 
ATOM     13  C   UNL     1       0.029  -2.992  -2.962  0.00  0.00    +0.013 A 
ATOM     14  C   UNL     1       0.039  -3.242  -1.623  0.00  0.00    +0.028 A 
ATOM     15  C   UNL     1       0.029  -2.186  -0.712  0.00  0.00    +0.066 A 
ATOM     16  N   UNL     1       0.035  -2.119   0.657  0.00  0.00    -0.277 N 
ATOM     17  H   UNL     1       0.049  -2.881   1.257  0.00  0.00    +0.189 HD
ATOM     18  N   UNL     1       0.023  -0.777   1.050  0.00  0.00    -0.178 NA
ENDBRANCH   1  12
BRANCH   6  19
ATOM     19  C   UNL     1      -0.038  -0.316  -9.809  0.00  0.00    +0.087 C 
BRANCH  19  20
ATOM     20  C   UNL     1      -0.042  -0.760 -11.273  0.00  0.00    -0.053 C 
BRANCH  20  21
ATOM     21  N   UNL     1      -1.171  -1.672 -11.505  0.00  0.00    +0.381 N 
ATOM     22  H   UNL     1      -2.035  -1.197 -11.295  0.00  0.00    -0.090 HD
ATOM     23  H   UNL     1      -1.173  -1.965 -12.470  0.00  0.00    -0.090 HD
ATOM     24  H   UNL     1      -1.078  -2.481 -10.909  0.00  0.00    -0.090 HD
ENDBRANCH  20  21
BRANCH  20  25
ATOM     25  C   UNL     1      -0.183   0.466 -12.178  0.00  0.00    +0.020 C 
BRANCH  25  26
ATOM     26  C   UNL     1      -0.064   0.043 -13.619  0.00  0.00    -0.049 A 
ATOM     27  C   UNL     1       1.175   0.014 -14.231  0.00  0.00    +0.004 A 
ATOM     28  C   UNL     1       1.284  -0.374 -15.554  0.00  0.00    +0.012 A 
ATOM     29  C   UNL     1       0.154  -0.734 -16.264  0.00  0.00    +0.055 A 
ATOM     30  C   UNL     1      -1.085  -0.706 -15.651  0.00  0.00    +0.012 A 
ATOM     31  C   UNL     1      -1.194  -0.322 -14.328  0.00  0.00    +0.004 A 
BRANCH  29  32
ATOM     32  C   UNL     1       0.272  -1.156 -17.706  0.00  0.00    +0.417 C 
ATOM     33  F   UNL     1       0.469  -2.539 -17.772  0.00  0.00    -0.166 F 
ATOM     34  F   UNL     1      -0.901  -0.819 -18.388  0.00  0.00    -0.166 F 
ATOM     35  F   UNL     1       1.359  -0.501 -18.295  0.00  0.00    -0.166 F 
ENDBRANCH  29  32
ENDBRANCH  25  26
ENDBRANCH  20  25
ENDBRANCH  19  20
ENDBRANCH   6  19
TORSDOF 7
