REMARK  Name = CHEMBL376959
REMARK  11 active torsions:
REMARK  status: ('A' for Active; 'I' for Inactive)
REMARK    1  A    between atoms: C_7  and  C_11
REMARK    2  A    between atoms: C_11  and  C_12
REMARK    3  A    between atoms: C_12  and  C_14
REMARK    4  A    between atoms: C_12  and  N_35
REMARK    5  A    between atoms: C_14  and  O_15
REMARK    6  A    between atoms: O_15  and  C_16
REMARK    7  A    between atoms: C_18  and  C_22
REMARK    8  A    between atoms: C_28  and  N_33
REMARK    9  A    between atoms: N_35  and  C_36
REMARK   10  A    between atoms: C_42  and  N_47
REMARK   11  A    between atoms: C_43  and  O_46
REMARK                            x       y       z     vdW  Elec       q    Type
REMARK                         _______ _______ _______ _____ _____    ______ ____
ROOT
ATOM      1  C   UNL     1       0.236  -3.589  -1.455  0.00  0.00    +0.112 C 
ENDROOT
BRANCH   1   2
ATOM      2  N   UNL     1      -0.550  -2.472  -1.985  0.00  0.00    -0.337 N 
ATOM      3  H   UNL     1      -1.518  -2.494  -1.936  0.00  0.00    +0.146 HD
BRANCH   2   4
ATOM      4  C   UNL     1       0.097  -1.373  -2.562  0.00  0.00    +0.028 A 
ATOM      5  C   UNL     1       1.486  -1.345  -2.637  0.00  0.00    +0.025 A 
ATOM      6  C   UNL     1       2.134  -0.267  -3.204  0.00  0.00    +0.028 A 
ATOM      7  C   UNL     1       1.402   0.802  -3.705  0.00  0.00    +0.052 A 
ATOM      8  C   UNL     1       0.003   0.774  -3.630  0.00  0.00    +0.034 A 
ATOM      9  C   UNL     1      -0.647  -0.316  -3.063  0.00  0.00    +0.035 A 
ATOM     10  C   UNL     1      -0.466   2.038  -4.241  0.00  0.00    +0.176 A 
ATOM     11  C   UNL     1       0.706   2.731  -4.638  0.00  0.00    +0.221 A 
ATOM     12  N   UNL     1       1.780   1.992  -4.317  0.00  0.00    -0.324 N 
ATOM     13  H   UNL     1       2.698   2.255  -4.488  0.00  0.00    +0.169 HD
BRANCH  11  14
ATOM     14  O   UNL     1       0.736   3.933  -5.241  0.00  0.00    -0.492 OA
ATOM     15  H   UNL     1       0.780   4.679  -4.628  0.00  0.00    +0.294 HD
ENDBRANCH  11  14
BRANCH  10  16
ATOM     16  N   UNL     1      -1.712   2.437  -4.386  0.00  0.00    -0.025 NA
ATOM     17  O   UNL     1      -1.952   3.510  -4.911  0.00  0.00    -0.143 OA
ENDBRANCH  10  16
ENDBRANCH   2   4
ENDBRANCH   1   2
BRANCH   1  18
ATOM     18  C   UNL     1       0.666  -3.275  -0.021  0.00  0.00    +0.062 C 
BRANCH  18  25
ATOM     19  C   UNL     1      -0.017   1.362   0.009  0.00  0.00    +0.001 A 
ATOM     20  C   UNL     1       1.170   2.083   0.002  0.00  0.00    +0.002 A 
ATOM     21  C   UNL     1       2.386   1.436  -0.013  0.00  0.00    +0.026 A 
ATOM     22  C   UNL     1       2.428   0.046  -0.021  0.00  0.00    +0.047 A 
ATOM     23  C   UNL     1       1.223  -0.681  -0.013  0.00  0.00    +0.003 A 
ATOM     24  C   UNL     1       0.002  -0.004   0.002  0.00  0.00    +0.010 A 
ATOM     25  C   UNL     1       1.604  -2.095  -0.025  0.00  0.00    -0.021 A 
ATOM     26  C   UNL     1       2.945  -2.141  -0.038  0.00  0.00    +0.087 A 
ATOM     27  N   UNL     1       3.455  -0.871  -0.036  0.00  0.00    -0.360 N 
ATOM     28  H   UNL     1       4.399  -0.650  -0.044  0.00  0.00    +0.165 HD
ENDBRANCH  18  25
ENDBRANCH   1  18
BRANCH   1  29
ATOM     29  C   UNL     1      -0.614  -4.861  -1.466  0.00  0.00    +0.251 C 
BRANCH  29  30
ATOM     30  O   UNL     1      -1.711  -4.708  -0.563  0.00  0.00    -0.489 OA
BRANCH  30  31
ATOM     31  C   UNL     1      -2.570  -5.756  -0.452  0.00  0.00    +0.139 A 
ATOM     32  C   UNL     1      -3.664  -5.682   0.401  0.00  0.00    +0.057 A 
ATOM     33  C   UNL     1      -4.518  -6.784   0.479  0.00  0.00    +0.004 A 
ATOM     34  C   UNL     1      -4.241  -7.908  -0.296  0.00  0.00    +0.119 A 
ATOM     35  N   UNL     1      -3.192  -7.936  -1.092  0.00  0.00    -0.259 NA
ATOM     36  C   UNL     1      -2.368  -6.911  -1.195  0.00  0.00    +0.156 A 
BRANCH  33  37
ATOM     37  C   UNL     1      -5.700  -6.758   1.375  0.00  0.00    -0.016 A 
ATOM     38  C   UNL     1      -5.971  -5.625   2.144  0.00  0.00    +0.010 A 
ATOM     39  C   UNL     1      -7.066  -5.592   2.978  0.00  0.00    +0.027 A 
ATOM     40  C   UNL     1      -7.915  -6.691   3.062  0.00  0.00    +0.052 A 
ATOM     41  C   UNL     1      -7.645  -7.831   2.290  0.00  0.00    +0.033 A 
ATOM     42  C   UNL     1      -6.545  -7.862   1.446  0.00  0.00    +0.021 A 
ATOM     43  C   UNL     1      -8.719  -8.801   2.606  0.00  0.00    +0.180 A 
ATOM     44  C   UNL     1      -9.554  -8.155   3.552  0.00  0.00    +0.279 A 
ATOM     45  N   UNL     1      -9.065  -6.929   3.801  0.00  0.00    -0.320 N 
ATOM     46  H   UNL     1      -9.464  -6.294   4.416  0.00  0.00    +0.169 HD
ATOM     47  O   UNL     1     -10.657  -8.685   4.110  0.00  0.00    -0.265 OA
BRANCH  43  48
ATOM     48  N   UNL     1      -8.867 -10.012   2.110  0.00  0.00    -0.025 NA
ATOM     49  O   UNL     1      -9.805 -10.704   2.464  0.00  0.00    -0.143 OA
ENDBRANCH  43  48
ENDBRANCH  33  37
ENDBRANCH  30  31
ENDBRANCH  29  30
ENDBRANCH   1  29
TORSDOF 11
