REMARK  Name = CHEMBL206732
REMARK  8 active torsions:
REMARK  status: ('A' for Active; 'I' for Inactive)
REMARK    1  A    between atoms: C_7  and  C_11
REMARK    2  A    between atoms: C_11  and  C_12
REMARK    3  A    between atoms: C_12  and  C_14
REMARK    4  A    between atoms: C_12  and  N_33
REMARK    5  A    between atoms: C_14  and  N_15
REMARK    6  A    between atoms: N_15  and  C_16
REMARK    7  A    between atoms: C_18  and  O_22
REMARK    8  A    between atoms: O_22  and  C_23
REMARK                            x       y       z     vdW  Elec       q    Type
REMARK                         _______ _______ _______ _____ _____    ______ ____
ROOT
ATOM      1  N   UNL     1      -1.242  -4.961  -2.846  0.00  0.00    -0.344 N 
ATOM      2  H   UNL     1      -1.065  -4.332  -3.563  0.00  0.00    +0.146 HD
ENDROOT
BRANCH   1   3
ATOM      3  C   UNL     1      -1.989  -6.114  -3.098  0.00  0.00    +0.049 A 
ATOM      4  C   UNL     1      -2.479  -6.373  -4.375  0.00  0.00    +0.072 A 
ATOM      5  C   UNL     1      -3.216  -7.534  -4.575  0.00  0.00    +0.148 A 
ATOM      6  C   UNL     1      -3.437  -8.389  -3.503  0.00  0.00    +0.157 A 
ATOM      7  N   UNL     1      -2.957  -8.110  -2.307  0.00  0.00    -0.258 NA
ATOM      8  C   UNL     1      -2.248  -7.022  -2.078  0.00  0.00    +0.133 A 
BRANCH   5   9
ATOM      9  O   UNL     1      -3.716  -7.829  -5.804  0.00  0.00    -0.454 OA
BRANCH   9  10
ATOM     10  C   UNL     1      -2.836  -8.133  -6.793  0.00  0.00    +0.136 A 
ATOM     11  C   UNL     1      -1.493  -8.262  -6.516  0.00  0.00    +0.047 A 
ATOM     12  C   UNL     1      -0.584  -8.573  -7.523  0.00  0.00    +0.004 A 
ATOM     13  C   UNL     1      -0.992  -8.757  -8.809  0.00  0.00    +0.010 A 
ATOM     14  C   UNL     1      -2.352  -8.634  -9.133  0.00  0.00    +0.004 A 
ATOM     15  C   UNL     1      -3.288  -8.324  -8.112  0.00  0.00    +0.027 A 
ATOM     16  C   UNL     1      -4.644  -8.213  -8.463  0.00  0.00    +0.032 A 
ATOM     17  C   UNL     1      -5.002  -8.412  -9.762  0.00  0.00    +0.111 A 
ATOM     18  N   UNL     1      -4.108  -8.707 -10.697  0.00  0.00    -0.263 NA
ATOM     19  C   UNL     1      -2.824  -8.813 -10.444  0.00  0.00    +0.119 A 
ENDBRANCH   9  10
ENDBRANCH   5   9
ENDBRANCH   1   3
BRANCH   1  20
ATOM     20  C   UNL     1      -0.726  -4.702  -1.500  0.00  0.00    +0.086 C 
BRANCH  20  21
ATOM     21  C   UNL     1       0.051  -3.384  -1.496  0.00  0.00    -0.053 C 
BRANCH  21  22
ATOM     22  N   UNL     1      -0.807  -2.308  -2.012  0.00  0.00    +0.381 N 
ATOM     23  H   UNL     1      -0.294  -1.439  -2.010  0.00  0.00    -0.090 HD
ATOM     24  H   UNL     1      -1.092  -2.528  -2.955  0.00  0.00    -0.090 HD
ATOM     25  H   UNL     1      -1.623  -2.219  -1.426  0.00  0.00    -0.090 HD
ENDBRANCH  21  22
BRANCH  21  26
ATOM     26  C   UNL     1       0.483  -3.050  -0.067  0.00  0.00    +0.022 C 
BRANCH  26  33
ATOM     27  C   UNL     1      -0.461   1.541  -0.010  0.00  0.00    +0.001 A 
ATOM     28  C   UNL     1       0.682   2.329  -0.032  0.00  0.00    +0.002 A 
ATOM     29  C   UNL     1       1.932   1.752  -0.067  0.00  0.00    +0.026 A 
ATOM     30  C   UNL     1       2.053   0.366  -0.080  0.00  0.00    +0.047 A 
ATOM     31  C   UNL     1       0.892  -0.428  -0.058  0.00  0.00    +0.003 A 
ATOM     32  C   UNL     1      -0.365   0.178  -0.023  0.00  0.00    +0.010 A 
ATOM     33  C   UNL     1       1.352  -1.819  -0.079  0.00  0.00    -0.024 A 
ATOM     34  C   UNL     1       2.693  -1.788  -0.112  0.00  0.00    +0.087 A 
ATOM     35  N   UNL     1       3.130  -0.491  -0.113  0.00  0.00    -0.360 N 
ATOM     36  H   UNL     1       4.061  -0.217  -0.133  0.00  0.00    +0.165 HD
ENDBRANCH  26  33
ENDBRANCH  21  26
ENDBRANCH  20  21
ENDBRANCH   1  20
TORSDOF 8
