REMARK  Name = CHEMBL437122
REMARK  7 active torsions:
REMARK  status: ('A' for Active; 'I' for Inactive)
REMARK    1  A    between atoms: C_8  and  C_11
REMARK    2  A    between atoms: C_11  and  C_12
REMARK    3  A    between atoms: C_12  and  C_14
REMARK    4  A    between atoms: C_12  and  N_32
REMARK    5  A    between atoms: C_14  and  O_15
REMARK    6  A    between atoms: O_15  and  C_16
REMARK    7  A    between atoms: C_18  and  C_22
REMARK                            x       y       z     vdW  Elec       q    Type
REMARK                         _______ _______ _______ _____ _____    ______ ____
ROOT
ATOM      1  C   UNL     1       2.912  -6.192  -1.502  0.00  0.00    +0.213 C 
ENDROOT
BRANCH   1   2
ATOM      2  C   UNL     1       2.669  -4.681  -1.490  0.00  0.00    -0.033 C 
BRANCH   2   3
ATOM      3  N   UNL     1       1.381  -4.388  -2.133  0.00  0.00    +0.382 N 
ATOM      4  H   UNL     1       0.640  -4.851  -1.629  0.00  0.00    -0.089 HD
ATOM      5  H   UNL     1       1.221  -3.391  -2.126  0.00  0.00    -0.089 HD
ATOM      6  H   UNL     1       1.398  -4.718  -3.086  0.00  0.00    -0.089 HD
ENDBRANCH   2   3
BRANCH   2   7
ATOM      7  C   UNL     1       2.643  -4.180  -0.045  0.00  0.00    +0.024 C 
BRANCH   7  15
ATOM      8  C   UNL     1      -0.016   1.357   0.009  0.00  0.00    +0.001 A 
ATOM      9  C   UNL     1       1.170   2.088   0.002  0.00  0.00    +0.002 A 
ATOM     10  C   UNL     1       2.379   1.465  -0.013  0.00  0.00    +0.028 A 
ATOM     11  C   UNL     1       2.440   0.060  -0.021  0.00  0.00    +0.071 A 
ATOM     12  C   UNL     1       1.232  -0.681  -0.013  0.00  0.00    +0.001 A 
ATOM     13  C   UNL     1       0.002  -0.004   0.002  0.00  0.00    +0.010 A 
ATOM     14  C   UNL     1       1.295  -2.087  -0.021  0.00  0.00    +0.015 A 
ATOM     15  C   UNL     1       2.527  -2.677  -0.036  0.00  0.00    -0.030 A 
ATOM     16  C   UNL     1       3.675  -1.889  -0.043  0.00  0.00    +0.115 A 
ATOM     17  N   UNL     1       3.613  -0.580  -0.035  0.00  0.00    -0.255 NA
ENDBRANCH   7  15
ENDBRANCH   2   7
ENDBRANCH   1   2
BRANCH   1  18
ATOM     18  O   UNL     1       3.052  -6.641  -2.851  0.00  0.00    -0.492 OA
BRANCH  18  19
ATOM     19  C   UNL     1       3.274  -7.969  -3.039  0.00  0.00    +0.139 A 
ATOM     20  C   UNL     1       3.427  -8.481  -4.322  0.00  0.00    +0.057 A 
ATOM     21  C   UNL     1       3.654  -9.852  -4.463  0.00  0.00    +0.004 A 
ATOM     22  C   UNL     1       3.719 -10.647  -3.320  0.00  0.00    +0.119 A 
ATOM     23  N   UNL     1       3.568 -10.119  -2.123  0.00  0.00    -0.259 NA
ATOM     24  C   UNL     1       3.358  -8.828  -1.953  0.00  0.00    +0.156 A 
BRANCH  21  25
ATOM     25  C   UNL     1       3.824 -10.453  -5.809  0.00  0.00    -0.016 A 
ATOM     26  C   UNL     1       3.761  -9.635  -6.949  0.00  0.00    +0.009 A 
ATOM     27  C   UNL     1       3.912 -10.157  -8.194  0.00  0.00    +0.010 A 
ATOM     28  C   UNL     1       4.136 -11.535  -8.351  0.00  0.00    +0.000 A 
ATOM     29  C   UNL     1       4.300 -12.120  -9.617  0.00  0.00    +0.119 A 
ATOM     30  N   UNL     1       4.508 -13.412  -9.720  0.00  0.00    -0.263 NA
ATOM     31  C   UNL     1       4.574 -14.215  -8.666  0.00  0.00    +0.111 A 
ATOM     32  C   UNL     1       4.428 -13.747  -7.396  0.00  0.00    +0.028 A 
ATOM     33  C   UNL     1       4.202 -12.371  -7.205  0.00  0.00    -0.014 A 
ATOM     34  C   UNL     1       4.048 -11.812  -5.930  0.00  0.00    +0.017 A 
ENDBRANCH  21  25
ENDBRANCH  18  19
ENDBRANCH   1  18
TORSDOF 7
