REMARK  Name = CHEMBL1173304
REMARK  4 active torsions:
REMARK  status: ('A' for Active; 'I' for Inactive)
REMARK    1  A    between atoms: C_1  and  C_2
REMARK    2  A    between atoms: C_8  and  N_12
REMARK    3  A    between atoms: C_15  and  N_18
REMARK    4  A    between atoms: N_21  and  C_22
REMARK                            x       y       z     vdW  Elec       q    Type
REMARK                         _______ _______ _______ _____ _____    ______ ____
ROOT
ATOM      1  N   UNL     1       0.022   0.676   2.856  0.00  0.00    -0.313 N 
ATOM      2  C   UNL     1      -0.178   1.884   2.036  0.00  0.00    +0.108 C 
ATOM      3  C   UNL     1      -0.725   2.947   3.022  0.00  0.00    +0.043 C 
ATOM      4  C   UNL     1       0.078   2.620   4.309  0.00  0.00    +0.093 C 
ATOM      5  C   UNL     1       0.195   1.082   4.259  0.00  0.00    +0.128 C 
ENDROOT
BRANCH   1  13
ATOM      6  C   UNL     1      -3.167   0.230   2.925  0.00  0.00    +0.046 C 
ATOM      7  C   UNL     1      -2.573  -1.058   2.417  0.00  0.00    -0.021 A 
ATOM      8  C   UNL     1      -3.246  -2.164   2.059  0.00  0.00    +0.088 A 
ATOM      9  N   UNL     1      -2.366  -3.131   1.649  0.00  0.00    -0.345 N 
ATOM     10  H   UNL     1      -2.616  -4.017   1.343  0.00  0.00    +0.167 HD
ATOM     11  C   UNL     1      -1.083  -2.664   1.733  0.00  0.00    +0.143 A 
ATOM     12  C   UNL     1      -1.154  -1.342   2.212  0.00  0.00    +0.061 A 
ATOM     13  C   UNL     1       0.039  -0.625   2.386  0.00  0.00    +0.134 A 
ATOM     14  N   UNL     1       1.187  -1.226   2.086  0.00  0.00    -0.220 NA
ATOM     15  C   UNL     1       1.208  -2.468   1.636  0.00  0.00    +0.225 A 
ATOM     16  N   UNL     1       0.115  -3.181   1.465  0.00  0.00    -0.218 NA
ENDBRANCH   1  13
BRANCH   4  17
ATOM     17  N   UNL     1       1.399   3.250   4.269  0.00  0.00    -0.295 N 
ATOM     18  C   UNL     1       1.554   4.518   4.701  0.00  0.00    +0.304 C 
ATOM     19  O   UNL     1       0.597   5.138   5.123  0.00  0.00    -0.253 OA
ATOM     20  N   UNL     1       2.770   5.098   4.665  0.00  0.00    -0.269 N 
ATOM     21  H   UNL     1       2.163   2.756   3.933  0.00  0.00    +0.151 HD
ATOM     22  H   UNL     1       3.516   4.636   4.250  0.00  0.00    +0.156 HD
BRANCH  20  23
ATOM     23  C   UNL     1       2.958   6.366   5.227  0.00  0.00    +0.035 A 
ATOM     24  C   UNL     1       3.967   7.194   4.754  0.00  0.00    +0.023 A 
ATOM     25  C   UNL     1       4.149   8.445   5.311  0.00  0.00    +0.002 A 
ATOM     26  C   UNL     1       3.327   8.873   6.338  0.00  0.00    +0.000 A 
ATOM     27  C   UNL     1       2.322   8.050   6.811  0.00  0.00    +0.002 A 
ATOM     28  C   UNL     1       2.131   6.800   6.255  0.00  0.00    +0.023 A 
ENDBRANCH  20  23
ENDBRANCH   4  17
TORSDOF 3
