REMARK  Name = CHEMBL270157
REMARK  5 active torsions:
REMARK  status: ('A' for Active; 'I' for Inactive)
REMARK    1  A    between atoms: C_4  and  C_7
REMARK    2  A    between atoms: C_16  and  C_17
REMARK    3  A    between atoms: C_20  and  C_23
REMARK    4  A    between atoms: C_23  and  N_24
REMARK    5  A    between atoms: C_27  and  N_30
REMARK                            x       y       z     vdW  Elec       q    Type
REMARK                         _______ _______ _______ _____ _____    ______ ____
ROOT
ATOM      1  C   UNL     1       2.910  -2.085   1.875  0.00  0.00    +0.001 A 
ATOM      2  C   UNL     1       2.081  -1.101   2.412  0.00  0.00    +0.010 A 
ATOM      3  C   UNL     1       1.113  -1.446   3.333  0.00  0.00    +0.002 A 
ATOM      4  C   UNL     1       0.965  -2.764   3.724  0.00  0.00    -0.064 A 
ATOM      5  C   UNL     1       1.785  -3.745   3.195  0.00  0.00    +0.002 A 
ATOM      6  C   UNL     1       2.752  -3.414   2.268  0.00  0.00    +0.010 A 
ENDROOT
BRANCH   1  16
ATOM      7  C   UNL     1       3.698  -0.688  -0.037  0.00  0.00    +0.009 A 
ATOM      8  C   UNL     1       4.681  -0.348  -0.960  0.00  0.00    +0.025 A 
ATOM      9  C   UNL     1       5.884  -1.059  -0.932  0.00  0.00    +0.060 A 
ATOM     10  C   UNL     1       7.119  -0.998  -1.715  0.00  0.00    +0.147 A 
ATOM     11  N   UNL     1       7.926  -1.913  -1.248  0.00  0.00    -0.157 NA
ATOM     12  N   UNL     1       7.318  -2.596  -0.191  0.00  0.00    -0.258 N 
ATOM     13  H   UNL     1       7.721  -3.318   0.316  0.00  0.00    +0.191 HD
ATOM     14  C   UNL     1       6.064  -2.087   0.018  0.00  0.00    +0.158 A 
ATOM     15  N   UNL     1       5.099  -2.378   0.880  0.00  0.00    -0.227 NA
ATOM     16  C   UNL     1       3.951  -1.722   0.885  0.00  0.00    +0.081 A 
ATOM     17  N   UNL     1       7.385  -0.122  -2.770  0.00  0.00    -0.341 N 
ATOM     18  H   UNL     1       6.716   0.524  -3.044  0.00  0.00    +0.144 HD
ATOM     19  H   UNL     1       8.239  -0.161  -3.229  0.00  0.00    +0.144 HD
BRANCH   7  23
ATOM     20  C   UNL     1      -0.017   1.379   0.010  0.00  0.00    +0.000 A 
ATOM     21  C   UNL     1       1.169   2.092   0.002  0.00  0.00    +0.001 A 
ATOM     22  C   UNL     1       2.377   1.427  -0.013  0.00  0.00    +0.008 A 
ATOM     23  C   UNL     1       2.402   0.033  -0.021  0.00  0.00    -0.016 A 
ATOM     24  C   UNL     1       1.205  -0.680  -0.013  0.00  0.00    +0.008 A 
ATOM     25  C   UNL     1       0.002  -0.004   0.002  0.00  0.00    +0.001 A 
ENDBRANCH   7  23
ENDBRANCH   1  16
BRANCH   4  26
ATOM     26  C   UNL     1      -0.094  -3.134   4.731  0.00  0.00    -0.043 C 
BRANCH  26  27
ATOM     27  N   UNL     1      -1.344  -3.457   4.031  0.00  0.00    +0.382 N 
ATOM     28  C   UNL     1      -1.846  -2.257   3.350  0.00  0.00    -0.076 C 
ATOM     29  C   UNL     1      -3.104  -2.607   2.553  0.00  0.00    +0.006 C 
ATOM     30  C   UNL     1      -4.176  -3.139   3.509  0.00  0.00    +0.089 C 
ATOM     31  C   UNL     1      -3.615  -4.346   4.268  0.00  0.00    +0.006 C 
ATOM     32  C   UNL     1      -2.338  -3.931   5.002  0.00  0.00    -0.076 C 
ATOM     33  H   UNL     1      -1.170  -4.180   3.349  0.00  0.00    -0.081 HD
BRANCH  30  34
ATOM     34  N   UNL     1      -5.356  -3.547   2.743  0.00  0.00    -0.289 N 
ATOM     35  C   UNL     1      -6.639  -3.021   2.881  0.00  0.00    +0.070 A 
ATOM     36  C   UNL     1      -7.183  -2.041   3.696  0.00  0.00    +0.028 A 
ATOM     37  C   UNL     1      -8.525  -1.732   3.598  0.00  0.00    +0.002 A 
ATOM     38  C   UNL     1      -9.330  -2.398   2.689  0.00  0.00    +0.002 A 
ATOM     39  C   UNL     1      -8.797  -3.376   1.873  0.00  0.00    +0.028 A 
ATOM     40  C   UNL     1      -7.450  -3.692   1.964  0.00  0.00    +0.067 A 
ATOM     41  N   UNL     1      -6.636  -4.605   1.298  0.00  0.00    -0.306 N 
ATOM     42  H   UNL     1      -6.920  -5.216   0.601  0.00  0.00    +0.170 HD
ATOM     43  C   UNL     1      -5.385  -4.490   1.783  0.00  0.00    +0.328 A 
ATOM     44  O   UNL     1      -4.427  -5.143   1.413  0.00  0.00    -0.247 OA
ENDBRANCH  30  34
ENDBRANCH  26  27
ENDBRANCH   4  26
TORSDOF 5
