REMARK  Name = CHEMBL573096
REMARK  8 active torsions:
REMARK  status: ('A' for Active; 'I' for Inactive)
REMARK    1  A    between atoms: C_7  and  C_11
REMARK    2  A    between atoms: C_11  and  C_12
REMARK    3  A    between atoms: C_12  and  C_14
REMARK    4  A    between atoms: C_12  and  N_42
REMARK    5  A    between atoms: C_14  and  O_15
REMARK    6  A    between atoms: O_15  and  C_16
REMARK    7  A    between atoms: C_18  and  C_22
REMARK    8  A    between atoms: C_28  and  C_32
REMARK                            x       y       z     vdW  Elec       q    Type
REMARK                         _______ _______ _______ _____ _____    ______ ____
ROOT
ATOM      1  C   UNL     1      -1.673  -6.334  -3.003  0.00  0.00    +0.139 A 
ATOM      2  C   UNL     1      -2.006  -6.750  -4.286  0.00  0.00    +0.057 A 
ATOM      3  C   UNL     1      -2.783  -7.902  -4.426  0.00  0.00    +0.004 A 
ATOM      4  C   UNL     1      -3.191  -8.586  -3.282  0.00  0.00    +0.119 A 
ATOM      5  N   UNL     1      -2.852  -8.155  -2.085  0.00  0.00    -0.259 NA
ATOM      6  C   UNL     1      -2.115  -7.074  -1.915  0.00  0.00    +0.156 A 
ENDROOT
BRANCH   3   7
ATOM      7  C   UNL     1      -3.168  -8.392  -5.773  0.00  0.00    -0.016 A 
ATOM      8  C   UNL     1      -2.752  -7.706  -6.914  0.00  0.00    +0.010 A 
ATOM      9  C   UNL     1      -3.110  -8.159  -8.164  0.00  0.00    +0.024 A 
ATOM     10  C   UNL     1      -3.891  -9.307  -8.300  0.00  0.00    +0.038 A 
ATOM     11  C   UNL     1      -4.301  -9.986  -7.158  0.00  0.00    -0.009 A 
ATOM     12  C   UNL     1      -3.944  -9.543  -5.906  0.00  0.00    +0.015 A 
ATOM     13  C   UNL     1      -5.117 -11.165  -7.635  0.00  0.00    +0.139 C 
ATOM     14  C   UNL     1      -5.096 -11.041  -9.143  0.00  0.00    +0.229 C 
ATOM     15  O   UNL     1      -5.632 -11.788  -9.935  0.00  0.00    -0.274 OA
ATOM     16  N   UNL     1      -4.371  -9.950  -9.441  0.00  0.00    -0.284 N 
ATOM     17  H   UNL     1      -4.202  -9.643 -10.345  0.00  0.00    +0.155 HD
BRANCH  13  18
ATOM     18  C   UNL     1      -6.529 -11.075  -7.117  0.00  0.00    -0.006 A 
ATOM     19  C   UNL     1      -7.407 -10.087  -7.359  0.00  0.00    +0.088 A 
ATOM     20  N   UNL     1      -8.589 -10.348  -6.722  0.00  0.00    -0.360 N 
ATOM     21  H   UNL     1      -9.374  -9.778  -6.749  0.00  0.00    +0.165 HD
ATOM     22  C   UNL     1      -8.500 -11.539  -6.038  0.00  0.00    +0.047 A 
ATOM     23  C   UNL     1      -7.208 -12.050  -6.260  0.00  0.00    +0.004 A 
ATOM     24  C   UNL     1      -6.831 -13.265  -5.686  0.00  0.00    +0.010 A 
ATOM     25  C   UNL     1      -7.722 -13.955  -4.913  0.00  0.00    +0.001 A 
ATOM     26  C   UNL     1      -8.999 -13.458  -4.694  0.00  0.00    +0.002 A 
ATOM     27  C   UNL     1      -9.389 -12.256  -5.243  0.00  0.00    +0.026 A 
ENDBRANCH  13  18
ENDBRANCH   3   7
BRANCH   1  28
ATOM     28  O   UNL     1      -0.919  -5.219  -2.816  0.00  0.00    -0.492 OA
BRANCH  28  29
ATOM     29  C   UNL     1      -0.614  -4.861  -1.466  0.00  0.00    +0.213 C 
BRANCH  29  30
ATOM     30  C   UNL     1       0.236  -3.589  -1.455  0.00  0.00    -0.033 C 
BRANCH  30  31
ATOM     31  N   UNL     1      -0.552  -2.469  -1.986  0.00  0.00    +0.382 N 
ATOM     32  H   UNL     1       0.009  -1.630  -1.979  0.00  0.00    -0.089 HD
ATOM     33  H   UNL     1      -0.836  -2.676  -2.932  0.00  0.00    -0.089 HD
ATOM     34  H   UNL     1      -1.370  -2.331  -1.412  0.00  0.00    -0.089 HD
ENDBRANCH  30  31
BRANCH  30  35
ATOM     35  C   UNL     1       0.666  -3.275  -0.021  0.00  0.00    +0.024 C 
BRANCH  35  42
ATOM     36  C   UNL     1      -0.017   1.362   0.009  0.00  0.00    +0.001 A 
ATOM     37  C   UNL     1       1.170   2.083   0.002  0.00  0.00    +0.002 A 
ATOM     38  C   UNL     1       2.386   1.436  -0.013  0.00  0.00    +0.026 A 
ATOM     39  C   UNL     1       2.428   0.046  -0.021  0.00  0.00    +0.047 A 
ATOM     40  C   UNL     1       1.223  -0.681  -0.013  0.00  0.00    +0.003 A 
ATOM     41  C   UNL     1       0.002  -0.004   0.002  0.00  0.00    +0.010 A 
ATOM     42  C   UNL     1       1.604  -2.095  -0.025  0.00  0.00    -0.024 A 
ATOM     43  C   UNL     1       2.945  -2.141  -0.038  0.00  0.00    +0.087 A 
ATOM     44  N   UNL     1       3.455  -0.871  -0.036  0.00  0.00    -0.360 N 
ATOM     45  H   UNL     1       4.399  -0.650  -0.044  0.00  0.00    +0.165 HD
ENDBRANCH  35  42
ENDBRANCH  30  35
ENDBRANCH  29  30
ENDBRANCH  28  29
ENDBRANCH   1  28
TORSDOF 8
