REMARK  Name = CHEMBL1082016
REMARK  8 active torsions:
REMARK  status: ('A' for Active; 'I' for Inactive)
REMARK    1  A    between atoms: C_1  and  N_2
REMARK    2  A    between atoms: C_5  and  C_13
REMARK    3  A    between atoms: N_18  and  C_19
REMARK    4  A    between atoms: C_19  and  C_20
REMARK    5  A    between atoms: C_20  and  C_22
REMARK    6  A    between atoms: C_20  and  N_33
REMARK    7  A    between atoms: C_22  and  C_23
REMARK    8  A    between atoms: C_26  and  C_29
REMARK                            x       y       z     vdW  Elec       q    Type
REMARK                         _______ _______ _______ _____ _____    ______ ____
ROOT
ATOM      1  C   UNL     1      -4.830  -1.404   0.018  0.00  0.00    +0.041 A 
ATOM      2  C   UNL     1      -5.872  -2.292   0.025  0.00  0.00    +0.129 A 
ATOM      3  N   UNL     1      -7.087  -1.780   0.032  0.00  0.00    -0.233 NA
ATOM      4  C   UNL     1      -7.279  -0.477   0.034  0.00  0.00    +0.159 A 
ATOM      5  S   UNL     1      -5.716   0.147   0.032  0.00  0.00    -0.052 S 
ATOM      6  N   UNL     1      -8.479   0.214   0.041  0.00  0.00    -0.325 N 
ATOM      7  H   UNL     1      -8.480   1.184   0.041  0.00  0.00    +0.148 HD
ENDROOT
BRANCH   1  12
ATOM      8  C   UNL     1      -0.018   1.461   0.010  0.00  0.00    +0.154 C 
ATOM      9  N   UNL     1       0.002  -0.004   0.002  0.00  0.00    -0.295 N 
ATOM     10  C   UNL     1      -1.117  -0.835   0.003  0.00  0.00    +0.070 A 
ATOM     11  C   UNL     1      -2.479  -0.589   0.011  0.00  0.00    +0.037 A 
ATOM     12  C   UNL     1      -3.374  -1.659   0.009  0.00  0.00    -0.008 A 
ATOM     13  C   UNL     1      -2.894  -2.971   0.000  0.00  0.00    +0.011 A 
ATOM     14  C   UNL     1      -1.537  -3.211  -0.007  0.00  0.00    +0.028 A 
ATOM     15  C   UNL     1      -0.643  -2.149  -0.007  0.00  0.00    +0.067 A 
ATOM     16  N   UNL     1       0.749  -2.075  -0.013  0.00  0.00    -0.306 N 
ATOM     17  H   UNL     1       1.357  -2.830  -0.020  0.00  0.00    +0.170 HD
ATOM     18  C   UNL     1       1.104  -0.777  -0.013  0.00  0.00    +0.327 A 
ATOM     19  O   UNL     1       2.249  -0.364  -0.023  0.00  0.00    -0.247 OA
ENDBRANCH   1  12
BRANCH   6  20
ATOM     20  C   UNL     1      -9.746  -0.520   0.049  0.00  0.00    +0.087 C 
BRANCH  20  21
ATOM     21  C   UNL     1     -10.911   0.473   0.056  0.00  0.00    -0.053 C 
BRANCH  21  22
ATOM     22  N   UNL     1     -10.774   1.395  -1.080  0.00  0.00    +0.381 N 
ATOM     23  H   UNL     1     -10.785   0.871  -1.942  0.00  0.00    -0.090 HD
ATOM     24  H   UNL     1     -11.542   2.050  -1.075  0.00  0.00    -0.090 HD
ATOM     25  H   UNL     1      -9.903   1.898  -1.002  0.00  0.00    -0.090 HD
ENDBRANCH  21  22
BRANCH  21  26
ATOM     26  C   UNL     1     -12.232  -0.289  -0.062  0.00  0.00    +0.020 C 
BRANCH  26  27
ATOM     27  C   UNL     1     -13.382   0.676   0.068  0.00  0.00    -0.049 A 
ATOM     28  C   UNL     1     -13.914   0.953   1.313  0.00  0.00    +0.004 A 
ATOM     29  C   UNL     1     -14.969   1.839   1.433  0.00  0.00    +0.012 A 
ATOM     30  C   UNL     1     -15.492   2.446   0.307  0.00  0.00    +0.055 A 
ATOM     31  C   UNL     1     -14.959   2.170  -0.939  0.00  0.00    +0.012 A 
ATOM     32  C   UNL     1     -13.902   1.288  -1.058  0.00  0.00    +0.004 A 
BRANCH  30  33
ATOM     33  C   UNL     1     -16.642   3.411   0.437  0.00  0.00    +0.417 C 
ATOM     34  F   UNL     1     -16.147   4.706   0.620  0.00  0.00    -0.166 F 
ATOM     35  F   UNL     1     -17.420   3.369  -0.726  0.00  0.00    -0.166 F 
ATOM     36  F   UNL     1     -17.429   3.053   1.537  0.00  0.00    -0.166 F 
ENDBRANCH  30  33
ENDBRANCH  26  27
ENDBRANCH  21  26
ENDBRANCH  20  21
ENDBRANCH   6  20
TORSDOF 7
