REMARK  Name = CHEMBL475838
REMARK  7 active torsions:
REMARK  status: ('A' for Active; 'I' for Inactive)
REMARK    1  A    between atoms: C_1  and  C_2
REMARK    2  A    between atoms: C_4  and  O_39
REMARK    3  A    between atoms: C_6  and  N_36
REMARK    4  A    between atoms: C_9  and  C_12
REMARK    5  A    between atoms: C_33  and  C_35
REMARK    6  A    between atoms: N_36  and  C_37
REMARK    7  A    between atoms: N_36  and  C_38
REMARK                            x       y       z     vdW  Elec       q    Type
REMARK                         _______ _______ _______ _____ _____    ______ ____
ROOT
ATOM      1  C   UNL     1       1.564  -2.261   2.467  0.00  0.00    -0.018 A 
ATOM      2  C   UNL     1       1.350  -1.566   3.641  0.00  0.00    +0.007 A 
ATOM      3  C   UNL     1       2.050  -1.896   4.791  0.00  0.00    +0.013 A 
ATOM      4  C   UNL     1       2.973  -2.935   4.763  0.00  0.00    +0.033 A 
ATOM      5  C   UNL     1       3.190  -3.643   3.567  0.00  0.00    +0.033 A 
ATOM      6  C   UNL     1       2.478  -3.303   2.424  0.00  0.00    +0.018 A 
ATOM      7  C   UNL     1       4.174  -4.743   3.555  0.00  0.00    +0.193 C 
ATOM      8  O   UNL     1       4.375  -5.363   2.530  0.00  0.00    -0.287 OA
ATOM      9  C   UNL     1       4.916  -5.095   4.786  0.00  0.00    +0.039 C 
ATOM     10  C   UNL     1       4.712  -4.425   5.927  0.00  0.00    +0.052 C 
ATOM     11  C   UNL     1       3.733  -3.312   5.970  0.00  0.00    +0.194 C 
ATOM     12  O   UNL     1       3.556  -2.705   7.008  0.00  0.00    -0.287 OA
ATOM     13  C   UNL     1       5.441  -4.758   7.196  0.00  0.00    +0.240 C 
ATOM     14  C   UNL     1       6.590  -5.758   6.958  0.00  0.00    +0.175 C 
ATOM     15  C   UNL     1       6.667  -6.451   8.345  0.00  0.00    +0.156 C 
ATOM     16  C   UNL     1       5.334  -6.128   8.991  0.00  0.00    +0.310 C 
ATOM     17  O   UNL     1       5.007  -6.429  10.114  0.00  0.00    -0.251 OA
ATOM     18  O   UNL     1       4.567  -5.433   8.117  0.00  0.00    -0.454 OA
ATOM     19  O   UNL     1       6.176  -6.727   5.992  0.00  0.00    -0.364 OA
ATOM     20  C   UNL     1       5.910  -6.228   4.712  0.00  0.00    +0.150 C 
ATOM     21  C   UNL     1       7.226  -5.712   4.128  0.00  0.00    +0.043 C 
ENDROOT
BRANCH   1  27
ATOM     22  C   UNL     1      -0.022   1.527  -0.029  0.00  0.00    +0.040 C 
ATOM     23  C   UNL     1      -0.000  -0.003  -0.025  0.00  0.00    +0.143 C 
ATOM     24  C   UNL     1      -1.436  -0.534  -0.006  0.00  0.00    +0.130 C 
ATOM     25  C   UNL     1      -1.405  -2.064   0.059  0.00  0.00    -0.035 C 
ATOM     26  C   UNL     1      -0.610  -2.496   1.294  0.00  0.00    +0.024 C 
ATOM     27  C   UNL     1       0.794  -1.889   1.226  0.00  0.00    +0.147 C 
ATOM     28  O   UNL     1       0.693  -0.467   1.136  0.00  0.00    -0.367 OA
BRANCH  25  29
ATOM     29  N   UNL     1      -2.778  -2.580   0.151  0.00  0.00    +0.380 N 
ATOM     30  C   UNL     1      -2.755  -4.047   0.081  0.00  0.00    -0.096 C 
ATOM     31  C   UNL     1      -3.374  -2.160   1.426  0.00  0.00    -0.096 C 
ATOM     32  H   UNL     1      -3.326  -2.215  -0.613  0.00  0.00    -0.082 HD
ENDBRANCH  25  29
BRANCH  24  33
ATOM     33  O   UNL     1      -2.114  -0.119  -1.193  0.00  0.00    -0.391 OA
ATOM     34  H   UNL     1      -2.167   0.841  -1.301  0.00  0.00    +0.210 HD
ENDBRANCH  24  33
ENDBRANCH   1  27
TORSDOF 3
