REMARK  Name = CHEMBL378759
REMARK  8 active torsions:
REMARK  status: ('A' for Active; 'I' for Inactive)
REMARK    1  A    between atoms: C_1  and  C_2
REMARK    2  A    between atoms: C_5  and  C_12
REMARK    3  A    between atoms: C_14  and  S_18
REMARK    4  A    between atoms: S_18  and  C_19
REMARK    5  A    between atoms: C_19  and  C_20
REMARK    6  A    between atoms: C_20  and  C_22
REMARK    7  A    between atoms: C_20  and  N_33
REMARK    8  A    between atoms: C_22  and  C_23
REMARK                            x       y       z     vdW  Elec       q    Type
REMARK                         _______ _______ _______ _____ _____    ______ ____
ROOT
ATOM      1  S   UNL     1      -0.004  -3.491  -8.361  0.00  0.00    -0.125 S 
ENDROOT
BRANCH   1   4
ATOM      2  C   UNL     1      -0.003  -1.420  -4.905  0.00  0.00    +0.001 A 
ATOM      3  C   UNL     1       0.001  -2.484  -5.809  0.00  0.00    +0.026 A 
ATOM      4  C   UNL     1      -0.009  -2.193  -7.169  0.00  0.00    +0.026 A 
ATOM      5  C   UNL     1      -0.024  -0.863  -7.577  0.00  0.00    +0.125 A 
ATOM      6  N   UNL     1      -0.028   0.115  -6.694  0.00  0.00    -0.262 NA
ATOM      7  C   UNL     1      -0.024  -0.116  -5.397  0.00  0.00    +0.119 A 
BRANCH   2  12
ATOM      8  C   UNL     1      -0.018   1.503   0.010  0.00  0.00    +0.068 C 
ATOM      9  C   UNL     1       0.002  -0.004   0.002  0.00  0.00    +0.067 A 
ATOM     10  C   UNL     1       0.008  -0.858  -1.182  0.00  0.00    +0.023 A 
ATOM     11  C   UNL     1      -0.002  -0.608  -2.557  0.00  0.00    +0.020 A 
ATOM     12  C   UNL     1       0.008  -1.674  -3.443  0.00  0.00    -0.016 A 
ATOM     13  C   UNL     1       0.029  -2.989  -2.963  0.00  0.00    +0.010 A 
ATOM     14  C   UNL     1       0.038  -3.241  -1.623  0.00  0.00    +0.028 A 
ATOM     15  C   UNL     1       0.029  -2.186  -0.712  0.00  0.00    +0.066 A 
ATOM     16  N   UNL     1       0.035  -2.119   0.657  0.00  0.00    -0.277 N 
ATOM     17  H   UNL     1       0.049  -2.881   1.257  0.00  0.00    +0.189 HD
ATOM     18  N   UNL     1       0.023  -0.777   1.050  0.00  0.00    -0.178 NA
ENDBRANCH   2  12
ENDBRANCH   1   4
BRANCH   1  19
ATOM     19  C   UNL     1      -0.022  -2.625  -9.954  0.00  0.00    +0.058 C 
BRANCH  19  20
ATOM     20  C   UNL     1      -0.018  -3.649 -11.091  0.00  0.00    -0.060 C 
BRANCH  20  21
ATOM     21  N   UNL     1      -1.266  -4.423 -11.056  0.00  0.00    +0.381 N 
ATOM     22  H   UNL     1      -2.052  -3.800 -11.167  0.00  0.00    -0.090 HD
ATOM     23  H   UNL     1      -1.264  -5.098 -11.806  0.00  0.00    -0.090 HD
ATOM     24  H   UNL     1      -1.339  -4.903 -10.172  0.00  0.00    -0.090 HD
ENDBRANCH  20  21
BRANCH  20  25
ATOM     25  C   UNL     1       0.092  -2.921 -12.432  0.00  0.00    +0.022 C 
BRANCH  25  26
ATOM     26  C   UNL     1       0.219  -3.931 -13.543  0.00  0.00    -0.024 A 
ATOM     27  C   UNL     1       1.361  -4.378 -14.090  0.00  0.00    +0.087 A 
ATOM     28  N   UNL     1       1.083  -5.290 -15.072  0.00  0.00    -0.360 N 
ATOM     29  H   UNL     1       1.746  -5.750 -15.609  0.00  0.00    +0.165 HD
ATOM     30  C   UNL     1      -0.280  -5.456 -15.184  0.00  0.00    +0.047 A 
ATOM     31  C   UNL     1      -0.880  -4.617 -14.227  0.00  0.00    +0.003 A 
ATOM     32  C   UNL     1      -2.271  -4.581 -14.107  0.00  0.00    +0.010 A 
ATOM     33  C   UNL     1      -3.042  -5.365 -14.918  0.00  0.00    +0.001 A 
ATOM     34  C   UNL     1      -2.454  -6.197 -15.861  0.00  0.00    +0.002 A 
ATOM     35  C   UNL     1      -1.085  -6.241 -16.003  0.00  0.00    +0.026 A 
ENDBRANCH  25  26
ENDBRANCH  20  25
ENDBRANCH  19  20
ENDBRANCH   1  19
TORSDOF 7
