REMARK  Name = CHEMBL594933
REMARK  9 active torsions:
REMARK  status: ('A' for Active; 'I' for Inactive)
REMARK    1  A    between atoms: C_1  and  C_2
REMARK    2  A    between atoms: C_5  and  C_12
REMARK    3  A    between atoms: C_14  and  O_23
REMARK    4  A    between atoms: C_17  and  C_18
REMARK    5  A    between atoms: O_23  and  C_24
REMARK    6  A    between atoms: C_24  and  C_25
REMARK    7  A    between atoms: C_25  and  C_27
REMARK    8  A    between atoms: C_25  and  N_38
REMARK    9  A    between atoms: C_27  and  C_28
REMARK                            x       y       z     vdW  Elec       q    Type
REMARK                         _______ _______ _______ _____ _____    ______ ____
ROOT
ATOM      1  C   UNL     1      -0.050  -1.433  -4.859  0.00  0.00    +0.030 A 
ATOM      2  C   UNL     1      -0.168  -0.140  -5.368  0.00  0.00    +0.059 A 
ATOM      3  C   UNL     1      -0.123   0.034  -6.746  0.00  0.00    +0.139 A 
ATOM      4  C   UNL     1       0.037  -1.075  -7.568  0.00  0.00    +0.157 A 
ATOM      5  N   UNL     1       0.146  -2.286  -7.062  0.00  0.00    -0.251 NA
ATOM      6  C   UNL     1       0.115  -2.502  -5.754  0.00  0.00    +0.083 A 
ENDROOT
BRANCH   1  11
ATOM      7  C   UNL     1      -3.209  -0.104  -0.327  0.00  0.00    +0.068 C 
ATOM      8  C   UNL     1      -1.980  -0.968  -0.201  0.00  0.00    +0.068 A 
ATOM      9  C   UNL     1      -1.131  -1.353  -1.262  0.00  0.00    +0.026 A 
ATOM     10  C   UNL     1      -1.110  -1.115  -2.642  0.00  0.00    +0.040 A 
ATOM     11  C   UNL     1      -0.090  -1.673  -3.397  0.00  0.00    +0.074 A 
ATOM     12  N   UNL     1       0.853  -2.423  -2.830  0.00  0.00    -0.253 NA
ATOM     13  C   UNL     1       0.873  -2.673  -1.540  0.00  0.00    +0.139 A 
ATOM     14  C   UNL     1      -0.111  -2.154  -0.704  0.00  0.00    +0.084 A 
ATOM     15  N   UNL     1      -0.366  -2.226   0.640  0.00  0.00    -0.275 N 
ATOM     16  H   UNL     1       0.163  -2.707   1.295  0.00  0.00    +0.189 HD
ATOM     17  N   UNL     1      -1.521  -1.478   0.906  0.00  0.00    -0.178 NA
ENDBRANCH   1  11
BRANCH   6  18
ATOM     18  C   UNL     1       0.248  -3.883  -5.234  0.00  0.00    +0.039 A 
ATOM     19  C   UNL     1      -0.536  -4.505  -4.160  0.00  0.00    +0.051 A 
ATOM     20  C   UNL     1      -0.066  -5.757  -4.035  0.00  0.00    +0.195 A 
ATOM     21  O   UNL     1       0.919  -5.946  -4.926  0.00  0.00    -0.470 OA
ATOM     22  C   UNL     1       1.118  -4.839  -5.656  0.00  0.00    +0.204 A 
ENDBRANCH   6  18
BRANCH   3  23
ATOM     23  O   UNL     1      -0.235   1.276  -7.286  0.00  0.00    -0.492 OA
BRANCH  23  24
ATOM     24  C   UNL     1      -0.180   1.373  -8.710  0.00  0.00    +0.213 C 
BRANCH  24  25
ATOM     25  C   UNL     1      -0.322   2.838  -9.128  0.00  0.00    -0.033 C 
BRANCH  25  26
ATOM     26  N   UNL     1       0.836   3.600  -8.642  0.00  0.00    +0.382 N 
ATOM     27  H   UNL     1       0.742   4.566  -8.917  0.00  0.00    -0.089 HD
ATOM     28  H   UNL     1       0.879   3.540  -7.635  0.00  0.00    -0.089 HD
ATOM     29  H   UNL     1       1.681   3.218  -9.038  0.00  0.00    -0.089 HD
ENDBRANCH  25  26
BRANCH  25  30
ATOM     30  C   UNL     1      -0.388   2.929 -10.654  0.00  0.00    +0.024 C 
BRANCH  30  31
ATOM     31  C   UNL     1      -0.650   4.356 -11.061  0.00  0.00    -0.024 A 
ATOM     32  C   UNL     1      -1.847   4.903 -11.327  0.00  0.00    +0.087 A 
ATOM     33  N   UNL     1      -1.694   6.220 -11.663  0.00  0.00    -0.360 N 
ATOM     34  H   UNL     1      -2.416   6.824 -11.897  0.00  0.00    +0.165 HD
ATOM     35  C   UNL     1      -0.360   6.562 -11.621  0.00  0.00    +0.047 A 
ATOM     36  C   UNL     1       0.351   5.411 -11.236  0.00  0.00    +0.003 A 
ATOM     37  C   UNL     1       1.740   5.462 -11.103  0.00  0.00    +0.010 A 
ATOM     38  C   UNL     1       2.401   6.633 -11.344  0.00  0.00    +0.001 A 
ATOM     39  C   UNL     1       1.704   7.772 -11.721  0.00  0.00    +0.002 A 
ATOM     40  C   UNL     1       0.334   7.742 -11.867  0.00  0.00    +0.026 A 
ENDBRANCH  30  31
ENDBRANCH  25  30
ENDBRANCH  24  25
ENDBRANCH  23  24
ENDBRANCH   3  23
TORSDOF 8
