REMARK  Name = CHEMBL247619
REMARK  7 active torsions:
REMARK  status: ('A' for Active; 'I' for Inactive)
REMARK    1  A    between atoms: C_1  and  N_2
REMARK    2  A    between atoms: C_9  and  C_12
REMARK    3  A    between atoms: C_12  and  N_13
REMARK    4  A    between atoms: N_13  and  C_14
REMARK    5  A    between atoms: C_15  and  C_20
REMARK    6  A    between atoms: N_18  and  C_19
REMARK    7  A    between atoms: N_22  and  C_23
REMARK                            x       y       z     vdW  Elec       q    Type
REMARK                         _______ _______ _______ _____ _____    ______ ____
ROOT
ATOM      1  C   UNL     1      -7.384  -5.808  -2.176  0.00  0.00    +0.127 A 
ATOM      2  C   UNL     1      -7.863  -6.071  -3.458  0.00  0.00    +0.094 A 
ATOM      3  C   UNL     1      -8.993  -6.909  -3.312  0.00  0.00    +0.118 A 
ATOM      4  N   UNL     1      -9.175  -7.130  -2.041  0.00  0.00    -0.303 N 
ATOM      5  N   UNL     1      -8.186  -6.462  -1.311  0.00  0.00    -0.276 N 
ATOM      6  C   UNL     1      -8.045  -6.470   0.147  0.00  0.00    +0.172 C 
ATOM      7  H   UNL     1      -9.882  -7.674  -1.661  0.00  0.00    +0.186 HD
ENDROOT
BRANCH   2   8
ATOM      8  C   UNL     1      -7.302  -5.572  -4.719  0.00  0.00    +0.253 C 
ATOM      9  O   UNL     1      -6.320  -4.853  -4.706  0.00  0.00    -0.270 OA
ATOM     10  N   UNL     1      -7.874  -5.911  -5.891  0.00  0.00    -0.281 N 
ATOM     11  H   UNL     1      -8.686  -6.441  -5.899  0.00  0.00    +0.155 HD
BRANCH  10  12
ATOM     12  C   UNL     1      -7.296  -5.496  -7.098  0.00  0.00    +0.037 A 
ATOM     13  C   UNL     1      -8.100  -5.239  -8.201  0.00  0.00    +0.027 A 
ATOM     14  C   UNL     1      -7.530  -4.831  -9.391  0.00  0.00    +0.051 A 
ATOM     15  C   UNL     1      -6.155  -4.678  -9.490  0.00  0.00    +0.169 A 
ATOM     16  C   UNL     1      -5.348  -4.933  -8.387  0.00  0.00    +0.171 A 
ATOM     17  C   UNL     1      -5.921  -5.338  -7.191  0.00  0.00    +0.073 A 
ATOM     18  O   UNL     1      -3.998  -4.781  -8.462  0.00  0.00    -0.421 OA
ATOM     19  C   UNL     1      -3.427  -4.731  -9.774  0.00  0.00    +0.509 C 
ATOM     20  C   UNL     1      -4.272  -3.776 -10.629  0.00  0.00    +0.509 C 
ATOM     21  O   UNL     1      -5.611  -4.280 -10.673  0.00  0.00    -0.421 OA
ATOM     22  F   UNL     1      -4.267  -2.500 -10.055  0.00  0.00    -0.155 F 
ATOM     23  F   UNL     1      -3.748  -3.713 -11.924  0.00  0.00    -0.155 F 
ATOM     24  F   UNL     1      -2.112  -4.258  -9.699  0.00  0.00    -0.155 F 
ATOM     25  F   UNL     1      -3.439  -6.008 -10.343  0.00  0.00    -0.155 F 
ENDBRANCH  10  12
ENDBRANCH   2   8
BRANCH   1  26
ATOM     26  N   UNL     1      -6.291  -5.030  -1.853  0.00  0.00    -0.325 N 
ATOM     27  H   UNL     1      -5.817  -4.546  -2.548  0.00  0.00    +0.148 HD
BRANCH  26  28
ATOM     28  C   UNL     1      -5.847  -4.933  -0.460  0.00  0.00    +0.139 C 
BRANCH  28  37
ATOM     29  C   UNL     1       2.039  -1.277  -0.652  0.00  0.00    +0.129 C 
ATOM     30  N   UNL     1       0.677  -0.815  -0.372  0.00  0.00    -0.302 N 
ATOM     31  C   UNL     1      -0.344  -1.696  -0.355  0.00  0.00    +0.305 C 
ATOM     32  O   UNL     1      -0.134  -2.874  -0.572  0.00  0.00    -0.252 OA
ATOM     33  N   UNL     1      -1.596  -1.271  -0.098  0.00  0.00    -0.254 N 
ATOM     34  C   UNL     1      -2.666  -2.161  -0.184  0.00  0.00    +0.126 A 
ATOM     35  C   UNL     1      -3.966  -1.693  -0.025  0.00  0.00    +0.044 A 
ATOM     36  C   UNL     1      -5.018  -2.587  -0.113  0.00  0.00    +0.010 A 
ATOM     37  C   UNL     1      -4.732  -3.924  -0.357  0.00  0.00    -0.012 A 
ATOM     38  C   UNL     1      -3.418  -4.318  -0.505  0.00  0.00    +0.118 A 
ATOM     39  N   UNL     1      -2.435  -3.442  -0.421  0.00  0.00    -0.240 NA
ATOM     40  H   UNL     1       0.509   0.124  -0.199  0.00  0.00    +0.150 HD
ATOM     41  H   UNL     1      -1.754  -0.345   0.147  0.00  0.00    +0.158 HD
ENDBRANCH  28  37
ENDBRANCH  26  28
ENDBRANCH   1  26
TORSDOF 5
