REMARK  Name = CHEMBL1170238
REMARK  4 active torsions:
REMARK  status: ('A' for Active; 'I' for Inactive)
REMARK    1  A    between atoms: C_1  and  C_2
REMARK    2  A    between atoms: C_8  and  N_12
REMARK    3  A    between atoms: C_15  and  N_18
REMARK    4  A    between atoms: C_19  and  C_21
REMARK                            x       y       z     vdW  Elec       q    Type
REMARK                         _______ _______ _______ _____ _____    ______ ____
ROOT
ATOM      1  N   UNL     1       0.009   0.688   2.848  0.00  0.00    -0.313 N 
ATOM      2  C   UNL     1      -0.222   1.909   2.055  0.00  0.00    +0.108 C 
ATOM      3  C   UNL     1      -0.751   2.949   3.074  0.00  0.00    +0.043 C 
ATOM      4  C   UNL     1       0.088   2.605   4.333  0.00  0.00    +0.092 C 
ATOM      5  C   UNL     1       0.215   1.069   4.253  0.00  0.00    +0.128 C 
ENDROOT
BRANCH   1  13
ATOM      6  C   UNL     1      -3.173   0.211   3.004  0.00  0.00    +0.046 C 
ATOM      7  C   UNL     1      -2.583  -1.062   2.455  0.00  0.00    -0.021 A 
ATOM      8  C   UNL     1      -3.257  -2.168   2.098  0.00  0.00    +0.088 A 
ATOM      9  N   UNL     1      -2.381  -3.119   1.643  0.00  0.00    -0.345 N 
ATOM     10  H   UNL     1      -2.632  -4.002   1.329  0.00  0.00    +0.167 HD
ATOM     11  C   UNL     1      -1.100  -2.641   1.697  0.00  0.00    +0.143 A 
ATOM     12  C   UNL     1      -1.168  -1.329   2.202  0.00  0.00    +0.061 A 
ATOM     13  C   UNL     1       0.023  -0.604   2.353  0.00  0.00    +0.134 A 
ATOM     14  N   UNL     1       1.167  -1.189   2.008  0.00  0.00    -0.220 NA
ATOM     15  C   UNL     1       1.185  -2.422   1.535  0.00  0.00    +0.225 A 
ATOM     16  N   UNL     1       0.094  -3.142   1.385  0.00  0.00    -0.218 NA
ENDBRANCH   1  13
BRANCH   4  17
ATOM     17  N   UNL     1       1.403   3.247   4.272  0.00  0.00    -0.307 N 
ATOM     18  C   UNL     1       1.560   4.508   4.722  0.00  0.00    +0.244 C 
ATOM     19  O   UNL     1       0.610   5.112   5.179  0.00  0.00    -0.270 OA
ATOM     20  H   UNL     1       2.162   2.764   3.906  0.00  0.00    +0.149 HD
BRANCH  18  21
ATOM     21  C   UNL     1       2.888   5.155   4.660  0.00  0.00    +0.037 A 
ATOM     22  C   UNL     1       3.980   4.466   4.129  0.00  0.00    +0.013 A 
ATOM     23  C   UNL     1       5.216   5.076   4.074  0.00  0.00    +0.001 A 
ATOM     24  C   UNL     1       5.374   6.368   4.542  0.00  0.00    +0.000 A 
ATOM     25  C   UNL     1       4.296   7.057   5.069  0.00  0.00    +0.001 A 
ATOM     26  C   UNL     1       3.054   6.460   5.125  0.00  0.00    +0.013 A 
ENDBRANCH  18  21
ENDBRANCH   4  17
TORSDOF 3
