REMARK  Name = CHEMBL395080
REMARK  8 active torsions:
REMARK  status: ('A' for Active; 'I' for Inactive)
REMARK    1  A    between atoms: C_1  and  O_2
REMARK    2  A    between atoms: O_2  and  C_3
REMARK    3  A    between atoms: C_5  and  C_10
REMARK    4  A    between atoms: C_8  and  N_9
REMARK    5  A    between atoms: C_20  and  C_26
REMARK    6  A    between atoms: C_26  and  C_27
REMARK    7  A    between atoms: N_29  and  C_30
REMARK    8  A    between atoms: C_33  and  N_36
REMARK                            x       y       z     vdW  Elec       q    Type
REMARK                         _______ _______ _______ _____ _____    ______ ____
ROOT
ATOM      1  C   UNL     1       2.446   0.266   4.195  0.00  0.00    -0.016 A 
ATOM      2  C   UNL     1       2.404   1.662   4.143  0.00  0.00    +0.009 A 
ATOM      3  C   UNL     1       2.998   2.408   5.118  0.00  0.00    +0.015 A 
ATOM      4  C   UNL     1       3.653   1.782   6.187  0.00  0.00    +0.058 A 
ATOM      5  C   UNL     1       3.665   0.381   6.264  0.00  0.00    +0.044 A 
ATOM      6  C   UNL     1       3.075  -0.372   5.262  0.00  0.00    +0.032 A 
ATOM      7  N   UNL     1       4.230  -0.250   7.366  0.00  0.00    -0.312 N 
ATOM      8  C   UNL     1       3.713   0.009   8.642  0.00  0.00    +0.053 A 
ATOM      9  C   UNL     1       3.170  -1.035   9.378  0.00  0.00    +0.025 A 
ATOM     10  C   UNL     1       2.623  -0.794  10.624  0.00  0.00    +0.006 A 
ATOM     11  C   UNL     1       2.614   0.488  11.139  0.00  0.00    -0.037 A 
ATOM     12  C   UNL     1       3.164   1.530  10.417  0.00  0.00    +0.029 A 
ATOM     13  C   UNL     1       3.733   1.295   9.170  0.00  0.00    +0.055 A 
ATOM     14  N   UNL     1       4.354   2.349   8.502  0.00  0.00    -0.280 N 
ATOM     15  C   UNL     1       4.329   2.595   7.202  0.00  0.00    +0.250 C 
ATOM     16  O   UNL     1       4.921   3.584   6.815  0.00  0.00    -0.270 OA
ATOM     17  H   UNL     1       4.974  -0.863   7.253  0.00  0.00    +0.152 HD
ATOM     18  H   UNL     1       4.860   2.970   9.049  0.00  0.00    +0.155 HD
ENDROOT
BRANCH   1  21
ATOM     19  C   UNL     1       0.599  -0.646   1.049  0.00  0.00    +0.141 A 
ATOM     20  C   UNL     1       1.185   0.104   2.051  0.00  0.00    +0.056 A 
ATOM     21  C   UNL     1       1.816  -0.535   3.120  0.00  0.00    -0.014 A 
ATOM     22  C   UNL     1       1.852  -1.928   3.174  0.00  0.00    +0.010 A 
ATOM     23  C   UNL     1       1.266  -2.673   2.172  0.00  0.00    +0.027 A 
ATOM     24  C   UNL     1       0.634  -2.039   1.111  0.00  0.00    +0.067 A 
BRANCH  24  25
ATOM     25  N   UNL     1       0.036  -2.797   0.101  0.00  0.00    -0.355 N 
ATOM     26  H   UNL     1      -0.403  -2.355  -0.643  0.00  0.00    +0.142 HD
ATOM     27  H   UNL     1       0.060  -3.766   0.143  0.00  0.00    +0.142 HD
ENDBRANCH  24  25
BRANCH  19  29
ATOM     28  C   UNL     1      -0.013   1.403   0.008  0.00  0.00    +0.277 C 
ATOM     29  O   UNL     1      -0.016  -0.026   0.006  0.00  0.00    -0.493 OA
ENDBRANCH  19  29
ENDBRANCH   1  21
BRANCH  11  30
ATOM     30  C   UNL     1       2.002   0.751  12.491  0.00  0.00    +0.131 C 
BRANCH  30  31
ATOM     31  C   UNL     1       3.055   0.601  13.557  0.00  0.00    +0.222 C 
ATOM     32  O   UNL     1       4.192   0.308  13.250  0.00  0.00    -0.275 OA
ATOM     33  N   UNL     1       2.735   0.791  14.852  0.00  0.00    -0.285 N 
ATOM     34  H   UNL     1       1.843   1.087  15.093  0.00  0.00    +0.155 HD
BRANCH  33  35
ATOM     35  C   UNL     1       3.690   0.559  15.852  0.00  0.00    +0.034 A 
ATOM     36  C   UNL     1       3.300   0.035  17.077  0.00  0.00    +0.025 A 
ATOM     37  C   UNL     1       4.240  -0.194  18.061  0.00  0.00    +0.025 A 
ATOM     38  C   UNL     1       5.577   0.102  17.826  0.00  0.00    +0.030 A 
ATOM     39  C   UNL     1       5.967   0.626  16.601  0.00  0.00    +0.025 A 
ATOM     40  C   UNL     1       5.027   0.850  15.615  0.00  0.00    +0.025 A 
BRANCH  38  41
ATOM     41  N   UNL     1       6.530  -0.129  18.824  0.00  0.00    -0.326 N 
ATOM     42  C   UNL     1       6.163  -0.798  20.082  0.00  0.00    +0.133 C 
ATOM     43  C   UNL     1       7.155  -1.940  20.330  0.00  0.00    +0.178 C 
ATOM     44  O   UNL     1       8.489  -1.431  20.247  0.00  0.00    -0.377 OA
ATOM     45  C   UNL     1       8.836  -0.906  18.963  0.00  0.00    +0.178 C 
ATOM     46  C   UNL     1       7.931   0.284  18.643  0.00  0.00    +0.133 C 
ENDBRANCH  38  41
ENDBRANCH  33  35
ENDBRANCH  30  31
ENDBRANCH  11  30
TORSDOF 7
