REMARK  Name = CHEMBL211827
REMARK  7 active torsions:
REMARK  status: ('A' for Active; 'I' for Inactive)
REMARK    1  A    between atoms: C_7  and  C_11
REMARK    2  A    between atoms: C_11  and  C_12
REMARK    3  A    between atoms: C_12  and  C_14
REMARK    4  A    between atoms: C_12  and  N_32
REMARK    5  A    between atoms: C_14  and  O_15
REMARK    6  A    between atoms: O_15  and  C_16
REMARK    7  A    between atoms: C_18  and  C_22
REMARK                            x       y       z     vdW  Elec       q    Type
REMARK                         _______ _______ _______ _____ _____    ______ ____
ROOT
ATOM      1  C   UNL     1      -0.522  -4.921  -1.465  0.00  0.00    +0.213 C 
ENDROOT
BRANCH   1   2
ATOM      2  C   UNL     1       0.334  -3.653  -1.464  0.00  0.00    -0.031 C 
BRANCH   2   3
ATOM      3  N   UNL     1      -0.409  -2.561  -2.107  0.00  0.00    +0.382 N 
ATOM      4  H   UNL     1      -0.629  -2.818  -3.058  0.00  0.00    -0.089 HD
ATOM      5  H   UNL     1      -1.264  -2.390  -1.599  0.00  0.00    -0.089 HD
ATOM      6  H   UNL     1       0.155  -1.725  -2.107  0.00  0.00    -0.089 HD
ENDBRANCH   2   3
BRANCH   2   7
ATOM      7  C   UNL     1       0.667  -3.264  -0.023  0.00  0.00    +0.045 C 
BRANCH   7  14
ATOM      8  C   UNL     1      -0.016   1.360   0.009  0.00  0.00    +0.001 A 
ATOM      9  C   UNL     1       1.170   2.085   0.002  0.00  0.00    +0.002 A 
ATOM     10  C   UNL     1       2.378   1.448  -0.013  0.00  0.00    +0.028 A 
ATOM     11  C   UNL     1       2.428   0.056  -0.021  0.00  0.00    +0.066 A 
ATOM     12  C   UNL     1       1.228  -0.679  -0.013  0.00  0.00    +0.023 A 
ATOM     13  C   UNL     1       0.002  -0.004   0.002  0.00  0.00    +0.012 A 
ATOM     14  C   UNL     1       1.609  -2.088  -0.025  0.00  0.00    +0.069 A 
ATOM     15  N   UNL     1       2.910  -2.147  -0.038  0.00  0.00    -0.178 NA
ATOM     16  N   UNL     1       3.450  -0.857  -0.036  0.00  0.00    -0.277 N 
ATOM     17  H   UNL     1       4.396  -0.642  -0.044  0.00  0.00    +0.189 HD
ENDBRANCH   7  14
ENDBRANCH   2   7
ENDBRANCH   1   2
BRANCH   1  18
ATOM     18  O   UNL     1      -0.736  -5.351  -2.811  0.00  0.00    -0.492 OA
BRANCH  18  19
ATOM     19  C   UNL     1      -1.482  -6.473  -2.990  0.00  0.00    +0.139 A 
ATOM     20  C   UNL     1      -1.730  -6.957  -4.268  0.00  0.00    +0.057 A 
ATOM     21  C   UNL     1      -2.502  -8.113  -4.400  0.00  0.00    +0.004 A 
ATOM     22  C   UNL     1      -2.992  -8.732  -3.251  0.00  0.00    +0.119 A 
ATOM     23  N   UNL     1      -2.733  -8.238  -2.058  0.00  0.00    -0.259 NA
ATOM     24  C   UNL     1      -2.002  -7.152  -1.897  0.00  0.00    +0.156 A 
BRANCH  21  25
ATOM     25  C   UNL     1      -2.797  -8.673  -5.742  0.00  0.00    -0.016 A 
ATOM     26  C   UNL     1      -2.291  -8.038  -6.887  0.00  0.00    +0.009 A 
ATOM     27  C   UNL     1      -2.546  -8.529  -8.129  0.00  0.00    +0.010 A 
ATOM     28  C   UNL     1      -3.325  -9.688  -8.276  0.00  0.00    +0.000 A 
ATOM     29  C   UNL     1      -3.614 -10.232  -9.537  0.00  0.00    +0.119 A 
ATOM     30  N   UNL     1      -4.347 -11.317  -9.631  0.00  0.00    -0.263 NA
ATOM     31  C   UNL     1      -4.841 -11.943  -8.572  0.00  0.00    +0.111 A 
ATOM     32  C   UNL     1      -4.619 -11.497  -7.305  0.00  0.00    +0.028 A 
ATOM     33  C   UNL     1      -3.841 -10.337  -7.123  0.00  0.00    -0.014 A 
ATOM     34  C   UNL     1      -3.564  -9.819  -5.852  0.00  0.00    +0.017 A 
ENDBRANCH  21  25
ENDBRANCH  18  19
ENDBRANCH   1  18
TORSDOF 7
