REMARK  Name = CHEMBL594748
REMARK  9 active torsions:
REMARK  status: ('A' for Active; 'I' for Inactive)
REMARK    1  A    between atoms: C_1  and  C_2
REMARK    2  A    between atoms: C_5  and  C_12
REMARK    3  A    between atoms: C_14  and  O_23
REMARK    4  A    between atoms: C_17  and  C_18
REMARK    5  A    between atoms: O_23  and  C_24
REMARK    6  A    between atoms: C_24  and  C_25
REMARK    7  A    between atoms: C_25  and  C_27
REMARK    8  A    between atoms: C_25  and  N_34
REMARK    9  A    between atoms: C_27  and  C_28
REMARK                            x       y       z     vdW  Elec       q    Type
REMARK                         _______ _______ _______ _____ _____    ______ ____
ROOT
ATOM      1  C   UNL     1      -0.002  -1.421  -4.904  0.00  0.00    +0.012 A 
ATOM      2  C   UNL     1      -0.933  -0.548  -5.465  0.00  0.00    +0.057 A 
ATOM      3  C   UNL     1      -0.902  -0.344  -6.840  0.00  0.00    +0.139 A 
ATOM      4  C   UNL     1       0.046  -1.008  -7.608  0.00  0.00    +0.157 A 
ATOM      5  N   UNL     1       0.916  -1.828  -7.055  0.00  0.00    -0.250 NA
ATOM      6  C   UNL     1       0.931  -2.053  -5.746  0.00  0.00    +0.085 A 
ENDROOT
BRANCH   1  11
ATOM      7  C   UNL     1      -0.018   1.503   0.010  0.00  0.00    +0.068 C 
ATOM      8  C   UNL     1       0.002  -0.004   0.002  0.00  0.00    +0.067 A 
ATOM      9  C   UNL     1       0.008  -0.858  -1.182  0.00  0.00    +0.023 A 
ATOM     10  C   UNL     1      -0.002  -0.608  -2.557  0.00  0.00    +0.020 A 
ATOM     11  C   UNL     1       0.009  -1.674  -3.444  0.00  0.00    -0.015 A 
ATOM     12  C   UNL     1       0.030  -2.990  -2.963  0.00  0.00    +0.010 A 
ATOM     13  C   UNL     1       0.039  -3.241  -1.623  0.00  0.00    +0.028 A 
ATOM     14  C   UNL     1       0.029  -2.186  -0.712  0.00  0.00    +0.066 A 
ATOM     15  N   UNL     1       0.035  -2.119   0.657  0.00  0.00    -0.277 N 
ATOM     16  H   UNL     1       0.048  -2.881   1.257  0.00  0.00    +0.189 HD
ATOM     17  N   UNL     1       0.023  -0.777   1.050  0.00  0.00    -0.178 NA
ENDBRANCH   1  11
BRANCH   6  18
ATOM     18  C   UNL     1       1.929  -2.976  -5.173  0.00  0.00    +0.038 A 
ATOM     19  C   UNL     1       2.459  -4.119  -5.713  0.00  0.00    +0.017 A 
ATOM     20  C   UNL     1       3.388  -4.826  -4.983  0.00  0.00    +0.008 A 
ATOM     21  C   UNL     1       3.750  -4.372  -3.755  0.00  0.00    +0.046 A 
ATOM     22  S   UNL     1       2.765  -2.891  -3.598  0.00  0.00    -0.095 S 
ENDBRANCH   6  18
BRANCH   3  23
ATOM     23  O   UNL     1      -1.792   0.498  -7.428  0.00  0.00    -0.492 OA
BRANCH  23  24
ATOM     24  C   UNL     1      -1.698   0.656  -8.845  0.00  0.00    +0.213 C 
BRANCH  24  25
ATOM     25  C   UNL     1      -2.773   1.635  -9.322  0.00  0.00    -0.033 C 
BRANCH  25  26
ATOM     26  N   UNL     1      -2.505   2.967  -8.764  0.00  0.00    +0.382 N 
ATOM     27  H   UNL     1      -3.214   3.612  -9.079  0.00  0.00    -0.089 HD
ATOM     28  H   UNL     1      -2.518   2.918  -7.756  0.00  0.00    -0.089 HD
ATOM     29  H   UNL     1      -1.599   3.285  -9.073  0.00  0.00    -0.089 HD
ENDBRANCH  25  26
BRANCH  25  30
ATOM     30  C   UNL     1      -2.753   1.709 -10.850  0.00  0.00    +0.022 C 
BRANCH  30  31
ATOM     31  C   UNL     1      -3.890   2.576 -11.326  0.00  0.00    -0.049 A 
ATOM     32  C   UNL     1      -5.123   2.013 -11.595  0.00  0.00    +0.003 A 
ATOM     33  C   UNL     1      -6.166   2.809 -12.031  0.00  0.00    +0.000 A 
ATOM     34  C   UNL     1      -5.975   4.168 -12.198  0.00  0.00    +0.000 A 
ATOM     35  C   UNL     1      -4.742   4.731 -11.929  0.00  0.00    +0.000 A 
ATOM     36  C   UNL     1      -3.700   3.936 -11.488  0.00  0.00    +0.003 A 
ENDBRANCH  30  31
ENDBRANCH  25  30
ENDBRANCH  24  25
ENDBRANCH  23  24
ENDBRANCH   3  23
TORSDOF 8
