REMARK  Name = CHEMBL377687
REMARK  8 active torsions:
REMARK  status: ('A' for Active; 'I' for Inactive)
REMARK    1  A    between atoms: C_7  and  C_11
REMARK    2  A    between atoms: C_11  and  C_12
REMARK    3  A    between atoms: C_12  and  C_14
REMARK    4  A    between atoms: C_12  and  N_33
REMARK    5  A    between atoms: C_14  and  O_15
REMARK    6  A    between atoms: O_15  and  C_16
REMARK    7  A    between atoms: C_18  and  C_22
REMARK    8  A    between atoms: N_33  and  C_34
REMARK                            x       y       z     vdW  Elec       q    Type
REMARK                         _______ _______ _______ _____ _____    ______ ____
ROOT
ATOM      1  C   UNL     1       0.236  -3.589  -1.455  0.00  0.00    +0.112 C 
ENDROOT
BRANCH   1   2
ATOM      2  N   UNL     1      -0.550  -2.472  -1.985  0.00  0.00    -0.337 N 
ATOM      3  H   UNL     1      -1.518  -2.494  -1.936  0.00  0.00    +0.146 HD
BRANCH   2   4
ATOM      4  C   UNL     1       0.097  -1.373  -2.562  0.00  0.00    +0.028 A 
ATOM      5  C   UNL     1       1.485  -1.343  -2.638  0.00  0.00    +0.025 A 
ATOM      6  C   UNL     1       2.136  -0.264  -3.206  0.00  0.00    +0.026 A 
ATOM      7  C   UNL     1       1.409   0.807  -3.709  0.00  0.00    +0.045 A 
ATOM      8  C   UNL     1       0.008   0.778  -3.632  0.00  0.00    +0.050 A 
ATOM      9  C   UNL     1      -0.645  -0.315  -3.063  0.00  0.00    +0.036 A 
ATOM     10  C   UNL     1      -0.473   2.034  -4.237  0.00  0.00    +0.249 C 
ATOM     11  O   UNL     1      -1.623   2.399  -4.368  0.00  0.00    -0.282 OA
ATOM     12  C   UNL     1       0.770   2.761  -4.655  0.00  0.00    +0.289 C 
ATOM     13  O   UNL     1       0.819   3.845  -5.197  0.00  0.00    -0.266 OA
ATOM     14  N   UNL     1       1.821   1.993  -4.319  0.00  0.00    -0.278 N 
ATOM     15  H   UNL     1       2.747   2.233  -4.479  0.00  0.00    +0.155 HD
ENDBRANCH   2   4
ENDBRANCH   1   2
BRANCH   1  16
ATOM     16  C   UNL     1       0.666  -3.275  -0.021  0.00  0.00    +0.062 C 
BRANCH  16  23
ATOM     17  C   UNL     1      -0.017   1.362   0.009  0.00  0.00    +0.001 A 
ATOM     18  C   UNL     1       1.170   2.083   0.002  0.00  0.00    +0.002 A 
ATOM     19  C   UNL     1       2.386   1.436  -0.013  0.00  0.00    +0.026 A 
ATOM     20  C   UNL     1       2.428   0.046  -0.021  0.00  0.00    +0.047 A 
ATOM     21  C   UNL     1       1.223  -0.681  -0.013  0.00  0.00    +0.003 A 
ATOM     22  C   UNL     1       0.002  -0.004   0.002  0.00  0.00    +0.010 A 
ATOM     23  C   UNL     1       1.604  -2.095  -0.025  0.00  0.00    -0.021 A 
ATOM     24  C   UNL     1       2.945  -2.141  -0.038  0.00  0.00    +0.087 A 
ATOM     25  N   UNL     1       3.455  -0.871  -0.036  0.00  0.00    -0.360 N 
ATOM     26  H   UNL     1       4.399  -0.650  -0.044  0.00  0.00    +0.165 HD
ENDBRANCH  16  23
ENDBRANCH   1  16
BRANCH   1  27
ATOM     27  C   UNL     1      -0.614  -4.861  -1.466  0.00  0.00    +0.251 C 
BRANCH  27  28
ATOM     28  O   UNL     1      -1.711  -4.708  -0.563  0.00  0.00    -0.489 OA
BRANCH  28  29
ATOM     29  C   UNL     1      -2.570  -5.756  -0.452  0.00  0.00    +0.139 A 
ATOM     30  C   UNL     1      -3.664  -5.682   0.401  0.00  0.00    +0.057 A 
ATOM     31  C   UNL     1      -4.518  -6.784   0.479  0.00  0.00    +0.004 A 
ATOM     32  C   UNL     1      -4.241  -7.908  -0.296  0.00  0.00    +0.119 A 
ATOM     33  N   UNL     1      -3.192  -7.936  -1.092  0.00  0.00    -0.259 NA
ATOM     34  C   UNL     1      -2.368  -6.911  -1.195  0.00  0.00    +0.156 A 
BRANCH  31  35
ATOM     35  C   UNL     1      -5.700  -6.758   1.375  0.00  0.00    -0.016 A 
ATOM     36  C   UNL     1      -5.972  -5.626   2.144  0.00  0.00    +0.010 A 
ATOM     37  C   UNL     1      -7.069  -5.592   2.980  0.00  0.00    +0.024 A 
ATOM     38  C   UNL     1      -7.920  -6.687   3.067  0.00  0.00    +0.045 A 
ATOM     39  C   UNL     1      -7.650  -7.829   2.294  0.00  0.00    +0.049 A 
ATOM     40  C   UNL     1      -6.545  -7.862   1.446  0.00  0.00    +0.022 A 
ATOM     41  C   UNL     1      -8.712  -8.806   2.599  0.00  0.00    +0.249 C 
ATOM     42  O   UNL     1      -8.846  -9.921   2.141  0.00  0.00    -0.282 OA
ATOM     43  C   UNL     1      -9.591  -8.116   3.600  0.00  0.00    +0.289 C 
ATOM     44  O   UNL     1     -10.588  -8.575   4.116  0.00  0.00    -0.266 OA
ATOM     45  N   UNL     1      -9.071  -6.896   3.823  0.00  0.00    -0.278 N 
ATOM     46  H   UNL     1      -9.450  -6.244   4.432  0.00  0.00    +0.155 HD
ENDBRANCH  31  35
ENDBRANCH  28  29
ENDBRANCH  27  28
ENDBRANCH   1  27
TORSDOF 8
