REMARK  Name = CHEMBL205410
REMARK  9 active torsions:
REMARK  status: ('A' for Active; 'I' for Inactive)
REMARK    1  A    between atoms: C_3  and  C_9
REMARK    2  A    between atoms: C_5  and  C_7
REMARK    3  A    between atoms: C_9  and  C_10
REMARK    4  A    between atoms: C_10  and  C_12
REMARK    5  A    between atoms: C_10  and  N_28
REMARK    6  A    between atoms: C_12  and  O_13
REMARK    7  A    between atoms: O_13  and  C_14
REMARK    8  A    between atoms: C_16  and  C_20
REMARK    9  A    between atoms: C_21  and  C_22
REMARK                            x       y       z     vdW  Elec       q    Type
REMARK                         _______ _______ _______ _____ _____    ______ ____
ROOT
ATOM      1  C   UNL     1       5.489   3.147   1.408  0.00  0.00    +0.213 C 
ENDROOT
BRANCH   1   2
ATOM      2  C   UNL     1       4.121   2.462   1.417  0.00  0.00    -0.033 C 
BRANCH   2   3
ATOM      3  N   UNL     1       3.143   3.329   2.088  0.00  0.00    +0.382 N 
ATOM      4  H   UNL     1       3.077   4.206   1.594  0.00  0.00    -0.089 HD
ATOM      5  H   UNL     1       2.241   2.877   2.093  0.00  0.00    -0.089 HD
ATOM      6  H   UNL     1       3.440   3.499   3.037  0.00  0.00    -0.089 HD
ENDBRANCH   2   3
BRANCH   2   7
ATOM      7  C   UNL     1       3.671   2.204  -0.023  0.00  0.00    +0.022 C 
BRANCH   7  10
ATOM      8  C   UNL     1      -0.017   1.375   0.010  0.00  0.00    +0.002 A 
ATOM      9  C   UNL     1       1.170   2.086   0.002  0.00  0.00    +0.003 A 
ATOM     10  C   UNL     1       2.383   1.421  -0.013  0.00  0.00    -0.048 A 
ATOM     11  C   UNL     1       2.416   0.041  -0.021  0.00  0.00    +0.022 A 
ATOM     12  C   UNL     1       1.223  -0.682  -0.013  0.00  0.00    +0.052 A 
ATOM     13  C   UNL     1       0.002  -0.004   0.002  0.00  0.00    +0.019 A 
BRANCH  12  14
ATOM     14  C   UNL     1       1.250  -2.114  -0.022  0.00  0.00    +0.099 C 
ATOM     15  N   UNL     1       1.271  -3.250  -0.029  0.00  0.00    -0.191 NA
ENDBRANCH  12  14
ENDBRANCH   7  10
ENDBRANCH   2   7
ENDBRANCH   1   2
BRANCH   1  16
ATOM     16  O   UNL     1       5.962   3.282   2.750  0.00  0.00    -0.492 OA
BRANCH  16  17
ATOM     17  C   UNL     1       7.173   3.875   2.920  0.00  0.00    +0.139 A 
ATOM     18  C   UNL     1       7.703   4.038   4.193  0.00  0.00    +0.056 A 
ATOM     19  C   UNL     1       8.954   4.655   4.316  0.00  0.00    -0.003 A 
ATOM     20  C   UNL     1       9.614   5.079   3.159  0.00  0.00    +0.118 A 
ATOM     21  N   UNL     1       9.071   4.904   1.973  0.00  0.00    -0.259 NA
ATOM     22  C   UNL     1       7.898   4.321   1.822  0.00  0.00    +0.156 A 
BRANCH  19  23
ATOM     23  C   UNL     1       9.564   4.854   5.643  0.00  0.00    +0.010 C 
ATOM     24  C   UNL     1      10.764   5.447   5.747  0.00  0.00    +0.008 C 
BRANCH  24  25
ATOM     25  C   UNL     1      11.374   5.646   7.074  0.00  0.00    -0.022 A 
ATOM     26  C   UNL     1      10.721   5.219   8.239  0.00  0.00    +0.027 A 
ATOM     27  C   UNL     1      11.329   5.426   9.459  0.00  0.00    +0.111 A 
ATOM     28  N   UNL     1      12.507   6.016   9.539  0.00  0.00    -0.263 NA
ATOM     29  C   UNL     1      13.156   6.434   8.468  0.00  0.00    +0.111 A 
ATOM     30  C   UNL     1      12.626   6.263   7.207  0.00  0.00    +0.027 A 
ENDBRANCH  24  25
ENDBRANCH  19  23
ENDBRANCH  16  17
ENDBRANCH   1  16
TORSDOF 9
