REMARK  Name = CHEMBL536485
REMARK  9 active torsions:
REMARK  status: ('A' for Active; 'I' for Inactive)
REMARK    1  A    between atoms: C_1  and  C_2
REMARK    2  A    between atoms: C_2  and  C_45
REMARK    3  A    between atoms: C_7  and  C_8
REMARK    4  A    between atoms: C_12  and  C_15
REMARK    5  A    between atoms: C_15  and  C_17
REMARK    6  A    between atoms: C_20  and  C_23
REMARK    7  A    between atoms: N_25  and  C_26
REMARK    8  A    between atoms: C_33  and  N_35
REMARK    9  A    between atoms: C_36  and  C_38
REMARK                            x       y       z     vdW  Elec       q    Type
REMARK                         _______ _______ _______ _____ _____    ______ ____
ROOT
ATOM      1  C   UNL     1       5.423   3.622   2.165  0.00  0.00    +0.023 A 
ATOM      2  C   UNL     1       6.421   2.877   1.533  0.00  0.00    +0.012 A 
ATOM      3  C   UNL     1       7.697   3.387   1.425  0.00  0.00    +0.014 A 
ATOM      4  C   UNL     1       7.991   4.648   1.947  0.00  0.00    +0.037 A 
ATOM      5  C   UNL     1       6.994   5.392   2.579  0.00  0.00    +0.014 A 
ATOM      6  C   UNL     1       5.717   4.885   2.682  0.00  0.00    +0.012 A 
ENDROOT
BRANCH   4   7
ATOM      7  C   UNL     1       9.362   5.195   1.831  0.00  0.00    +0.244 C 
ATOM      8  O   UNL     1      10.230   4.547   1.281  0.00  0.00    -0.270 OA
ATOM      9  N   UNL     1       9.646   6.412   2.335  0.00  0.00    -0.307 N 
ATOM     10  H   UNL     1       8.953   6.929   2.774  0.00  0.00    +0.149 HD
BRANCH   9  11
ATOM     11  C   UNL     1      11.002   6.954   2.220  0.00  0.00    +0.092 C 
ATOM     12  C   UNL     1      11.867   6.410   3.385  0.00  0.00    +0.022 C 
ATOM     13  C   UNL     1      13.319   6.636   3.058  0.00  0.00    -0.017 C 
ATOM     14  C   UNL     1      13.868   7.973   3.587  0.00  0.00    -0.082 C 
ATOM     15  N   UNL     1      12.944   9.110   3.390  0.00  0.00    +0.380 N 
ATOM     16  C   UNL     1      12.317   9.076   2.092  0.00  0.00    -0.058 C 
ATOM     17  C   UNL     1      10.941   8.410   2.251  0.00  0.00    +0.076 C 
ATOM     18  H   UNL     1      12.229   9.079   4.101  0.00  0.00    -0.086 HD
ATOM     19  H   UNL     1      13.460   9.972   3.483  0.00  0.00    -0.086 HD
BRANCH  17  20
ATOM     20  N   UNL     1      10.069   8.867   1.166  0.00  0.00    -0.309 N 
ATOM     21  C   UNL     1       9.445  10.058   1.259  0.00  0.00    +0.244 C 
ATOM     22  O   UNL     1       9.606  10.753   2.243  0.00  0.00    -0.270 OA
ATOM     23  H   UNL     1       9.940   8.312   0.381  0.00  0.00    +0.149 HD
BRANCH  21  24
ATOM     24  C   UNL     1       8.563  10.521   0.162  0.00  0.00    +0.040 A 
ATOM     25  C   UNL     1       8.360   9.734  -0.976  0.00  0.00    +0.033 A 
ATOM     26  C   UNL     1       7.529  10.204  -1.974  0.00  0.00    +0.111 A 
ATOM     27  N   UNL     1       6.934  11.375  -1.865  0.00  0.00    -0.263 NA
ATOM     28  C   UNL     1       7.098  12.147  -0.809  0.00  0.00    +0.111 A 
ATOM     29  C   UNL     1       7.907  11.753   0.239  0.00  0.00    +0.033 A 
ENDBRANCH  21  24
ENDBRANCH  17  20
ENDBRANCH   9  11
ENDBRANCH   4   7
BRANCH   1  30
ATOM     30  C   UNL     1       4.053   3.075   2.280  0.00  0.00    +0.200 C 
ATOM     31  O   UNL     1       3.819   1.938   1.918  0.00  0.00    -0.286 OA
BRANCH  30  36
ATOM     32  C   UNL     1       1.253   5.565   2.533  0.00  0.00    -0.025 A 
ATOM     33  C   UNL     1       0.934   5.478   3.877  0.00  0.00    +0.008 A 
ATOM     34  C   UNL     1       1.624   4.614   4.706  0.00  0.00    +0.052 A 
ATOM     35  C   UNL     1       2.644   3.825   4.196  0.00  0.00    +0.193 A 
ATOM     36  C   UNL     1       2.972   3.908   2.834  0.00  0.00    +0.104 A 
ATOM     37  C   UNL     1       2.261   4.784   2.004  0.00  0.00    +0.139 A 
ATOM     38  F   UNL     1       2.564   4.869   0.690  0.00  0.00    -0.204 F 
ATOM     39  O   UNL     1       3.321   2.978   5.010  0.00  0.00    -0.287 OA
BRANCH  32  46
ATOM     40  C   UNL     1      -0.076   4.619   0.112  0.00  0.00    +0.009 C 
ATOM     41  C   UNL     1      -0.650   5.760   0.955  0.00  0.00    -0.043 C 
ATOM     42  C   UNL     1      -1.420   6.726   0.051  0.00  0.00    +0.003 C 
ATOM     43  C   UNL     1      -1.924   7.904   0.890  0.00  0.00    -0.019 C 
ATOM     44  C   UNL     1      -0.735   8.577   1.579  0.00  0.00    -0.082 C 
ATOM     45  N   UNL     1      -0.057   7.609   2.449  0.00  0.00    +0.384 N 
ATOM     46  C   UNL     1       0.491   6.513   1.642  0.00  0.00    -0.032 C 
ATOM     47  C   UNL     1      -1.594   5.187   2.014  0.00  0.00    +0.009 C 
ATOM     48  H   UNL     1       0.693   8.070   2.942  0.00  0.00    -0.085 HD
ATOM     49  H   UNL     1      -0.716   7.237   3.116  0.00  0.00    -0.085 HD
ENDBRANCH  32  46
ENDBRANCH  30  36
ENDBRANCH   1  30
TORSDOF 7
