REMARK  Name = CHEMBL494882
REMARK  10 active torsions:
REMARK  status: ('A' for Active; 'I' for Inactive)
REMARK    1  A    between atoms: C_1  and  C_2
REMARK    2  A    between atoms: C_2  and  N_3
REMARK    3  A    between atoms: C_5  and  O_23
REMARK    4  A    between atoms: C_8  and  C_18
REMARK    5  A    between atoms: C_11  and  C_12
REMARK    6  A    between atoms: C_19  and  C_20
REMARK    7  A    between atoms: O_23  and  C_24
REMARK    8  A    between atoms: C_24  and  C_25
REMARK    9  A    between atoms: C_25  and  C_26
REMARK   10  A    between atoms: C_26  and  N_27
REMARK                            x       y       z     vdW  Elec       q    Type
REMARK                         _______ _______ _______ _____ _____    ______ ____
ROOT
ATOM      1  N   UNL     1      -1.372  -0.511   0.012  0.00  0.00    -0.319 N 
ATOM      2  C   UNL     1      -2.131  -0.795   1.125  0.00  0.00    +0.116 A 
ATOM      3  C   UNL     1      -1.927  -0.725   2.503  0.00  0.00    +0.164 A 
ATOM      4  C   UNL     1      -2.952  -1.105   3.353  0.00  0.00    +0.160 A 
ATOM      5  N   UNL     1      -4.111  -1.531   2.885  0.00  0.00    -0.241 NA
ATOM      6  C   UNL     1      -4.362  -1.619   1.586  0.00  0.00    +0.141 A 
ATOM      7  C   UNL     1      -3.374  -1.251   0.648  0.00  0.00    +0.127 A 
ATOM      8  N   UNL     1      -3.320  -1.226  -0.695  0.00  0.00    -0.223 NA
ATOM      9  C   UNL     1      -2.147  -0.787  -1.083  0.00  0.00    +0.167 A 
ENDROOT
BRANCH   9  10
ATOM     10  C   UNL     1      -1.724  -0.618  -2.490  0.00  0.00    +0.190 A 
ATOM     11  C   UNL     1      -2.542  -0.902  -3.675  0.00  0.00    +0.191 A 
ATOM     12  N   UNL     1      -1.833  -0.633  -4.737  0.00  0.00    -0.033 NA
ATOM     13  O   UNL     1      -0.563  -0.176  -4.310  0.00  0.00    -0.240 OA
ATOM     14  N   UNL     1      -0.557  -0.184  -2.893  0.00  0.00    -0.044 NA
ATOM     15  N   UNL     1      -3.847  -1.377  -3.668  0.00  0.00    -0.339 N 
ATOM     16  H   UNL     1      -4.295  -1.549  -2.825  0.00  0.00    +0.144 HD
ATOM     17  H   UNL     1      -4.310  -1.536  -4.505  0.00  0.00    +0.144 HD
ENDBRANCH   9  10
BRANCH   1  19
ATOM     18  C   UNL     1      -0.019   1.526   0.010  0.00  0.00    +0.027 C 
ATOM     19  C   UNL     1       0.002  -0.004   0.002  0.00  0.00    +0.120 C 
ENDBRANCH   1  19
BRANCH   6  20
ATOM     20  C   UNL     1      -5.637  -2.088   1.134  0.00  0.00    -0.044 C 
ATOM     21  C   UNL     1      -6.682  -2.473   0.764  0.00  0.00    -0.092 C 
BRANCH  21  22
ATOM     22  C   UNL     1      -7.993  -2.955   0.300  0.00  0.00    +0.064 C 
ATOM     23  C   UNL     1      -8.039  -4.317  -0.397  0.00  0.00    +0.017 C 
ATOM     24  C   UNL     1      -8.222  -3.035  -1.211  0.00  0.00    +0.017 C 
ENDBRANCH  21  22
ENDBRANCH   6  20
BRANCH   3  25
ATOM     25  O   UNL     1      -0.741  -0.290   3.004  0.00  0.00    -0.488 OA
BRANCH  25  26
ATOM     26  C   UNL     1      -0.613  -0.248   4.426  0.00  0.00    +0.227 C 
BRANCH  26  27
ATOM     27  C   UNL     1       0.780   0.264   4.799  0.00  0.00    +0.021 C 
BRANCH  27  28
ATOM     28  C   UNL     1       0.916   0.309   6.322  0.00  0.00    -0.083 C 
BRANCH  28  29
ATOM     29  N   UNL     1       2.253   0.800   6.680  0.00  0.00    +0.378 N 
ATOM     30  H   UNL     1       2.953   0.181   6.298  0.00  0.00    -0.090 HD
ATOM     31  H   UNL     1       2.383   1.727   6.303  0.00  0.00    -0.090 HD
ATOM     32  H   UNL     1       2.344   0.830   7.684  0.00  0.00    -0.090 HD
ENDBRANCH  28  29
ENDBRANCH  27  28
ENDBRANCH  26  27
ENDBRANCH  25  26
ENDBRANCH   3  25
TORSDOF 9
