REMARK  Name = CHEMBL575824
REMARK  7 active torsions:
REMARK  status: ('A' for Active; 'I' for Inactive)
REMARK    1  A    between atoms: C_7  and  C_11
REMARK    2  A    between atoms: C_11  and  C_12
REMARK    3  A    between atoms: C_12  and  C_14
REMARK    4  A    between atoms: C_12  and  N_33
REMARK    5  A    between atoms: C_14  and  O_15
REMARK    6  A    between atoms: O_15  and  C_16
REMARK    7  A    between atoms: C_18  and  C_22
REMARK                            x       y       z     vdW  Elec       q    Type
REMARK                         _______ _______ _______ _____ _____    ______ ____
ROOT
ATOM      1  O   UNL     1      -0.919  -5.219  -2.816  0.00  0.00    -0.492 OA
ENDROOT
BRANCH   1   2
ATOM      2  C   UNL     1      -1.673  -6.334  -3.003  0.00  0.00    +0.139 A 
ATOM      3  C   UNL     1      -2.006  -6.750  -4.286  0.00  0.00    +0.057 A 
ATOM      4  C   UNL     1      -2.783  -7.902  -4.426  0.00  0.00    +0.004 A 
ATOM      5  C   UNL     1      -3.191  -8.586  -3.282  0.00  0.00    +0.119 A 
ATOM      6  N   UNL     1      -2.852  -8.155  -2.085  0.00  0.00    -0.259 NA
ATOM      7  C   UNL     1      -2.115  -7.074  -1.915  0.00  0.00    +0.156 A 
BRANCH   4   8
ATOM      8  C   UNL     1      -3.168  -8.392  -5.773  0.00  0.00    -0.013 A 
ATOM      9  C   UNL     1      -2.749  -7.702  -6.911  0.00  0.00    +0.011 A 
ATOM     10  C   UNL     1      -3.106  -8.154  -8.164  0.00  0.00    +0.030 A 
ATOM     11  C   UNL     1      -3.883  -9.297  -8.293  0.00  0.00    +0.087 A 
ATOM     12  C   UNL     1      -4.305  -9.992  -7.158  0.00  0.00    +0.157 A 
ATOM     13  C   UNL     1      -3.942  -9.542  -5.901  0.00  0.00    +0.057 A 
ATOM     14  O   UNL     1      -5.037 -11.050  -7.584  0.00  0.00    -0.408 OA
ATOM     15  C   UNL     1      -5.087 -11.041  -8.925  0.00  0.00    +0.419 A 
ATOM     16  O   UNL     1      -5.669 -11.858  -9.612  0.00  0.00    -0.223 OA
ATOM     17  N   UNL     1      -4.393  -9.985  -9.393  0.00  0.00    -0.288 N 
ATOM     18  H   UNL     1      -4.271  -9.746 -10.325  0.00  0.00    +0.172 HD
ENDBRANCH   4   8
ENDBRANCH   1   2
BRANCH   1  19
ATOM     19  C   UNL     1      -0.614  -4.861  -1.466  0.00  0.00    +0.213 C 
BRANCH  19  20
ATOM     20  C   UNL     1       0.236  -3.589  -1.455  0.00  0.00    -0.033 C 
BRANCH  20  21
ATOM     21  N   UNL     1      -0.552  -2.469  -1.986  0.00  0.00    +0.382 N 
ATOM     22  H   UNL     1      -0.836  -2.676  -2.932  0.00  0.00    -0.089 HD
ATOM     23  H   UNL     1      -1.370  -2.331  -1.412  0.00  0.00    -0.089 HD
ATOM     24  H   UNL     1       0.009  -1.630  -1.979  0.00  0.00    -0.089 HD
ENDBRANCH  20  21
BRANCH  20  25
ATOM     25  C   UNL     1       0.666  -3.275  -0.021  0.00  0.00    +0.024 C 
BRANCH  25  32
ATOM     26  C   UNL     1      -0.017   1.362   0.009  0.00  0.00    +0.001 A 
ATOM     27  C   UNL     1       1.170   2.083   0.002  0.00  0.00    +0.002 A 
ATOM     28  C   UNL     1       2.386   1.436  -0.013  0.00  0.00    +0.026 A 
ATOM     29  C   UNL     1       2.428   0.046  -0.021  0.00  0.00    +0.047 A 
ATOM     30  C   UNL     1       1.223  -0.681  -0.013  0.00  0.00    +0.003 A 
ATOM     31  C   UNL     1       0.002  -0.004   0.002  0.00  0.00    +0.010 A 
ATOM     32  C   UNL     1       1.604  -2.095  -0.025  0.00  0.00    -0.024 A 
ATOM     33  C   UNL     1       2.945  -2.141  -0.038  0.00  0.00    +0.087 A 
ATOM     34  N   UNL     1       3.455  -0.871  -0.036  0.00  0.00    -0.360 N 
ATOM     35  H   UNL     1       4.399  -0.650  -0.044  0.00  0.00    +0.165 HD
ENDBRANCH  25  32
ENDBRANCH  20  25
ENDBRANCH  19  20
ENDBRANCH   1  19
TORSDOF 7
