REMARK  Name = CHEMBL1099290
REMARK  12 active torsions:
REMARK  status: ('A' for Active; 'I' for Inactive)
REMARK    1  A    between atoms: C_1  and  C_2
REMARK    2  A    between atoms: C_2  and  N_3
REMARK    3  A    between atoms: C_6  and  C_24
REMARK    4  A    between atoms: C_8  and  C_18
REMARK    5  A    between atoms: C_11  and  C_12
REMARK    6  A    between atoms: C_19  and  C_20
REMARK    7  A    between atoms: C_20  and  C_21
REMARK    8  A    between atoms: C_20  and  C_22
REMARK    9  A    between atoms: C_20  and  O_23
REMARK   10  A    between atoms: C_24  and  N_25
REMARK   11  A    between atoms: N_25  and  C_26
REMARK   12  A    between atoms: N_25  and  C_27
REMARK                            x       y       z     vdW  Elec       q    Type
REMARK                         _______ _______ _______ _____ _____    ______ ____
ROOT
ATOM      1  N   UNL     1       0.688  -0.476  -1.203  0.00  0.00    -0.322 N 
ATOM      2  C   UNL     1       0.109  -0.745  -2.421  0.00  0.00    +0.073 A 
ATOM      3  C   UNL     1      -1.185  -0.685  -2.930  0.00  0.00    +0.049 A 
ATOM      4  C   UNL     1      -1.404  -1.041  -4.245  0.00  0.00    +0.028 A 
ATOM      5  N   UNL     1      -0.416  -1.436  -5.027  0.00  0.00    -0.243 NA
ATOM      6  C   UNL     1       0.837  -1.514  -4.599  0.00  0.00    +0.141 A 
ATOM      7  C   UNL     1       1.151  -1.168  -3.269  0.00  0.00    +0.123 A 
ATOM      8  N   UNL     1       2.286  -1.140  -2.550  0.00  0.00    -0.223 NA
ATOM      9  C   UNL     1       2.029  -0.729  -1.332  0.00  0.00    +0.167 A 
ENDROOT
BRANCH   9  10
ATOM     10  C   UNL     1       3.033  -0.565  -0.258  0.00  0.00    +0.190 A 
ATOM     11  C   UNL     1       4.473  -0.825  -0.379  0.00  0.00    +0.191 A 
ATOM     12  N   UNL     1       5.034  -0.570   0.771  0.00  0.00    -0.033 NA
ATOM     13  O   UNL     1       4.021  -0.146   1.666  0.00  0.00    -0.240 OA
ATOM     14  N   UNL     1       2.792  -0.159   0.962  0.00  0.00    -0.044 NA
ATOM     15  N   UNL     1       5.126  -1.266  -1.522  0.00  0.00    -0.339 N 
ATOM     16  H   UNL     1       4.623  -1.430  -2.335  0.00  0.00    +0.144 HD
ATOM     17  H   UNL     1       6.085  -1.411  -1.508  0.00  0.00    +0.144 HD
ENDBRANCH   9  10
BRANCH   1  19
ATOM     18  C   UNL     1      -0.019   1.526   0.010  0.00  0.00    +0.027 C 
ATOM     19  C   UNL     1       0.002  -0.004   0.002  0.00  0.00    +0.120 C 
ENDBRANCH   1  19
BRANCH   6  20
ATOM     20  C   UNL     1       1.872  -1.949  -5.488  0.00  0.00    -0.041 C 
ATOM     21  C   UNL     1       2.720  -2.305  -6.218  0.00  0.00    -0.061 C 
BRANCH  21  22
ATOM     22  C   UNL     1       3.783  -2.753  -7.132  0.00  0.00    +0.121 C 
ATOM     23  C   UNL     1       5.123  -2.752  -6.395  0.00  0.00    +0.055 C 
ATOM     24  C   UNL     1       3.472  -4.168  -7.623  0.00  0.00    +0.055 C 
BRANCH  22  25
ATOM     25  O   UNL     1       3.854  -1.866  -8.250  0.00  0.00    -0.377 OA
ATOM     26  H   UNL     1       4.049  -0.949  -8.013  0.00  0.00    +0.211 HD
ENDBRANCH  22  25
ENDBRANCH  21  22
ENDBRANCH   6  20
BRANCH   4  27
ATOM     27  C   UNL     1      -2.804  -0.979  -4.801  0.00  0.00    -0.023 C 
BRANCH  27  28
ATOM     28  N   UNL     1      -3.004   0.309  -5.478  0.00  0.00    +0.380 N 
ATOM     29  C   UNL     1      -2.118   0.392  -6.646  0.00  0.00    -0.096 C 
ATOM     30  C   UNL     1      -4.402   0.420  -5.916  0.00  0.00    -0.096 C 
ATOM     31  H   UNL     1      -2.791   1.062  -4.840  0.00  0.00    -0.082 HD
ENDBRANCH  27  28
ENDBRANCH   4  27
TORSDOF 7
