REMARK  Name = CHEMBL207338
REMARK  8 active torsions:
REMARK  status: ('A' for Active; 'I' for Inactive)
REMARK    1  A    between atoms: C_1  and  C_2
REMARK    2  A    between atoms: C_5  and  C_12
REMARK    3  A    between atoms: C_14  and  N_18
REMARK    4  A    between atoms: N_18  and  C_19
REMARK    5  A    between atoms: C_19  and  C_20
REMARK    6  A    between atoms: C_20  and  C_22
REMARK    7  A    between atoms: C_20  and  N_29
REMARK    8  A    between atoms: C_22  and  C_23
REMARK                            x       y       z     vdW  Elec       q    Type
REMARK                         _______ _______ _______ _____ _____    ______ ____
ROOT
ATOM      1  C   UNL     1      -0.003  -1.420  -4.905  0.00  0.00    +0.002 A 
ATOM      2  C   UNL     1       0.001  -2.485  -5.809  0.00  0.00    +0.034 A 
ATOM      3  C   UNL     1      -0.010  -2.193  -7.169  0.00  0.00    +0.046 A 
ATOM      4  C   UNL     1      -0.025  -0.864  -7.576  0.00  0.00    +0.133 A 
ATOM      5  N   UNL     1      -0.028   0.115  -6.694  0.00  0.00    -0.261 NA
ATOM      6  C   UNL     1      -0.024  -0.117  -5.397  0.00  0.00    +0.119 A 
ENDROOT
BRANCH   1  11
ATOM      7  C   UNL     1      -0.018   1.503   0.010  0.00  0.00    +0.068 C 
ATOM      8  C   UNL     1       0.002  -0.004   0.002  0.00  0.00    +0.067 A 
ATOM      9  C   UNL     1       0.008  -0.858  -1.182  0.00  0.00    +0.023 A 
ATOM     10  C   UNL     1      -0.002  -0.608  -2.557  0.00  0.00    +0.020 A 
ATOM     11  C   UNL     1       0.008  -1.674  -3.443  0.00  0.00    -0.016 A 
ATOM     12  C   UNL     1       0.029  -2.989  -2.963  0.00  0.00    +0.010 A 
ATOM     13  C   UNL     1       0.038  -3.241  -1.623  0.00  0.00    +0.028 A 
ATOM     14  C   UNL     1       0.029  -2.186  -0.712  0.00  0.00    +0.066 A 
ATOM     15  N   UNL     1       0.035  -2.119   0.657  0.00  0.00    -0.277 N 
ATOM     16  H   UNL     1       0.049  -2.881   1.257  0.00  0.00    +0.189 HD
ATOM     17  N   UNL     1       0.023  -0.777   1.050  0.00  0.00    -0.178 NA
ENDBRANCH   1  11
BRANCH   3  18
ATOM     18  N   UNL     1      -0.006  -3.223  -8.113  0.00  0.00    -0.344 N 
ATOM     19  H   UNL     1       0.005  -4.148  -7.822  0.00  0.00    +0.146 HD
BRANCH  18  20
ATOM     20  C   UNL     1      -0.018  -2.905  -9.543  0.00  0.00    +0.086 C 
BRANCH  20  21
ATOM     21  C   UNL     1      -0.010  -4.203 -10.354  0.00  0.00    -0.053 C 
BRANCH  21  22
ATOM     22  N   UNL     1      -1.134  -5.050  -9.933  0.00  0.00    +0.381 N 
ATOM     23  H   UNL     1      -2.002  -4.561 -10.090  0.00  0.00    -0.090 HD
ATOM     24  H   UNL     1      -1.129  -5.906 -10.467  0.00  0.00    -0.090 HD
ATOM     25  H   UNL     1      -1.043  -5.266  -8.951  0.00  0.00    -0.090 HD
ENDBRANCH  21  22
BRANCH  21  26
ATOM     26  C   UNL     1      -0.148  -3.876 -11.842  0.00  0.00    +0.020 C 
BRANCH  26  27
ATOM     27  C   UNL     1      -0.018  -5.141 -12.649  0.00  0.00    -0.049 A 
ATOM     28  C   UNL     1       1.226  -5.556 -13.088  0.00  0.00    +0.003 A 
ATOM     29  C   UNL     1       1.346  -6.718 -13.828  0.00  0.00    +0.000 A 
ATOM     30  C   UNL     1       0.222  -7.464 -14.130  0.00  0.00    +0.000 A 
ATOM     31  C   UNL     1      -1.022  -7.049 -13.691  0.00  0.00    +0.000 A 
ATOM     32  C   UNL     1      -1.141  -5.891 -12.947  0.00  0.00    +0.003 A 
ENDBRANCH  26  27
ENDBRANCH  21  26
ENDBRANCH  20  21
ENDBRANCH  18  20
ENDBRANCH   3  18
TORSDOF 7
