REMARK  Name = CHEMBL258837
REMARK  1 active torsions:
REMARK  status: ('A' for Active; 'I' for Inactive)
REMARK    1  A    between atoms: C_17  and  C_25
REMARK                            x       y       z     vdW  Elec       q    Type
REMARK                         _______ _______ _______ _____ _____    ______ ____
ROOT
ATOM      1  C   UNL     1      -0.017   1.378  -0.012  0.00  0.00    +0.000 A 
ATOM      2  C   UNL     1       1.173   2.083  -0.022  0.00  0.00    +0.002 A 
ATOM      3  C   UNL     1       2.377   1.411  -0.030  0.00  0.00    +0.024 A 
ATOM      4  C   UNL     1       2.405   0.015  -0.028  0.00  0.00    +0.039 A 
ATOM      5  C   UNL     1       1.206  -0.683  -0.019  0.00  0.00    -0.018 A 
ATOM      6  C   UNL     1       0.002  -0.004  -0.011  0.00  0.00    +0.006 A 
ATOM      7  C   UNL     1       1.515  -2.159  -0.023  0.00  0.00    +0.010 C 
ATOM      8  C   UNL     1       0.955  -2.826   1.231  0.00  0.00    -0.006 C 
ATOM      9  C   UNL     1       1.243  -4.329   1.175  0.00  0.00    -0.082 C 
ATOM     10  N   UNL     1       0.623  -4.904  -0.025  0.00  0.00    +0.379 N 
ATOM     11  C   UNL     1       1.230  -4.323  -1.229  0.00  0.00    -0.082 C 
ATOM     12  C   UNL     1       0.941  -2.820  -1.274  0.00  0.00    -0.006 C 
ATOM     13  C   UNL     1       3.046  -2.243  -0.032  0.00  0.00    +0.124 C 
ATOM     14  N   UNL     1       3.503  -0.849  -0.035  0.00  0.00    -0.283 N 
ATOM     15  C   UNL     1       4.828  -0.448  -0.043  0.00  0.00    +0.139 A 
ATOM     16  C   UNL     1       5.494  -0.148   1.152  0.00  0.00    +0.076 A 
ATOM     17  C   UNL     1       5.127  -0.141   2.576  0.00  0.00    +0.082 A 
ATOM     18  C   UNL     1       6.241   0.253   3.257  0.00  0.00    +0.104 A 
ATOM     19  N   UNL     1       7.253   0.487   2.380  0.00  0.00    -0.344 N 
ATOM     20  H   UNL     1       8.145   0.778   2.629  0.00  0.00    +0.167 HD
ATOM     21  C   UNL     1       6.838   0.255   1.095  0.00  0.00    +0.144 A 
ATOM     22  N   UNL     1       7.428   0.335  -0.098  0.00  0.00    -0.218 NA
ATOM     23  C   UNL     1       6.765   0.044  -1.196  0.00  0.00    +0.225 A 
ATOM     24  N   UNL     1       5.502  -0.344  -1.185  0.00  0.00    -0.220 NA
ATOM     25  H   UNL     1       0.763  -5.904  -0.028  0.00  0.00    -0.086 HD
ATOM     26  H   UNL     1      -0.366  -4.705  -0.019  0.00  0.00    -0.086 HD
ENDROOT
BRANCH  17  27
ATOM     27  C   UNL     1       3.854  -0.481   3.136  0.00  0.00    +0.101 C 
ATOM     28  N   UNL     1       2.844  -0.750   3.581  0.00  0.00    -0.191 NA
ENDBRANCH  17  27
TORSDOF 1
