REMARK  Name = CHEMBL178397
REMARK  6 active torsions:
REMARK  status: ('A' for Active; 'I' for Inactive)
REMARK    1  A    between atoms: C_1  and  C_2
REMARK    2  A    between atoms: C_7  and  C_34
REMARK    3  A    between atoms: C_8  and  C_10
REMARK    4  A    between atoms: C_13  and  C_16
REMARK    5  A    between atoms: C_16  and  N_17
REMARK    6  A    between atoms: C_20  and  N_23
REMARK                            x       y       z     vdW  Elec       q    Type
REMARK                         _______ _______ _______ _____ _____    ______ ____
ROOT
ATOM      1  C   UNL     1       2.152  -3.161  -0.284  0.00  0.00    +0.002 A 
ATOM      2  C   UNL     1       1.915  -4.535  -0.303  0.00  0.00    +0.010 A 
ATOM      3  C   UNL     1       2.971  -5.413  -0.437  0.00  0.00    +0.002 A 
ATOM      4  C   UNL     1       4.263  -4.933  -0.552  0.00  0.00    -0.064 A 
ATOM      5  C   UNL     1       4.505  -3.571  -0.533  0.00  0.00    +0.002 A 
ATOM      6  C   UNL     1       3.457  -2.683  -0.405  0.00  0.00    +0.010 A 
ENDROOT
BRANCH   1  14
ATOM      7  C   UNL     1      -0.192   0.812  -1.851  0.00  0.00    +0.071 C 
ATOM      8  C   UNL     1      -0.084  -0.336  -0.880  0.00  0.00    +0.103 A 
ATOM      9  C   UNL     1      -1.050  -0.487   0.139  0.00  0.00    +0.270 A 
ATOM     10  O   UNL     1      -1.970   0.308   0.234  0.00  0.00    -0.266 OA
ATOM     11  N   UNL     1      -0.950  -1.517   1.005  0.00  0.00    -0.319 N 
ATOM     12  H   UNL     1      -1.607  -1.632   1.710  0.00  0.00    +0.169 HD
ATOM     13  C   UNL     1       0.091  -2.395   0.877  0.00  0.00    +0.075 A 
ATOM     14  C   UNL     1       1.023  -2.212  -0.140  0.00  0.00    +0.095 A 
ATOM     15  N   UNL     1       0.903  -1.190  -0.991  0.00  0.00    -0.244 NA
BRANCH  13  16
ATOM     16  C   UNL     1       0.224  -3.529   1.812  0.00  0.00    +0.000 A 
ATOM     17  C   UNL     1       1.444  -3.773   2.449  0.00  0.00    +0.010 A 
ATOM     18  C   UNL     1       1.561  -4.835   3.322  0.00  0.00    +0.001 A 
ATOM     19  C   UNL     1       0.475  -5.657   3.567  0.00  0.00    +0.000 A 
ATOM     20  C   UNL     1      -0.736  -5.421   2.939  0.00  0.00    +0.001 A 
ATOM     21  C   UNL     1      -0.870  -4.360   2.068  0.00  0.00    +0.010 A 
ENDBRANCH  13  16
ENDBRANCH   1  14
BRANCH   4  22
ATOM     22  C   UNL     1       5.412  -5.897  -0.699  0.00  0.00    -0.043 C 
BRANCH  22  23
ATOM     23  N   UNL     1       5.646  -6.167  -2.124  0.00  0.00    +0.382 N 
ATOM     24  C   UNL     1       4.478  -6.853  -2.689  0.00  0.00    -0.076 C 
ATOM     25  C   UNL     1       4.683  -7.064  -4.191  0.00  0.00    +0.006 C 
ATOM     26  C   UNL     1       5.935  -7.916  -4.415  0.00  0.00    +0.089 C 
ATOM     27  C   UNL     1       7.134  -7.228  -3.756  0.00  0.00    +0.006 C 
ATOM     28  C   UNL     1       6.838  -7.010  -2.271  0.00  0.00    -0.076 C 
ATOM     29  H   UNL     1       5.790  -5.295  -2.611  0.00  0.00    -0.081 HD
BRANCH  26  30
ATOM     30  N   UNL     1       6.180  -8.059  -5.852  0.00  0.00    -0.289 N 
ATOM     31  C   UNL     1       6.215  -9.259  -6.558  0.00  0.00    +0.070 A 
ATOM     32  C   UNL     1       6.049 -10.585  -6.189  0.00  0.00    +0.028 A 
ATOM     33  C   UNL     1       6.144 -11.581  -7.141  0.00  0.00    +0.002 A 
ATOM     34  C   UNL     1       6.404 -11.260  -8.463  0.00  0.00    +0.002 A 
ATOM     35  C   UNL     1       6.571  -9.942  -8.840  0.00  0.00    +0.028 A 
ATOM     36  C   UNL     1       6.477  -8.936  -7.891  0.00  0.00    +0.067 A 
ATOM     37  N   UNL     1       6.592  -7.549  -7.953  0.00  0.00    -0.306 N 
ATOM     38  H   UNL     1       6.774  -7.030  -8.753  0.00  0.00    +0.170 HD
ATOM     39  C   UNL     1       6.404  -7.051  -6.717  0.00  0.00    +0.328 A 
ATOM     40  O   UNL     1       6.435  -5.871  -6.424  0.00  0.00    -0.247 OA
ENDBRANCH  26  30
ENDBRANCH  22  23
ENDBRANCH   4  22
TORSDOF 5
