REMARK  Name = CHEMBL536485
REMARK  10 active torsions:
REMARK  status: ('A' for Active; 'I' for Inactive)
REMARK    1  A    between atoms: C_1  and  C_2
REMARK    2  A    between atoms: C_2  and  C_45
REMARK    3  A    between atoms: C_7  and  C_8
REMARK    4  A    between atoms: C_11  and  O_44
REMARK    5  A    between atoms: C_12  and  C_15
REMARK    6  A    between atoms: C_15  and  C_17
REMARK    7  A    between atoms: C_20  and  C_23
REMARK    8  A    between atoms: N_25  and  C_26
REMARK    9  A    between atoms: C_33  and  N_35
REMARK   10  A    between atoms: C_36  and  C_38
REMARK                            x       y       z     vdW  Elec       q    Type
REMARK                         _______ _______ _______ _____ _____    ______ ____
ROOT
ATOM      1  C   UNL     1       6.856  -0.326  -0.331  0.00  0.00    +0.023 A 
ATOM      2  C   UNL     1       7.236   0.632   0.611  0.00  0.00    +0.012 A 
ATOM      3  C   UNL     1       8.548   1.046   0.682  0.00  0.00    +0.014 A 
ATOM      4  C   UNL     1       9.498   0.508  -0.189  0.00  0.00    +0.037 A 
ATOM      5  C   UNL     1       9.118  -0.449  -1.131  0.00  0.00    +0.014 A 
ATOM      6  C   UNL     1       7.807  -0.868  -1.198  0.00  0.00    +0.012 A 
ENDROOT
BRANCH   4   7
ATOM      7  C   UNL     1      10.907   0.953  -0.113  0.00  0.00    +0.244 C 
ATOM      8  O   UNL     1      11.238   1.787   0.707  0.00  0.00    -0.270 OA
ATOM      9  N   UNL     1      11.824   0.434  -0.953  0.00  0.00    -0.307 N 
ATOM     10  H   UNL     1      11.560  -0.231  -1.608  0.00  0.00    +0.149 HD
BRANCH   9  11
ATOM     11  C   UNL     1      13.219   0.875  -0.878  0.00  0.00    +0.092 C 
ATOM     12  C   UNL     1      13.387   2.175  -1.703  0.00  0.00    +0.022 C 
ATOM     13  C   UNL     1      14.685   2.833  -1.315  0.00  0.00    -0.017 C 
ATOM     14  C   UNL     1      15.876   2.404  -2.191  0.00  0.00    -0.082 C 
ATOM     15  N   UNL     1      15.909   0.953  -2.475  0.00  0.00    +0.380 N 
ATOM     16  C   UNL     1      15.578   0.169  -1.311  0.00  0.00    -0.058 C 
ATOM     17  C   UNL     1      14.083  -0.182  -1.389  0.00  0.00    +0.076 C 
ATOM     18  H   UNL     1      15.247   0.748  -3.209  0.00  0.00    -0.086 HD
ATOM     19  H   UNL     1      16.834   0.701  -2.789  0.00  0.00    -0.086 HD
BRANCH  17  20
ATOM     20  N   UNL     1      13.845  -1.401  -0.612  0.00  0.00    -0.309 N 
ATOM     21  C   UNL     1      14.104  -2.608  -1.154  0.00  0.00    +0.244 C 
ATOM     22  O   UNL     1      14.535  -2.684  -2.288  0.00  0.00    -0.270 OA
ATOM     23  H   UNL     1      13.502  -1.340   0.293  0.00  0.00    +0.149 HD
BRANCH  21  24
ATOM     24  C   UNL     1      13.864  -3.840  -0.368  0.00  0.00    +0.040 A 
ATOM     25  C   UNL     1      13.364  -3.775   0.936  0.00  0.00    +0.033 A 
ATOM     26  C   UNL     1      13.154  -4.949   1.632  0.00  0.00    +0.111 A 
ATOM     27  N   UNL     1      13.419  -6.118   1.084  0.00  0.00    -0.263 NA
ATOM     28  C   UNL     1      13.892  -6.225  -0.142  0.00  0.00    +0.111 A 
ATOM     29  C   UNL     1      14.126  -5.102  -0.912  0.00  0.00    +0.033 A 
ENDBRANCH  21  24
ENDBRANCH  17  20
ENDBRANCH   9  11
ENDBRANCH   4   7
BRANCH   1  30
ATOM     30  C   UNL     1       5.447  -0.771  -0.406  0.00  0.00    +0.199 C 
ATOM     31  O   UNL     1       5.134  -1.675  -1.157  0.00  0.00    -0.286 OA
BRANCH  30  36
ATOM     32  C   UNL     1       2.788   1.618   0.746  0.00  0.00    -0.025 A 
ATOM     33  C   UNL     1       2.493   1.109   1.999  0.00  0.00    +0.008 A 
ATOM     34  C   UNL     1       3.152  -0.008   2.475  0.00  0.00    +0.046 A 
ATOM     35  C   UNL     1       4.118  -0.630   1.699  0.00  0.00    +0.130 A 
ATOM     36  C   UNL     1       4.423  -0.120   0.427  0.00  0.00    +0.099 A 
ATOM     37  C   UNL     1       3.743   1.010  -0.045  0.00  0.00    +0.139 A 
ATOM     38  F   UNL     1       4.024   1.507  -1.270  0.00  0.00    -0.204 F 
BRANCH  32  45
ATOM     39  C   UNL     1       3.271   4.252   1.909  0.00  0.00    +0.009 C 
ATOM     40  C   UNL     1       2.947   4.072   0.425  0.00  0.00    -0.043 C 
ATOM     41  C   UNL     1       2.204   5.308  -0.090  0.00  0.00    +0.003 C 
ATOM     42  C   UNL     1       0.870   5.435   0.651  0.00  0.00    -0.019 C 
ATOM     43  C   UNL     1       0.061   4.150   0.459  0.00  0.00    -0.082 C 
ATOM     44  N   UNL     1       0.814   3.010   0.995  0.00  0.00    +0.384 N 
ATOM     45  C   UNL     1       2.061   2.838   0.241  0.00  0.00    -0.032 C 
ATOM     46  C   UNL     1       4.246   3.890  -0.363  0.00  0.00    +0.009 C 
ATOM     47  H   UNL     1       1.029   3.176   1.966  0.00  0.00    -0.085 HD
ATOM     48  H   UNL     1       0.256   2.173   0.915  0.00  0.00    -0.085 HD
ENDBRANCH  32  45
BRANCH  35  49
ATOM     49  O   UNL     1       4.765  -1.726   2.167  0.00  0.00    -0.506 OA
ATOM     50  H   UNL     1       4.294  -2.557   2.013  0.00  0.00    +0.292 HD
ENDBRANCH  35  49
ENDBRANCH  30  36
ENDBRANCH   1  30
TORSDOF 8
