REMARK  Name = CHEMBL470200
REMARK  7 active torsions:
REMARK  status: ('A' for Active; 'I' for Inactive)
REMARK    1  A    between atoms: C_4  and  C_7
REMARK    2  A    between atoms: C_9  and  C_22
REMARK    3  A    between atoms: C_11  and  C_12
REMARK    4  A    between atoms: N_24  and  C_25
REMARK    5  A    between atoms: C_25  and  C_26
REMARK    6  A    between atoms: C_25  and  C_28
REMARK    7  A    between atoms: C_26  and  N_27
REMARK                            x       y       z     vdW  Elec       q    Type
REMARK                         _______ _______ _______ _____ _____    ______ ____
ROOT
ATOM      1  C   UNL     1       3.647  -0.795  -0.117  0.00  0.00    -0.002 A 
ATOM      2  C   UNL     1       4.598  -0.511  -1.072  0.00  0.00    +0.029 A 
ATOM      3  C   UNL     1       5.853  -1.081  -0.950  0.00  0.00    +0.075 A 
ATOM      4  S   UNL     1       5.697  -2.041   0.546  0.00  0.00    -0.083 S 
ATOM      5  C   UNL     1       4.001  -1.643   0.936  0.00  0.00    +0.028 A 
ENDROOT
BRANCH   5   6
ATOM      6  C   UNL     1       3.183  -2.094   2.075  0.00  0.00    +0.001 A 
ATOM      7  C   UNL     1       2.422  -1.189   2.822  0.00  0.00    +0.029 A 
ATOM      8  C   UNL     1       1.669  -1.657   3.883  0.00  0.00    +0.114 A 
ATOM      9  N   UNL     1       1.648  -2.933   4.210  0.00  0.00    -0.237 NA
ATOM     10  C   UNL     1       2.346  -3.842   3.543  0.00  0.00    +0.139 A 
ATOM     11  C   UNL     1       3.136  -3.454   2.445  0.00  0.00    +0.027 A 
ATOM     12  C   UNL     1       3.759  -4.673   1.936  0.00  0.00    +0.029 A 
ATOM     13  C   UNL     1       3.329  -5.684   2.711  0.00  0.00    +0.085 A 
ATOM     14  N   UNL     1       2.490  -5.202   3.680  0.00  0.00    -0.346 N 
ATOM     15  H   UNL     1       2.054  -5.743   4.357  0.00  0.00    +0.167 HD
ENDBRANCH   5   6
BRANCH   1  19
ATOM     16  C   UNL     1      -0.253   0.879  -0.359  0.00  0.00    +0.000 A 
ATOM     17  C   UNL     1       0.853   1.709  -0.354  0.00  0.00    +0.001 A 
ATOM     18  C   UNL     1       2.122   1.171  -0.276  0.00  0.00    +0.008 A 
ATOM     19  C   UNL     1       2.287  -0.211  -0.201  0.00  0.00    -0.017 A 
ATOM     20  C   UNL     1       1.168  -1.043  -0.205  0.00  0.00    +0.008 A 
ATOM     21  C   UNL     1      -0.096  -0.494  -0.284  0.00  0.00    +0.001 A 
ENDBRANCH   1  19
BRANCH   3  22
ATOM     22  C   UNL     1       7.018  -0.932  -1.828  0.00  0.00    +0.251 C 
ATOM     23  O   UNL     1       6.948  -0.230  -2.819  0.00  0.00    -0.270 OA
ATOM     24  N   UNL     1       8.167  -1.575  -1.538  0.00  0.00    -0.306 N 
ATOM     25  H   UNL     1       8.223  -2.135  -0.748  0.00  0.00    +0.150 HD
BRANCH  24  26
ATOM     26  C   UNL     1       9.331  -1.427  -2.415  0.00  0.00    +0.086 C 
BRANCH  26  27
ATOM     27  C   UNL     1      10.223  -2.633  -2.273  0.00  0.00    -0.029 A 
ATOM     28  C   UNL     1      10.431  -3.196  -1.028  0.00  0.00    +0.005 A 
ATOM     29  C   UNL     1      11.250  -4.302  -0.897  0.00  0.00    +0.000 A 
ATOM     30  C   UNL     1      11.861  -4.845  -2.012  0.00  0.00    +0.000 A 
ATOM     31  C   UNL     1      11.652  -4.283  -3.257  0.00  0.00    +0.000 A 
ATOM     32  C   UNL     1      10.830  -3.179  -3.389  0.00  0.00    +0.005 A 
ENDBRANCH  26  27
BRANCH  26  33
ATOM     33  C   UNL     1      10.108  -0.169  -2.024  0.00  0.00    -0.059 C 
BRANCH  33  34
ATOM     34  N   UNL     1       9.205   0.991  -2.048  0.00  0.00    +0.380 N 
ATOM     35  H   UNL     1       8.827   1.104  -2.976  0.00  0.00    -0.090 HD
ATOM     36  H   UNL     1       8.452   0.844  -1.393  0.00  0.00    -0.090 HD
ATOM     37  H   UNL     1       9.718   1.821  -1.790  0.00  0.00    -0.090 HD
ENDBRANCH  33  34
ENDBRANCH  26  33
ENDBRANCH  24  26
ENDBRANCH   3  22
TORSDOF 7
