REMARK  Name = CHEMBL228654
REMARK  3 active torsions:
REMARK  status: ('A' for Active; 'I' for Inactive)
REMARK    1  A    between atoms: C_1  and  C_2
REMARK    2  A    between atoms: C_2  and  C_17
REMARK    3  A    between atoms: C_6  and  N_13
REMARK                            x       y       z     vdW  Elec       q    Type
REMARK                         _______ _______ _______ _____ _____    ______ ____
ROOT
ATOM      1  C   UNL     1      -0.852   1.393   0.111  0.00  0.00    +0.046 C 
ATOM      2  C   UNL     1      -0.506  -0.073   0.066  0.00  0.00    -0.014 C 
ATOM      3  C   UNL     1      -0.185  -0.743   1.231  0.00  0.00    +0.051 C 
ATOM      4  C   UNL     1      -0.018  -0.167   2.584  0.00  0.00    +0.010 A 
ATOM      5  C   UNL     1      -0.119   1.126   3.087  0.00  0.00    +0.034 A 
ATOM      6  C   UNL     1       0.100   1.355   4.436  0.00  0.00    +0.035 A 
ATOM      7  C   UNL     1       0.419   0.295   5.278  0.00  0.00    +0.025 A 
ATOM      8  C   UNL     1       0.521  -0.988   4.782  0.00  0.00    +0.026 A 
ATOM      9  C   UNL     1       0.304  -1.235   3.431  0.00  0.00    +0.042 A 
ATOM     10  N   UNL     1       0.343  -2.411   2.688  0.00  0.00    -0.281 N 
ATOM     11  C   UNL     1       0.058  -2.182   1.395  0.00  0.00    +0.249 C 
ATOM     12  O   UNL     1       0.012  -3.021   0.513  0.00  0.00    -0.270 OA
ATOM     13  H   UNL     1       0.545  -3.285   3.058  0.00  0.00    +0.155 HD
ENDROOT
BRANCH   6  14
ATOM     14  N   UNL     1       0.000   2.655   4.952  0.00  0.00    -0.270 N 
ATOM     15  C   UNL     1      -0.451   2.849   6.207  0.00  0.00    +0.301 C 
ATOM     16  O   UNL     1      -0.861   1.908   6.858  0.00  0.00    -0.253 OA
ATOM     17  N   UNL     1      -0.449   4.087   6.740  0.00  0.00    -0.313 N 
ATOM     18  H   UNL     1       0.256   3.414   4.405  0.00  0.00    +0.156 HD
ATOM     19  H   UNL     1      -0.122   4.838   6.220  0.00  0.00    +0.146 HD
ATOM     20  H   UNL     1      -0.774   4.227   7.643  0.00  0.00    +0.146 HD
ENDBRANCH   6  14
BRANCH   2  21
ATOM     21  C   UNL     1      -0.510  -0.761  -1.165  0.00  0.00    +0.043 A 
ATOM     22  C   UNL     1       0.588  -1.330  -1.791  0.00  0.00    +0.027 A 
ATOM     23  C   UNL     1       0.131  -1.904  -2.979  0.00  0.00    +0.019 A 
ATOM     24  C   UNL     1      -1.205  -1.685  -3.062  0.00  0.00    +0.083 A 
ATOM     25  N   UNL     1      -1.609  -0.997  -1.964  0.00  0.00    -0.361 N 
ATOM     26  H   UNL     1      -2.517  -0.716  -1.774  0.00  0.00    +0.165 HD
ENDBRANCH   2  21
TORSDOF 2
