REMARK  Name = CHEMBL210544
REMARK  8 active torsions:
REMARK  status: ('A' for Active; 'I' for Inactive)
REMARK    1  A    between atoms: C_4  and  C_7
REMARK    2  A    between atoms: C_11  and  C_17
REMARK    3  A    between atoms: C_19  and  O_23
REMARK    4  A    between atoms: O_23  and  C_24
REMARK    5  A    between atoms: C_24  and  C_25
REMARK    6  A    between atoms: C_25  and  C_27
REMARK    7  A    between atoms: C_25  and  N_38
REMARK    8  A    between atoms: C_27  and  C_28
REMARK                            x       y       z     vdW  Elec       q    Type
REMARK                         _______ _______ _______ _____ _____    ______ ____
ROOT
ATOM      1  C   UNL     1       6.380  -6.215  -0.114  0.00  0.00    +0.004 A 
ATOM      2  C   UNL     1       7.631  -6.838  -0.125  0.00  0.00    +0.057 A 
ATOM      3  C   UNL     1       7.675  -8.226  -0.139  0.00  0.00    +0.139 A 
ATOM      4  C   UNL     1       6.484  -8.940  -0.141  0.00  0.00    +0.156 A 
ATOM      5  N   UNL     1       5.321  -8.320  -0.131  0.00  0.00    -0.259 NA
ATOM      6  C   UNL     1       5.233  -7.006  -0.112  0.00  0.00    +0.119 A 
ENDROOT
BRANCH   1  11
ATOM      7  C   UNL     1       3.698  -0.688  -0.038  0.00  0.00    +0.072 A 
ATOM      8  C   UNL     1       3.703  -2.071  -0.051  0.00  0.00    +0.037 A 
ATOM      9  C   UNL     1       4.940  -2.738  -0.068  0.00  0.00    -0.014 A 
ATOM     10  C   UNL     1       5.029  -4.137  -0.083  0.00  0.00    +0.017 A 
ATOM     11  C   UNL     1       6.276  -4.735  -0.099  0.00  0.00    -0.016 A 
ATOM     12  C   UNL     1       7.443  -3.955  -0.101  0.00  0.00    +0.009 A 
ATOM     13  C   UNL     1       7.377  -2.598  -0.087  0.00  0.00    +0.010 A 
ATOM     14  C   UNL     1       6.127  -1.958  -0.070  0.00  0.00    +0.000 A 
ATOM     15  C   UNL     1       6.015  -0.557  -0.056  0.00  0.00    +0.120 A 
ATOM     16  N   UNL     1       4.834   0.011  -0.046  0.00  0.00    -0.254 NA
BRANCH   7  20
ATOM     17  C   UNL     1      -0.017   1.379   0.010  0.00  0.00    +0.000 A 
ATOM     18  C   UNL     1       1.169   2.092   0.002  0.00  0.00    +0.001 A 
ATOM     19  C   UNL     1       2.377   1.426  -0.013  0.00  0.00    +0.010 A 
ATOM     20  C   UNL     1       2.402   0.033  -0.021  0.00  0.00    +0.000 A 
ATOM     21  C   UNL     1       1.205  -0.680  -0.013  0.00  0.00    +0.010 A 
ATOM     22  C   UNL     1       0.002  -0.004   0.002  0.00  0.00    +0.001 A 
ENDBRANCH   7  20
ENDBRANCH   1  11
BRANCH   3  23
ATOM     23  O   UNL     1       8.868  -8.876  -0.150  0.00  0.00    -0.492 OA
BRANCH  23  24
ATOM     24  C   UNL     1       8.828 -10.305  -0.164  0.00  0.00    +0.213 C 
BRANCH  24  25
ATOM     25  C   UNL     1      10.255 -10.855  -0.176  0.00  0.00    -0.033 C 
BRANCH  25  26
ATOM     26  N   UNL     1      10.928 -10.497   1.080  0.00  0.00    +0.382 N 
ATOM     27  H   UNL     1      10.421 -10.893   1.858  0.00  0.00    -0.089 HD
ATOM     28  H   UNL     1      11.870 -10.860   1.073  0.00  0.00    -0.089 HD
ATOM     29  H   UNL     1      10.956  -9.493   1.173  0.00  0.00    -0.089 HD
ENDBRANCH  25  26
BRANCH  25  30
ATOM     30  C   UNL     1      10.214 -12.378  -0.316  0.00  0.00    +0.024 C 
BRANCH  30  31
ATOM     31  C   UNL     1      11.618 -12.909  -0.451  0.00  0.00    -0.024 A 
ATOM     32  C   UNL     1      12.266 -13.171  -1.597  0.00  0.00    +0.087 A 
ATOM     33  N   UNL     1      13.523 -13.640  -1.326  0.00  0.00    -0.360 N 
ATOM     34  H   UNL     1      14.178 -13.897  -1.993  0.00  0.00    +0.165 HD
ATOM     35  C   UNL     1      13.719 -13.691   0.036  0.00  0.00    +0.047 A 
ATOM     36  C   UNL     1      12.537 -13.229   0.644  0.00  0.00    +0.003 A 
ATOM     37  C   UNL     1      12.448 -13.165   2.035  0.00  0.00    +0.010 A 
ATOM     38  C   UNL     1      13.513 -13.548   2.801  0.00  0.00    +0.001 A 
ATOM     39  C   UNL     1      14.683 -14.001   2.207  0.00  0.00    +0.002 A 
ATOM     40  C   UNL     1      14.789 -14.081   0.835  0.00  0.00    +0.026 A 
ENDBRANCH  30  31
ENDBRANCH  25  30
ENDBRANCH  24  25
ENDBRANCH  23  24
ENDBRANCH   3  23
TORSDOF 8
