REMARK  Name = CHEMBL1173384
REMARK  5 active torsions:
REMARK  status: ('A' for Active; 'I' for Inactive)
REMARK    1  A    between atoms: C_1  and  C_2
REMARK    2  A    between atoms: C_8  and  N_12
REMARK    3  A    between atoms: C_15  and  C_17
REMARK    4  A    between atoms: C_15  and  N_21
REMARK    5  A    between atoms: C_17  and  N_18
REMARK                            x       y       z     vdW  Elec       q    Type
REMARK                         _______ _______ _______ _____ _____    ______ ____
ROOT
ATOM      1  N   UNL     1       0.009   0.688   2.848  0.00  0.00    -0.316 N 
ATOM      2  C   UNL     1      -0.222   1.909   2.055  0.00  0.00    +0.105 C 
ATOM      3  C   UNL     1      -0.751   2.949   3.074  0.00  0.00    +0.009 C 
ATOM      4  C   UNL     1       0.088   2.605   4.333  0.00  0.00    -0.038 C 
ATOM      5  C   UNL     1       0.215   1.069   4.253  0.00  0.00    +0.095 C 
ENDROOT
BRANCH   1  13
ATOM      6  C   UNL     1      -3.173   0.211   3.003  0.00  0.00    +0.046 C 
ATOM      7  C   UNL     1      -2.583  -1.062   2.454  0.00  0.00    -0.021 A 
ATOM      8  C   UNL     1      -3.257  -2.167   2.096  0.00  0.00    +0.088 A 
ATOM      9  N   UNL     1      -2.381  -3.119   1.642  0.00  0.00    -0.345 N 
ATOM     10  H   UNL     1      -2.632  -4.002   1.327  0.00  0.00    +0.167 HD
ATOM     11  C   UNL     1      -1.100  -2.641   1.697  0.00  0.00    +0.143 A 
ATOM     12  C   UNL     1      -1.168  -1.329   2.202  0.00  0.00    +0.061 A 
ATOM     13  C   UNL     1       0.023  -0.604   2.353  0.00  0.00    +0.134 A 
ATOM     14  N   UNL     1       1.167  -1.189   2.009  0.00  0.00    -0.220 NA
ATOM     15  C   UNL     1       1.185  -2.422   1.535  0.00  0.00    +0.225 A 
ATOM     16  N   UNL     1       0.094  -3.142   1.385  0.00  0.00    -0.218 NA
ENDBRANCH   1  13
BRANCH   4  17
ATOM     17  N   UNL     1      -0.624   3.001   5.556  0.00  0.00    +0.384 N 
ATOM     18  H   UNL     1      -1.515   2.528   5.594  0.00  0.00    -0.089 HD
ATOM     19  H   UNL     1      -0.074   2.748   6.363  0.00  0.00    -0.089 HD
ATOM     20  H   UNL     1      -0.773   3.999   5.550  0.00  0.00    -0.089 HD
ENDBRANCH   4  17
BRANCH   4  21
ATOM     21  C   UNL     1       1.463   3.272   4.267  0.00  0.00    +0.092 C 
BRANCH  21  22
ATOM     22  N   UNL     1       1.306   4.726   4.346  0.00  0.00    -0.319 N 
ATOM     23  C   UNL     1       2.391   5.525   4.306  0.00  0.00    +0.325 C 
ATOM     24  O   UNL     1       3.497   5.040   4.205  0.00  0.00    -0.280 OA
ATOM     25  H   UNL     1       0.420   5.114   4.427  0.00  0.00    +0.148 HD
ENDBRANCH  21  22
ENDBRANCH   4  21
TORSDOF 4
