REMARK  Name = CHEMBL262341
REMARK  6 active torsions:
REMARK  status: ('A' for Active; 'I' for Inactive)
REMARK    1  A    between atoms: C_4  and  C_7
REMARK    2  A    between atoms: C_17  and  C_18
REMARK    3  A    between atoms: C_21  and  C_24
REMARK    4  A    between atoms: C_24  and  N_25
REMARK    5  A    between atoms: C_28  and  C_31
REMARK    6  A    between atoms: C_33  and  C_37
REMARK                            x       y       z     vdW  Elec       q    Type
REMARK                         _______ _______ _______ _____ _____    ______ ____
ROOT
ATOM      1  C   UNL     1       3.129  -2.092  -2.224  0.00  0.00    +0.001 A 
ATOM      2  C   UNL     1       1.819  -1.604  -2.214  0.00  0.00    +0.010 A 
ATOM      3  C   UNL     1       0.914  -2.051  -3.153  0.00  0.00    +0.002 A 
ATOM      4  C   UNL     1       1.299  -2.981  -4.103  0.00  0.00    -0.064 A 
ATOM      5  C   UNL     1       2.595  -3.469  -4.119  0.00  0.00    +0.002 A 
ATOM      6  C   UNL     1       3.513  -3.026  -3.190  0.00  0.00    +0.010 A 
ENDROOT
BRANCH   1  17
ATOM      7  C   UNL     1       3.700  -1.456   0.186  0.00  0.00    +0.005 C 
ATOM      8  C   UNL     1       4.644  -1.309   1.139  0.00  0.00    +0.002 C 
ATOM      9  C   UNL     1       6.085  -1.382   0.772  0.00  0.00    +0.149 C 
ATOM     10  C   UNL     1       6.272  -1.056  -0.685  0.00  0.00    +0.059 C 
ATOM     11  C   UNL     1       7.419  -0.348  -1.015  0.00  0.00    +0.041 C 
ATOM     12  C   UNL     1       8.238   0.138  -0.004  0.00  0.00    +0.102 C 
ATOM     13  N   UNL     1       7.994   0.025   1.283  0.00  0.00    -0.188 NA
ATOM     14  C   UNL     1       6.955  -0.664   1.769  0.00  0.00    +0.249 C 
ATOM     15  O   UNL     1       6.723  -0.708   2.961  0.00  0.00    -0.273 OA
ATOM     16  N   UNL     1       5.345  -1.331  -1.585  0.00  0.00    -0.250 NA
ATOM     17  C   UNL     1       4.104  -1.618  -1.222  0.00  0.00    +0.079 C 
BRANCH   7  21
ATOM     18  C   UNL     1      -0.420  -1.470   1.241  0.00  0.00    +0.000 A 
ATOM     19  C   UNL     1       0.319  -0.307   1.362  0.00  0.00    +0.001 A 
ATOM     20  C   UNL     1       1.656  -0.296   1.021  0.00  0.00    +0.008 A 
ATOM     21  C   UNL     1       2.262  -1.461   0.554  0.00  0.00    -0.016 A 
ATOM     22  C   UNL     1       1.514  -2.630   0.434  0.00  0.00    +0.008 A 
ATOM     23  C   UNL     1       0.177  -2.629   0.778  0.00  0.00    +0.001 A 
ENDBRANCH   7  21
ENDBRANCH   1  17
BRANCH   4  24
ATOM     24  C   UNL     1       0.303  -3.465  -5.125  0.00  0.00    -0.043 C 
BRANCH  24  25
ATOM     25  N   UNL     1       0.355  -2.597  -6.309  0.00  0.00    +0.382 N 
ATOM     26  C   UNL     1      -0.080  -1.244  -5.941  0.00  0.00    -0.078 C 
ATOM     27  C   UNL     1       0.049  -0.316  -7.151  0.00  0.00    -0.008 C 
ATOM     28  C   UNL     1      -0.829  -0.844  -8.289  0.00  0.00    +0.053 C 
ATOM     29  C   UNL     1      -0.415  -2.283  -8.614  0.00  0.00    -0.008 C 
ATOM     30  C   UNL     1      -0.527  -3.138  -7.350  0.00  0.00    -0.078 C 
ATOM     31  H   UNL     1       1.301  -2.560  -6.657  0.00  0.00    -0.081 HD
BRANCH  28  32
ATOM     32  C   UNL     1      -0.647   0.021  -9.509  0.00  0.00    +0.129 A 
ATOM     33  N   UNL     1      -1.404   1.028  -9.854  0.00  0.00    -0.210 NA
ATOM     34  C   UNL     1      -0.951   1.568 -10.993  0.00  0.00    +0.200 A 
ATOM     35  N   UNL     1       0.111   0.898 -11.384  0.00  0.00    -0.151 NA
ATOM     36  H   UNL     1       1.038  -0.768 -10.432  0.00  0.00    +0.190 HD
ATOM     37  N   UNL     1       0.328  -0.109 -10.428  0.00  0.00    -0.262 N 
BRANCH  34  38
ATOM     38  C   UNL     1      -1.548   2.729 -11.697  0.00  0.00    +0.110 A 
ATOM     39  C   UNL     1      -0.977   3.187 -12.882  0.00  0.00    +0.031 A 
ATOM     40  C   UNL     1      -1.545   4.271 -13.528  0.00  0.00    +0.004 A 
ATOM     41  C   UNL     1      -2.668   4.862 -12.967  0.00  0.00    +0.020 A 
ATOM     42  C   UNL     1      -3.183   4.356 -11.788  0.00  0.00    +0.111 A 
ATOM     43  N   UNL     1      -2.625   3.319 -11.196  0.00  0.00    -0.252 NA
ENDBRANCH  34  38
ENDBRANCH  28  32
ENDBRANCH  24  25
ENDBRANCH   4  24
TORSDOF 6
