REMARK  Name = CHEMBL597793
REMARK  5 active torsions:
REMARK  status: ('A' for Active; 'I' for Inactive)
REMARK    1  A    between atoms: C_6  and  C_7
REMARK    2  A    between atoms: C_7  and  O_8
REMARK    3  A    between atoms: O_8  and  C_9
REMARK    4  A    between atoms: C_9  and  C_10
REMARK    5  A    between atoms: C_10  and  N_26
REMARK                            x       y       z     vdW  Elec       q    Type
REMARK                         _______ _______ _______ _____ _____    ______ ____
ROOT
ATOM      1  C   UNL     1      -3.251  -1.850  -2.932  0.00  0.00    -0.044 C 
ATOM      2  C   UNL     1      -3.432  -0.442  -3.501  0.00  0.00    +0.008 C 
ATOM      3  C   UNL     1      -4.575   0.261  -2.763  0.00  0.00    +0.105 C 
ATOM      4  N   UNL     1      -5.777  -0.580  -2.842  0.00  0.00    -0.315 N 
ATOM      5  C   UNL     1      -5.689  -1.980  -2.404  0.00  0.00    +0.105 C 
ATOM      6  C   UNL     1      -4.534  -2.658  -3.147  0.00  0.00    +0.008 C 
ATOM      7  C   UNL     1      -6.968  -0.064  -3.319  0.00  0.00    +0.134 A 
ATOM      8  C   UNL     1      -7.892   0.536  -2.450  0.00  0.00    +0.059 A 
ATOM      9  C   UNL     1      -7.944   0.795  -1.012  0.00  0.00    +0.032 A 
ATOM     10  C   UNL     1      -9.111   1.415  -0.771  0.00  0.00    +0.085 A 
ATOM     11  N   UNL     1      -9.804   1.571  -1.943  0.00  0.00    -0.346 N 
ATOM     12  H   UNL     1     -10.674   1.993  -2.023  0.00  0.00    +0.167 HD
ATOM     13  C   UNL     1      -9.089   1.047  -2.984  0.00  0.00    +0.143 A 
ATOM     14  N   UNL     1      -9.297   0.939  -4.296  0.00  0.00    -0.218 NA
ATOM     15  C   UNL     1      -8.404   0.368  -5.073  0.00  0.00    +0.225 A 
ATOM     16  N   UNL     1      -7.264  -0.119  -4.614  0.00  0.00    -0.220 NA
ENDROOT
BRANCH   1  17
ATOM     17  N   UNL     1      -2.134  -2.515  -3.615  0.00  0.00    +0.383 N 
ATOM     18  H   UNL     1      -2.014  -3.444  -3.240  0.00  0.00    -0.089 HD
ATOM     19  H   UNL     1      -2.332  -2.575  -4.603  0.00  0.00    -0.089 HD
ATOM     20  H   UNL     1      -1.288  -1.984  -3.473  0.00  0.00    -0.089 HD
ENDBRANCH   1  17
BRANCH   1  21
ATOM     21  C   UNL     1      -2.951  -1.760  -1.434  0.00  0.00    +0.147 C 
BRANCH  21  22
ATOM     22  O   UNL     1      -1.754  -1.007  -1.233  0.00  0.00    -0.377 OA
BRANCH  22  23
ATOM     23  C   UNL     1      -1.382  -0.862   0.140  0.00  0.00    +0.195 C 
BRANCH  23  29
ATOM     24  C   UNL     1      -0.176   1.321   0.345  0.00  0.00    +0.007 A 
ATOM     25  C   UNL     1       0.988   2.062   0.432  0.00  0.00    +0.020 A 
ATOM     26  C   UNL     1       2.216   1.425   0.407  0.00  0.00    +0.041 A 
ATOM     27  C   UNL     1       2.278   0.048   0.296  0.00  0.00    +0.020 A 
ATOM     28  C   UNL     1       1.114  -0.692   0.209  0.00  0.00    +0.007 A 
ATOM     29  C   UNL     1      -0.113  -0.055   0.234  0.00  0.00    -0.022 A 
ATOM     30 CL   UNL     1       3.678   2.355   0.516  0.00  0.00    -0.084 Cl
ENDBRANCH  23  29
ENDBRANCH  22  23
ENDBRANCH  21  22
ENDBRANCH   1  21
TORSDOF 5
