REMARK  Name = CHEMBL469561
REMARK  7 active torsions:
REMARK  status: ('A' for Active; 'I' for Inactive)
REMARK    1  A    between atoms: C_4  and  C_7
REMARK    2  A    between atoms: C_7  and  C_8
REMARK    3  A    between atoms: C_7  and  C_10
REMARK    4  A    between atoms: C_8  and  N_9
REMARK    5  A    between atoms: C_10  and  N_11
REMARK    6  A    between atoms: N_11  and  C_12
REMARK    7  A    between atoms: C_15  and  C_17
REMARK                            x       y       z     vdW  Elec       q    Type
REMARK                         _______ _______ _______ _____ _____    ______ ____
ROOT
ATOM      1  N   UNL     1       4.858  -2.436  -1.351  0.00  0.00    -0.338 N 
ATOM      2  H   UNL     1       5.577  -2.307  -0.712  0.00  0.00    +0.147 HD
ENDROOT
BRANCH   1   3
ATOM      3  C   UNL     1       4.973  -3.407  -2.340  0.00  0.00    +0.066 A 
ATOM      4  C   UNL     1       6.003  -4.276  -2.577  0.00  0.00    +0.031 A 
ATOM      5  C   UNL     1       5.899  -5.161  -3.625  0.00  0.00    +0.018 A 
ATOM      6  C   UNL     1       4.765  -5.142  -4.396  0.00  0.00    +0.022 A 
ATOM      7  S   UNL     1       3.812  -3.845  -3.624  0.00  0.00    -0.074 S 
BRANCH   6   8
ATOM      8  C   UNL     1       4.422  -5.978  -5.559  0.00  0.00    +0.001 A 
ATOM      9  C   UNL     1       5.319  -6.145  -6.620  0.00  0.00    +0.029 A 
ATOM     10  C   UNL     1       4.955  -6.939  -7.690  0.00  0.00    +0.114 A 
ATOM     11  N   UNL     1       3.785  -7.543  -7.740  0.00  0.00    -0.237 NA
ATOM     12  C   UNL     1       2.889  -7.426  -6.767  0.00  0.00    +0.139 A 
ATOM     13  C   UNL     1       3.179  -6.641  -5.638  0.00  0.00    +0.027 A 
ATOM     14  C   UNL     1       2.009  -6.725  -4.767  0.00  0.00    +0.029 A 
ATOM     15  C   UNL     1       1.120  -7.521  -5.384  0.00  0.00    +0.085 A 
ATOM     16  N   UNL     1       1.628  -7.941  -6.584  0.00  0.00    -0.346 N 
ATOM     17  H   UNL     1       1.170  -8.525  -7.209  0.00  0.00    +0.167 HD
ENDBRANCH   6   8
ENDBRANCH   1   3
BRANCH   1  18
ATOM     18  C   UNL     1       3.651  -1.609  -1.272  0.00  0.00    +0.108 C 
BRANCH  18  19
ATOM     19  C   UNL     1       3.722  -0.720  -0.030  0.00  0.00    +0.018 C 
BRANCH  19  23
ATOM     20  C   UNL     1       0.395   1.960  -0.007  0.00  0.00    +0.000 A 
ATOM     21  C   UNL     1       1.684   2.459  -0.025  0.00  0.00    +0.000 A 
ATOM     22  C   UNL     1       2.761   1.591  -0.033  0.00  0.00    +0.004 A 
ATOM     23  C   UNL     1       2.548   0.226  -0.021  0.00  0.00    -0.045 A 
ATOM     24  C   UNL     1       1.259  -0.273  -0.002  0.00  0.00    +0.004 A 
ATOM     25  C   UNL     1       0.183   0.594   0.003  0.00  0.00    +0.000 A 
ENDBRANCH  19  23
BRANCH  19  26
ATOM     26  C   UNL     1       3.683  -1.593   1.226  0.00  0.00    -0.077 C 
BRANCH  26  27
ATOM     27  N   UNL     1       3.849  -0.748   2.416  0.00  0.00    +0.379 N 
ATOM     28  H   UNL     1       4.692  -0.202   2.325  0.00  0.00    -0.090 HD
ATOM     29  H   UNL     1       3.056  -0.131   2.503  0.00  0.00    -0.090 HD
ATOM     30  H   UNL     1       3.913  -1.332   3.236  0.00  0.00    -0.090 HD
ENDBRANCH  26  27
ENDBRANCH  19  26
ENDBRANCH  18  19
ENDBRANCH   1  18
TORSDOF 7
