REMARK  Name = CHEMBL404553
REMARK  8 active torsions:
REMARK  status: ('A' for Active; 'I' for Inactive)
REMARK    1  A    between atoms: C_1  and  S_2
REMARK    2  A    between atoms: S_2  and  C_3
REMARK    3  A    between atoms: C_8  and  C_37
REMARK    4  A    between atoms: C_9  and  C_13
REMARK    5  A    between atoms: C_16  and  C_19
REMARK    6  A    between atoms: C_19  and  N_20
REMARK    7  A    between atoms: C_23  and  C_26
REMARK    8  A    between atoms: C_28  and  C_31
REMARK                            x       y       z     vdW  Elec       q    Type
REMARK                         _______ _______ _______ _____ _____    ______ ____
ROOT
ATOM      1  C   UNL     1       2.670  -5.092  -4.655  0.00  0.00    +0.001 A 
ATOM      2  C   UNL     1       2.633  -5.533  -5.978  0.00  0.00    +0.010 A 
ATOM      3  C   UNL     1       2.806  -6.872  -6.262  0.00  0.00    +0.002 A 
ATOM      4  C   UNL     1       3.016  -7.777  -5.237  0.00  0.00    -0.064 A 
ATOM      5  C   UNL     1       3.053  -7.347  -3.923  0.00  0.00    +0.002 A 
ATOM      6  C   UNL     1       2.888  -6.009  -3.627  0.00  0.00    +0.010 A 
ENDROOT
BRANCH   1  13
ATOM      7  C   UNL     1       0.848  -0.411  -1.489  0.00  0.00    +0.190 A 
ATOM      8  N   UNL     1       1.284   0.580  -2.267  0.00  0.00    -0.230 NA
ATOM      9  C   UNL     1       1.923   0.338  -3.392  0.00  0.00    +0.125 A 
ATOM     10  C   UNL     1       2.142  -1.001  -3.766  0.00  0.00    +0.038 A 
ATOM     11  C   UNL     1       2.815  -1.339  -4.949  0.00  0.00    +0.023 A 
ATOM     12  C   UNL     1       2.987  -2.685  -5.239  0.00  0.00    +0.009 A 
ATOM     13  C   UNL     1       2.485  -3.656  -4.344  0.00  0.00    +0.081 A 
ATOM     14  N   UNL     1       1.855  -3.311  -3.237  0.00  0.00    -0.227 NA
ATOM     15  C   UNL     1       1.665  -2.032  -2.913  0.00  0.00    +0.165 A 
ATOM     16  N   UNL     1       1.030  -1.684  -1.786  0.00  0.00    -0.202 NA
BRANCH  12  17
ATOM     17  C   UNL     1       3.690  -3.100  -6.476  0.00  0.00    -0.016 A 
ATOM     18  C   UNL     1       4.718  -4.040  -6.414  0.00  0.00    +0.008 A 
ATOM     19  C   UNL     1       5.369  -4.423  -7.569  0.00  0.00    +0.001 A 
ATOM     20  C   UNL     1       5.004  -3.876  -8.786  0.00  0.00    +0.000 A 
ATOM     21  C   UNL     1       3.984  -2.943  -8.853  0.00  0.00    +0.001 A 
ATOM     22  C   UNL     1       3.322  -2.557  -7.706  0.00  0.00    +0.008 A 
ENDBRANCH  12  17
BRANCH   7  24
ATOM     23  C   UNL     1      -0.022   1.810   0.012  0.00  0.00    +0.093 C 
ATOM     24  S   UNL     1       0.002  -0.004   0.002  0.00  0.00    -0.089 S 
ENDBRANCH   7  24
ENDBRANCH   1  13
BRANCH   4  25
ATOM     25  C   UNL     1       3.204  -9.239  -5.554  0.00  0.00    -0.043 C 
BRANCH  25  26
ATOM     26  N   UNL     1       4.631  -9.515  -5.761  0.00  0.00    +0.382 N 
ATOM     27  C   UNL     1       5.102  -8.789  -6.947  0.00  0.00    -0.078 C 
ATOM     28  C   UNL     1       6.606  -9.008  -7.120  0.00  0.00    -0.006 C 
ATOM     29  C   UNL     1       6.881 -10.505  -7.294  0.00  0.00    +0.074 C 
ATOM     30  C   UNL     1       6.320 -11.260  -6.087  0.00  0.00    -0.006 C 
ATOM     31  C   UNL     1       4.827 -10.957  -5.951  0.00  0.00    -0.078 C 
ATOM     32  H   UNL     1       5.153  -9.210  -4.953  0.00  0.00    -0.081 HD
BRANCH  29  33
ATOM     33  C   UNL     1       8.368 -10.736  -7.388  0.00  0.00    +0.231 A 
ATOM     34  N   UNL     1       8.993 -11.270  -8.398  0.00  0.00    -0.191 NA
ATOM     35  C   UNL     1      10.313 -11.325  -8.146  0.00  0.00    +0.204 A 
ATOM     36  N   UNL     1      10.534 -10.819  -6.958  0.00  0.00    -0.056 NA
ATOM     37  O   UNL     1       9.269 -10.423  -6.448  0.00  0.00    -0.337 OA
BRANCH  35  38
ATOM     38  C   UNL     1      11.347 -11.868  -9.062  0.00  0.00    +0.041 A 
ATOM     39  C   UNL     1      12.693 -11.878  -8.686  0.00  0.00    +0.014 A 
ATOM     40  C   UNL     1      13.619 -12.395  -9.576  0.00  0.00    +0.020 A 
ATOM     41  C   UNL     1      13.186 -12.882 -10.796  0.00  0.00    +0.111 A 
ATOM     42  N   UNL     1      11.909 -12.859 -11.122  0.00  0.00    -0.263 NA
ATOM     43  C   UNL     1      10.991 -12.382 -10.306  0.00  0.00    +0.122 A 
ENDBRANCH  35  38
ENDBRANCH  29  33
ENDBRANCH  25  26
ENDBRANCH   4  25
TORSDOF 7
