REMARK  Name = CHEMBL211865
REMARK  7 active torsions:
REMARK  status: ('A' for Active; 'I' for Inactive)
REMARK    1  A    between atoms: C_7  and  C_10
REMARK    2  A    between atoms: C_10  and  C_11
REMARK    3  A    between atoms: C_11  and  C_13
REMARK    4  A    between atoms: C_11  and  N_31
REMARK    5  A    between atoms: C_13  and  O_14
REMARK    6  A    between atoms: O_14  and  C_15
REMARK    7  A    between atoms: C_17  and  C_21
REMARK                            x       y       z     vdW  Elec       q    Type
REMARK                         _______ _______ _______ _____ _____    ______ ____
ROOT
ATOM      1  O   UNL     1      -1.687  -4.663  -2.806  0.00  0.00    -0.492 OA
ENDROOT
BRANCH   1   2
ATOM      2  C   UNL     1      -2.663  -5.591  -2.991  0.00  0.00    +0.139 A 
ATOM      3  C   UNL     1      -3.080  -5.928  -4.272  0.00  0.00    +0.057 A 
ATOM      4  C   UNL     1      -4.086  -6.887  -4.410  0.00  0.00    +0.004 A 
ATOM      5  C   UNL     1      -4.630  -7.464  -3.264  0.00  0.00    +0.119 A 
ATOM      6  N   UNL     1      -4.205  -7.114  -2.067  0.00  0.00    -0.259 NA
ATOM      7  C   UNL     1      -3.253  -6.216  -1.901  0.00  0.00    +0.156 A 
BRANCH   4   8
ATOM      8  C   UNL     1      -4.569  -7.284  -5.755  0.00  0.00    -0.016 A 
ATOM      9  C   UNL     1      -4.005  -6.696  -6.899  0.00  0.00    +0.009 A 
ATOM     10  C   UNL     1      -4.427  -7.041  -8.143  0.00  0.00    +0.010 A 
ATOM     11  C   UNL     1      -5.442  -8.000  -8.296  0.00  0.00    +0.000 A 
ATOM     12  C   UNL     1      -5.911  -8.388  -9.561  0.00  0.00    +0.119 A 
ATOM     13  N   UNL     1      -6.861  -9.289  -9.660  0.00  0.00    -0.263 NA
ATOM     14  C   UNL     1      -7.416  -9.866  -8.603  0.00  0.00    +0.111 A 
ATOM     15  C   UNL     1      -7.033  -9.559  -7.333  0.00  0.00    +0.028 A 
ATOM     16  C   UNL     1      -6.018  -8.601  -7.146  0.00  0.00    -0.014 A 
ATOM     17  C   UNL     1      -5.566  -8.236  -5.872  0.00  0.00    +0.017 A 
ENDBRANCH   4   8
ENDBRANCH   1   2
BRANCH   1  18
ATOM     18  C   UNL     1      -1.311  -4.376  -1.458  0.00  0.00    +0.213 C 
BRANCH  18  19
ATOM     19  C   UNL     1      -0.207  -3.317  -1.450  0.00  0.00    -0.033 C 
BRANCH  19  20
ATOM     20  N   UNL     1      -0.737  -2.054  -1.983  0.00  0.00    +0.382 N 
ATOM     21  H   UNL     1      -0.009  -1.356  -1.978  0.00  0.00    -0.089 HD
ATOM     22  H   UNL     1      -1.059  -2.197  -2.928  0.00  0.00    -0.089 HD
ATOM     23  H   UNL     1      -1.506  -1.743  -1.409  0.00  0.00    -0.089 HD
ENDBRANCH  19  20
BRANCH  19  24
ATOM     24  C   UNL     1       0.282  -3.100  -0.017  0.00  0.00    +0.023 C 
BRANCH  24  31
ATOM     25  C   UNL     1      -0.016   1.355   0.009  0.00  0.00    +0.001 A 
ATOM     26  C   UNL     1       1.157   2.097   0.002  0.00  0.00    +0.001 A 
ATOM     27  C   UNL     1       2.374   1.445  -0.013  0.00  0.00    +0.015 A 
ATOM     28  C   UNL     1       2.406   0.067  -0.020  0.00  0.00    +0.020 A 
ATOM     29  C   UNL     1       1.228  -0.711  -0.013  0.00  0.00    -0.008 A 
ATOM     30  C   UNL     1       0.002  -0.004   0.002  0.00  0.00    +0.009 A 
ATOM     31  C   UNL     1       1.451  -2.149  -0.023  0.00  0.00    -0.034 A 
ATOM     32  C   UNL     1       2.706  -2.619  -0.038  0.00  0.00    +0.050 A 
ATOM     33  S   UNL     1       3.704  -1.142  -0.039  0.00  0.00    -0.096 S 
ENDBRANCH  24  31
ENDBRANCH  19  24
ENDBRANCH  18  19
ENDBRANCH   1  18
TORSDOF 7
