REMARK  Name = CHEMBL574290
REMARK  8 active torsions:
REMARK  status: ('A' for Active; 'I' for Inactive)
REMARK    1  A    between atoms: C_1  and  N_2
REMARK    2  A    between atoms: C_4  and  C_11
REMARK    3  A    between atoms: C_11  and  C_12
REMARK    4  A    between atoms: C_11  and  O_14
REMARK    5  A    between atoms: C_12  and  N_13
REMARK    6  A    between atoms: O_14  and  C_15
REMARK    7  A    between atoms: C_17  and  C_21
REMARK    8  A    between atoms: C_22  and  C_23
REMARK                            x       y       z     vdW  Elec       q    Type
REMARK                         _______ _______ _______ _____ _____    ______ ____
ROOT
ATOM      1  C   UNL     1       0.048  -3.254  -1.716  0.00  0.00    +0.188 C 
ENDROOT
BRANCH   1   5
ATOM      2  C   UNL     1       0.210   1.437   0.082  0.00  0.00    +0.149 C 
ATOM      3  N   UNL     1       0.172  -0.028   0.053  0.00  0.00    -0.349 N 
ATOM      4  C   UNL     1       0.126  -0.790  -1.082  0.00  0.00    +0.093 A 
ATOM      5  C   UNL     1       0.100  -2.093  -0.758  0.00  0.00    +0.016 A 
ATOM      6  C   UNL     1       0.133  -2.171   0.705  0.00  0.00    +0.006 A 
ATOM      7  C   UNL     1       0.184  -0.841   1.164  0.00  0.00    +0.049 A 
ATOM      8  C   UNL     1       0.229  -0.594   2.532  0.00  0.00    +0.026 A 
ATOM      9  C   UNL     1       0.228  -1.649   3.418  0.00  0.00    +0.002 A 
ATOM     10  C   UNL     1       0.181  -2.958   2.960  0.00  0.00    +0.001 A 
ATOM     11  C   UNL     1       0.128  -3.224   1.621  0.00  0.00    +0.010 A 
ENDBRANCH   1   5
BRANCH   1  12
ATOM     12  C   UNL     1      -1.406  -3.690  -1.909  0.00  0.00    -0.036 C 
BRANCH  12  13
ATOM     13  N   UNL     1      -1.448  -4.896  -2.748  0.00  0.00    +0.381 N 
ATOM     14  H   UNL     1      -1.035  -4.695  -3.647  0.00  0.00    -0.090 HD
ATOM     15  H   UNL     1      -0.932  -5.637  -2.298  0.00  0.00    -0.090 HD
ATOM     16  H   UNL     1      -2.407  -5.183  -2.876  0.00  0.00    -0.090 HD
ENDBRANCH  12  13
ENDBRANCH   1  12
BRANCH   1  17
ATOM     17  O   UNL     1       0.598  -2.859  -2.974  0.00  0.00    -0.485 OA
BRANCH  17  18
ATOM     18  C   UNL     1       1.343  -3.781  -3.639  0.00  0.00    +0.140 A 
ATOM     19  C   UNL     1       1.447  -5.079  -3.158  0.00  0.00    +0.056 A 
ATOM     20  C   UNL     1       2.227  -5.992  -3.879  0.00  0.00    -0.003 A 
ATOM     21  C   UNL     1       2.864  -5.562  -5.046  0.00  0.00    +0.118 A 
ATOM     22  N   UNL     1       2.736  -4.320  -5.463  0.00  0.00    -0.259 NA
ATOM     23  C   UNL     1       2.004  -3.437  -4.811  0.00  0.00    +0.156 A 
BRANCH  20  24
ATOM     24  C   UNL     1       2.373  -7.383  -3.414  0.00  0.00    +0.010 C 
ATOM     25  C   UNL     1       3.123  -8.249  -4.114  0.00  0.00    +0.008 C 
BRANCH  25  26
ATOM     26  C   UNL     1       3.269  -9.640  -3.649  0.00  0.00    -0.022 A 
ATOM     27  C   UNL     1       2.630 -10.081  -2.483  0.00  0.00    +0.027 A 
ATOM     28  C   UNL     1       2.795 -11.391  -2.085  0.00  0.00    +0.111 A 
ATOM     29  N   UNL     1       3.542 -12.223  -2.786  0.00  0.00    -0.263 NA
ATOM     30  C   UNL     1       4.162 -11.850  -3.889  0.00  0.00    +0.111 A 
ATOM     31  C   UNL     1       4.048 -10.561  -4.364  0.00  0.00    +0.027 A 
ENDBRANCH  25  26
ENDBRANCH  20  24
ENDBRANCH  17  18
ENDBRANCH   1  17
TORSDOF 7
