REMARK  Name = CHEMBL226381
REMARK  8 active torsions:
REMARK  status: ('A' for Active; 'I' for Inactive)
REMARK    1  A    between atoms: C_1  and  C_2
REMARK    2  A    between atoms: C_5  and  C_13
REMARK    3  A    between atoms: C_15  and  O_19
REMARK    4  A    between atoms: O_19  and  C_20
REMARK    5  A    between atoms: C_20  and  C_21
REMARK    6  A    between atoms: C_21  and  C_23
REMARK    7  A    between atoms: C_21  and  N_30
REMARK    8  A    between atoms: C_23  and  C_24
REMARK                            x       y       z     vdW  Elec       q    Type
REMARK                         _______ _______ _______ _____ _____    ______ ____
ROOT
ATOM      1  C   UNL     1       0.069  -1.548   4.797  0.00  0.00    +0.023 A 
ATOM      2  C   UNL     1       0.098  -2.649   5.656  0.00  0.00    +0.058 A 
ATOM      3  C   UNL     1       0.108  -2.416   7.025  0.00  0.00    +0.139 A 
ATOM      4  C   UNL     1       0.090  -1.107   7.489  0.00  0.00    +0.156 A 
ATOM      5  N   UNL     1       0.062  -0.091   6.650  0.00  0.00    -0.259 NA
ATOM      6  C   UNL     1       0.057  -0.266   5.344  0.00  0.00    +0.121 A 
ENDROOT
BRANCH   1  11
ATOM      7  C   UNL     1       1.741   1.081   0.051  0.00  0.00    +0.065 C 
ATOM      8  C   UNL     1       1.040  -0.253   0.026  0.00  0.00    +0.041 A 
ATOM      9  C   UNL     1       0.601  -0.961   1.126  0.00  0.00    +0.026 A 
ATOM     10  C   UNL     1       0.617  -0.769   2.524  0.00  0.00    +0.041 A 
ATOM     11  C   UNL     1       0.057  -1.739   3.327  0.00  0.00    +0.094 A 
ATOM     12  N   UNL     1      -0.496  -2.848   2.824  0.00  0.00    -0.137 N 
ATOM     13  O   UNL     1      -1.047  -3.791   3.725  0.00  0.00    -0.164 OA
ATOM     14  C   UNL     1      -0.555  -3.108   1.543  0.00  0.00    +0.164 A 
ATOM     15  C   UNL     1      -0.018  -2.196   0.610  0.00  0.00    +0.112 A 
ATOM     16  N   UNL     1       0.087  -2.150  -0.704  0.00  0.00    -0.172 NA
ATOM     17  H   UNL     1       0.921  -0.690  -1.981  0.00  0.00    +0.189 HD
ATOM     18  N   UNL     1       0.728  -0.961  -1.069  0.00  0.00    -0.281 N 
ENDBRANCH   1  11
BRANCH   3  19
ATOM     19  O   UNL     1       0.136  -3.455   7.900  0.00  0.00    -0.492 OA
BRANCH  19  20
ATOM     20  C   UNL     1       0.145  -3.132   9.292  0.00  0.00    +0.213 C 
BRANCH  20  21
ATOM     21  C   UNL     1       0.177  -4.421  10.115  0.00  0.00    -0.033 C 
BRANCH  21  22
ATOM     22  N   UNL     1       1.442  -5.127   9.872  0.00  0.00    +0.382 N 
ATOM     23  H   UNL     1       2.214  -4.536  10.143  0.00  0.00    -0.089 HD
ATOM     24  H   UNL     1       1.463  -5.977  10.415  0.00  0.00    -0.089 HD
ATOM     25  H   UNL     1       1.518  -5.352   8.892  0.00  0.00    -0.089 HD
ENDBRANCH  21  22
BRANCH  21  26
ATOM     26  C   UNL     1       0.061  -4.080  11.602  0.00  0.00    +0.022 C 
BRANCH  26  27
ATOM     27  C   UNL     1      -0.032  -5.352  12.404  0.00  0.00    -0.049 A 
ATOM     28  C   UNL     1      -1.267  -5.915  12.668  0.00  0.00    +0.003 A 
ATOM     29  C   UNL     1      -1.352  -7.082  13.404  0.00  0.00    +0.000 A 
ATOM     30  C   UNL     1      -0.202  -7.687  13.875  0.00  0.00    +0.000 A 
ATOM     31  C   UNL     1       1.033  -7.126  13.610  0.00  0.00    +0.000 A 
ATOM     32  C   UNL     1       1.119  -5.961  12.870  0.00  0.00    +0.003 A 
ENDBRANCH  26  27
ENDBRANCH  21  26
ENDBRANCH  20  21
ENDBRANCH  19  20
ENDBRANCH   3  19
TORSDOF 7
