REMARK  Name = CHEMBL1173349
REMARK  2 active torsions:
REMARK  status: ('A' for Active; 'I' for Inactive)
REMARK    1  A    between atoms: C_10  and  N_11
REMARK    2  A    between atoms: C_15  and  N_17
REMARK                            x       y       z     vdW  Elec       q    Type
REMARK                         _______ _______ _______ _____ _____    ______ ____
ROOT
ATOM      1  C   UNL     1       2.761  -0.857  -3.328  0.00  0.00    +0.105 A 
ATOM      2  C   UNL     1       3.441   0.078  -2.643  0.00  0.00    +0.071 A 
ATOM      3  C   UNL     1       3.139  -0.131  -1.228  0.00  0.00    +0.077 A 
ATOM      4  C   UNL     1       2.260  -1.228  -1.172  0.00  0.00    +0.145 A 
ATOM      5  N   UNL     1       2.050  -1.645  -2.458  0.00  0.00    -0.344 N 
ATOM      6  H   UNL     1       1.483  -2.388  -2.717  0.00  0.00    +0.167 HD
ATOM      7  N   UNL     1       1.823  -1.634   0.019  0.00  0.00    -0.218 NA
ATOM      8  C   UNL     1       2.205  -1.022   1.119  0.00  0.00    +0.225 A 
ATOM      9  N   UNL     1       3.029   0.011   1.112  0.00  0.00    -0.220 NA
ATOM     10  C   UNL     1       3.519   0.489  -0.029  0.00  0.00    +0.135 A 
ATOM     11 CL   UNL     1       4.479   1.300  -3.310  0.00  0.00    -0.081 Cl
ENDROOT
BRANCH  10  12
ATOM     12  N   UNL     1       4.381   1.570  -0.031  0.00  0.00    -0.316 N 
ATOM     13  C   UNL     1       3.862   2.942  -0.124  0.00  0.00    +0.106 C 
ATOM     14  C   UNL     1       4.428   3.763   1.039  0.00  0.00    +0.017 C 
ATOM     15  C   UNL     1       5.955   3.667   1.031  0.00  0.00    -0.013 C 
ATOM     16  C   UNL     1       6.377   2.208   1.220  0.00  0.00    -0.057 C 
ATOM     17  C   UNL     1       5.834   1.370   0.064  0.00  0.00    +0.090 C 
BRANCH  16  18
ATOM     18  N   UNL     1       7.843   2.121   1.243  0.00  0.00    +0.381 N 
ATOM     19  H   UNL     1       8.201   2.675   2.007  0.00  0.00    -0.090 HD
ATOM     20  H   UNL     1       8.121   1.159   1.367  0.00  0.00    -0.090 HD
ATOM     21  H   UNL     1       8.215   2.469   0.372  0.00  0.00    -0.090 HD
ENDBRANCH  16  18
ENDBRANCH  10  12
TORSDOF 2
