REMARK  Name = CHEMBL595349
REMARK  11 active torsions:
REMARK  status: ('A' for Active; 'I' for Inactive)
REMARK    1  A    between atoms: C_3  and  O_22
REMARK    2  A    between atoms: C_4  and  O_17
REMARK    3  A    between atoms: C_5  and  O_12
REMARK    4  A    between atoms: C_6  and  O_7
REMARK    5  A    between atoms: O_7  and  P_8
REMARK    6  A    between atoms: P_8  and  O_11
REMARK    7  A    between atoms: O_12  and  P_13
REMARK    8  A    between atoms: O_17  and  P_18
REMARK    9  A    between atoms: P_18  and  O_21
REMARK   10  A    between atoms: O_22  and  P_23
REMARK   11  A    between atoms: P_23  and  O_26
REMARK                            x       y       z     vdW  Elec       q    Type
REMARK                         _______ _______ _______ _____ _____    ______ ____
ROOT
ATOM      1  C   UNL     1       0.620   1.239   0.245  0.00  0.00    +0.054 A 
ATOM      2  C   UNL     1       1.963   1.550   0.359  0.00  0.00    +0.054 A 
ATOM      3  C   UNL     1       2.919   0.552   0.261  0.00  0.00    +0.178 A 
ATOM      4  C   UNL     1       2.529  -0.766   0.048  0.00  0.00    +0.220 A 
ATOM      5  C   UNL     1       1.181  -1.078  -0.067  0.00  0.00    +0.220 A 
ATOM      6  C   UNL     1       0.226  -0.072   0.032  0.00  0.00    +0.178 A 
ENDROOT
BRANCH   6   7
ATOM      7  O   UNL     1      -1.096  -0.376  -0.080  0.00  0.00    -0.399 OA
BRANCH   7   8
ATOM      8  P   UNL     1      -1.748   0.051  -1.488  0.00  0.00    +0.558 P 
ATOM      9  O   UNL     1      -1.503   1.556  -1.734  0.00  0.00    -0.213 OA
ATOM     10  O   UNL     1      -1.100  -0.769  -2.626  0.00  0.00    -0.106 OA
BRANCH   8  11
ATOM     11  O   UNL     1      -3.332  -0.236  -1.455  0.00  0.00    -0.291 OA
ATOM     12  H   UNL     1      -3.792  -0.002  -2.273  0.00  0.00    +0.223 HD
ENDBRANCH   8  11
ENDBRANCH   7   8
ENDBRANCH   6   7
BRANCH   5  13
ATOM     13  O   UNL     1       0.795  -2.366  -0.276  0.00  0.00    -0.393 OA
BRANCH  13  14
ATOM     14  P   UNL     1       0.471  -3.181   1.075  0.00  0.00    +0.589 P 
ATOM     15  O   UNL     1       1.702  -3.102   2.040  0.00  0.00    -0.211 OA
ATOM     16  O   UNL     1      -0.782  -2.554   1.774  0.00  0.00    -0.104 OA
ATOM     17  O   UNL     1       0.178  -4.679   0.724  0.00  0.00    -0.104 OA
ENDBRANCH  13  14
ENDBRANCH   5  13
BRANCH   4  18
ATOM     18  O   UNL     1       3.467  -1.747  -0.050  0.00  0.00    -0.395 OA
BRANCH  18  19
ATOM     19  P   UNL     1       4.043  -1.958  -1.538  0.00  0.00    +0.558 P 
ATOM     20  O   UNL     1       2.872  -2.235  -2.508  0.00  0.00    -0.213 OA
ATOM     21  O   UNL     1       4.792  -0.683  -1.986  0.00  0.00    -0.106 OA
BRANCH  19  22
ATOM     22  O   UNL     1       5.056  -3.208  -1.550  0.00  0.00    -0.291 OA
ATOM     23  H   UNL     1       5.442  -3.394  -2.417  0.00  0.00    +0.223 HD
ENDBRANCH  19  22
ENDBRANCH  18  19
ENDBRANCH   4  18
BRANCH   3  24
ATOM     24  O   UNL     1       4.239   0.861   0.373  0.00  0.00    -0.399 OA
BRANCH  24  25
ATOM     25  P   UNL     1       4.717   1.158   1.881  0.00  0.00    +0.558 P 
ATOM     26  O   UNL     1       3.856   2.294   2.479  0.00  0.00    -0.213 OA
ATOM     27  O   UNL     1       4.551  -0.118   2.735  0.00  0.00    -0.106 OA
BRANCH  25  28
ATOM     28  O   UNL     1       6.264   1.603   1.877  0.00  0.00    -0.291 OA
ATOM     29  H   UNL     1       6.620   1.799   2.755  0.00  0.00    +0.223 HD
ENDBRANCH  25  28
ENDBRANCH  24  25
ENDBRANCH   3  24
TORSDOF 11
