REMARK  Name = CHEMBL603852
REMARK  7 active torsions:
REMARK  status: ('A' for Active; 'I' for Inactive)
REMARK    1  A    between atoms: C_1  and  C_2
REMARK    2  A    between atoms: C_7  and  N_8
REMARK    3  A    between atoms: N_9  and  C_10
REMARK    4  A    between atoms: C_13  and  S_16
REMARK    5  A    between atoms: S_16  and  N_19
REMARK    6  A    between atoms: N_19  and  C_20
REMARK    7  A    between atoms: C_26  and  C_28
REMARK                            x       y       z     vdW  Elec       q    Type
REMARK                         _______ _______ _______ _____ _____    ______ ____
ROOT
ATOM      1  N   UNL     1      -1.258  -0.750   2.030  0.00  0.00    -0.168 NA
ATOM      2  N   UNL     1      -1.365  -1.343   3.114  0.00  0.00    -0.154 NA
ENDROOT
BRANCH   1   9
ATOM      3  C   UNL     1      -0.148   1.496   0.020  0.00  0.00    +0.065 C 
ATOM      4  C   UNL     1      -0.088  -0.010   0.008  0.00  0.00    +0.070 C 
ATOM      5  N   UNL     1      -0.057  -0.759  -1.024  0.00  0.00    -0.176 NA
ATOM      6  N   UNL     1      -0.003  -2.114  -0.715  0.00  0.00    -0.121 N 
ATOM      7  C   UNL     1       0.002  -2.309   0.620  0.00  0.00    +0.274 C 
ATOM      8  O   UNL     1       0.042  -3.367   1.212  0.00  0.00    -0.271 OA
ATOM      9  C   UNL     1      -0.048  -0.917   1.220  0.00  0.00    +0.261 C 
ATOM     10  C   UNL     1       0.037  -3.103  -1.630  0.00  0.00    +0.273 C 
ATOM     11  O   UNL     1       0.174  -4.257  -1.272  0.00  0.00    -0.268 OA
BRANCH  10  12
ATOM     12  C   UNL     1      -0.084  -2.785  -3.067  0.00  0.00    +0.039 A 
ATOM     13  C   UNL     1      -0.097  -1.455  -3.492  0.00  0.00    +0.014 A 
ATOM     14  C   UNL     1      -0.210  -1.165  -4.835  0.00  0.00    +0.021 A 
ATOM     15  C   UNL     1      -0.310  -2.189  -5.762  0.00  0.00    +0.041 A 
ATOM     16  C   UNL     1      -0.296  -3.511  -5.347  0.00  0.00    +0.021 A 
ATOM     17  C   UNL     1      -0.179  -3.814  -4.007  0.00  0.00    +0.014 A 
ATOM     18 CL   UNL     1      -0.452  -1.816  -7.451  0.00  0.00    -0.084 Cl
ENDBRANCH  10  12
ENDBRANCH   1   9
BRANCH   2  19
ATOM     19  C   UNL     1      -2.496  -1.187   3.871  0.00  0.00    +0.086 A 
ATOM     20  C   UNL     1      -3.533  -0.366   3.422  0.00  0.00    +0.031 A 
ATOM     21  C   UNL     1      -4.669  -0.213   4.189  0.00  0.00    +0.031 A 
ATOM     22  C   UNL     1      -4.783  -0.871   5.401  0.00  0.00    +0.111 A 
ATOM     23  C   UNL     1      -3.760  -1.686   5.852  0.00  0.00    +0.031 A 
ATOM     24  C   UNL     1      -2.620  -1.852   5.092  0.00  0.00    +0.031 A 
BRANCH  22  25
ATOM     25  S   UNL     1      -6.237  -0.669   6.375  0.00  0.00    +0.094 S 
ATOM     26  O   UNL     1      -5.870  -0.957   7.717  0.00  0.00    -0.148 OA
ATOM     27  O   UNL     1      -6.814   0.572   5.992  0.00  0.00    -0.148 OA
BRANCH  25  28
ATOM     28  N   UNL     1      -7.303  -1.849   5.913  0.00  0.00    -0.058 NA
BRANCH  28  29
ATOM     29  C   UNL     1      -8.546  -1.934   6.517  0.00  0.00    +0.257 A 
ATOM     30  N   UNL     1      -8.868  -1.060   7.459  0.00  0.00    -0.220 NA
ATOM     31  C   UNL     1     -10.047  -1.113   8.056  0.00  0.00    +0.116 A 
ATOM     32  C   UNL     1     -10.949  -2.098   7.685  0.00  0.00    +0.039 A 
ATOM     33  C   UNL     1     -10.580  -2.996   6.695  0.00  0.00    +0.116 A 
ATOM     34  N   UNL     1      -9.387  -2.884   6.135  0.00  0.00    -0.220 NA
ENDBRANCH  28  29
ENDBRANCH  25  28
ENDBRANCH  22  25
ENDBRANCH   2  19
TORSDOF 6
