REMARK  Name = CHEMBL521658
REMARK  11 active torsions:
REMARK  status: ('A' for Active; 'I' for Inactive)
REMARK    1  A    between atoms: C_1  and  C_2
REMARK    2  A    between atoms: C_2  and  N_3
REMARK    3  A    between atoms: C_5  and  O_24
REMARK    4  A    between atoms: C_8  and  C_18
REMARK    5  A    between atoms: C_11  and  C_12
REMARK    6  A    between atoms: C_19  and  C_20
REMARK    7  A    between atoms: C_20  and  C_21
REMARK    8  A    between atoms: C_20  and  C_22
REMARK    9  A    between atoms: C_20  and  O_23
REMARK   10  A    between atoms: O_24  and  C_25
REMARK   11  A    between atoms: C_25  and  C_26
REMARK                            x       y       z     vdW  Elec       q    Type
REMARK                         _______ _______ _______ _____ _____    ______ ____
ROOT
ATOM      1  N   UNL     1      -1.372  -0.511   0.012  0.00  0.00    -0.319 N 
ATOM      2  C   UNL     1      -2.131  -0.795   1.125  0.00  0.00    +0.116 A 
ATOM      3  C   UNL     1      -1.927  -0.725   2.503  0.00  0.00    +0.164 A 
ATOM      4  C   UNL     1      -2.952  -1.105   3.353  0.00  0.00    +0.160 A 
ATOM      5  N   UNL     1      -4.111  -1.531   2.885  0.00  0.00    -0.241 NA
ATOM      6  C   UNL     1      -4.362  -1.619   1.586  0.00  0.00    +0.141 A 
ATOM      7  C   UNL     1      -3.374  -1.251   0.648  0.00  0.00    +0.127 A 
ATOM      8  N   UNL     1      -3.320  -1.226  -0.695  0.00  0.00    -0.223 NA
ATOM      9  C   UNL     1      -2.147  -0.787  -1.083  0.00  0.00    +0.167 A 
ENDROOT
BRANCH   9  10
ATOM     10  C   UNL     1      -1.724  -0.618  -2.490  0.00  0.00    +0.190 A 
ATOM     11  C   UNL     1      -2.542  -0.902  -3.675  0.00  0.00    +0.191 A 
ATOM     12  N   UNL     1      -1.833  -0.633  -4.737  0.00  0.00    -0.033 NA
ATOM     13  O   UNL     1      -0.563  -0.176  -4.310  0.00  0.00    -0.240 OA
ATOM     14  N   UNL     1      -0.557  -0.184  -2.893  0.00  0.00    -0.044 NA
ATOM     15  N   UNL     1      -3.847  -1.377  -3.668  0.00  0.00    -0.339 N 
ATOM     16  H   UNL     1      -4.295  -1.549  -2.825  0.00  0.00    +0.144 HD
ATOM     17  H   UNL     1      -4.310  -1.536  -4.505  0.00  0.00    +0.144 HD
ENDBRANCH   9  10
BRANCH   1  19
ATOM     18  C   UNL     1      -0.019   1.526   0.010  0.00  0.00    +0.027 C 
ATOM     19  C   UNL     1       0.002  -0.004   0.002  0.00  0.00    +0.120 C 
ENDBRANCH   1  19
BRANCH   6  20
ATOM     20  C   UNL     1      -5.637  -2.088   1.134  0.00  0.00    -0.041 C 
ATOM     21  C   UNL     1      -6.682  -2.473   0.764  0.00  0.00    -0.061 C 
BRANCH  21  22
ATOM     22  C   UNL     1      -7.993  -2.955   0.300  0.00  0.00    +0.121 C 
ATOM     23  C   UNL     1      -8.022  -2.961  -1.230  0.00  0.00    +0.055 C 
ATOM     24  C   UNL     1      -8.227  -4.375   0.819  0.00  0.00    +0.055 C 
BRANCH  22  25
ATOM     25  O   UNL     1      -9.020  -2.093   0.793  0.00  0.00    -0.377 OA
ATOM     26  H   UNL     1      -9.913  -2.351   0.525  0.00  0.00    +0.211 HD
ENDBRANCH  22  25
ENDBRANCH  21  22
ENDBRANCH   6  20
BRANCH   3  27
ATOM     27  O   UNL     1      -0.741  -0.290   3.004  0.00  0.00    -0.488 OA
BRANCH  27  28
ATOM     28  C   UNL     1      -0.613  -0.248   4.426  0.00  0.00    +0.232 C 
BRANCH  28  29
ATOM     29  C   UNL     1       0.780   0.264   4.799  0.00  0.00    +0.023 C 
ATOM     30  C   UNL     1       1.836  -0.744   4.337  0.00  0.00    -0.012 C 
ATOM     31  C   UNL     1       3.219  -0.266   4.782  0.00  0.00    -0.082 C 
ATOM     32  N   UNL     1       3.255  -0.154   6.245  0.00  0.00    +0.379 N 
ATOM     33  C   UNL     1       2.295   0.863   6.690  0.00  0.00    -0.082 C 
ATOM     34  C   UNL     1       0.876   0.428   6.319  0.00  0.00    -0.012 C 
ATOM     35  H   UNL     1       3.015  -1.044   6.655  0.00  0.00    -0.086 HD
ATOM     36  H   UNL     1       4.183   0.110   6.539  0.00  0.00    -0.086 HD
ENDBRANCH  28  29
ENDBRANCH  27  28
ENDBRANCH   3  27
TORSDOF 8
