REMARK  Name = CHEMBL428963
REMARK  3 active torsions:
REMARK  status: ('A' for Active; 'I' for Inactive)
REMARK    1  A    between atoms: C_1  and  C_2
REMARK    2  A    between atoms: C_5  and  C_8
REMARK    3  A    between atoms: C_13  and  N_14
REMARK                            x       y       z     vdW  Elec       q    Type
REMARK                         _______ _______ _______ _____ _____    ______ ____
ROOT
ATOM      1  C   UNL     1      -3.836   2.758  -3.036  0.00  0.00    +0.042 A 
ATOM      2  C   UNL     1      -4.951   2.816  -2.204  0.00  0.00    +0.013 A 
ATOM      3  C   UNL     1      -6.078   3.502  -2.609  0.00  0.00    +0.001 A 
ATOM      4  C   UNL     1      -6.106   4.133  -3.841  0.00  0.00    +0.002 A 
ATOM      5  C   UNL     1      -5.007   4.083  -4.675  0.00  0.00    +0.024 A 
ATOM      6  C   UNL     1      -3.864   3.402  -4.279  0.00  0.00    +0.043 A 
ENDROOT
BRANCH   6   7
ATOM      7  N   UNL     1      -2.750   3.354  -5.118  0.00  0.00    -0.298 N 
ATOM      8  C   UNL     1      -2.917   3.373  -6.492  0.00  0.00    +0.135 A 
ATOM      9  C   UNL     1      -1.810   3.450  -7.351  0.00  0.00    +0.059 A 
ATOM     10  C   UNL     1      -0.361   3.524  -7.169  0.00  0.00    +0.032 A 
ATOM     11  C   UNL     1       0.182   3.578  -8.396  0.00  0.00    +0.085 A 
ATOM     12  N   UNL     1      -0.808   3.543  -9.344  0.00  0.00    -0.346 N 
ATOM     13  H   UNL     1      -0.661   3.570 -10.302  0.00  0.00    +0.167 HD
ATOM     14  C   UNL     1      -2.033   3.465  -8.740  0.00  0.00    +0.143 A 
ATOM     15  N   UNL     1      -3.287   3.407  -9.184  0.00  0.00    -0.218 NA
ATOM     16  C   UNL     1      -4.295   3.336  -8.342  0.00  0.00    +0.225 A 
ATOM     17  N   UNL     1      -4.131   3.313  -7.032  0.00  0.00    -0.220 NA
ATOM     18  H   UNL     1      -1.859   3.308  -4.739  0.00  0.00    +0.154 HD
ENDBRANCH   6   7
BRANCH   1  23
ATOM     19  C   UNL     1      -0.682   0.147  -0.184  0.00  0.00    +0.087 C 
ATOM     20  C   UNL     1      -1.260   0.889  -1.361  0.00  0.00    +0.122 A 
ATOM     21  N   UNL     1      -2.438   1.453  -1.407  0.00  0.00    -0.212 NA
ATOM     22  H   UNL     1       0.236   0.788  -2.796  0.00  0.00    +0.190 HD
ATOM     23  C   UNL     1      -2.622   2.022  -2.605  0.00  0.00    +0.183 A 
ATOM     24  N   UNL     1      -1.548   1.821  -3.337  0.00  0.00    -0.152 NA
ATOM     25  N   UNL     1      -0.649   1.090  -2.542  0.00  0.00    -0.262 N 
ENDBRANCH   1  23
TORSDOF 2
