REMARK  Name = CHEMBL470202
REMARK  7 active torsions:
REMARK  status: ('A' for Active; 'I' for Inactive)
REMARK    1  A    between atoms: C_4  and  C_7
REMARK    2  A    between atoms: C_7  and  C_8
REMARK    3  A    between atoms: C_7  and  N_10
REMARK    4  A    between atoms: C_8  and  N_9
REMARK    5  A    between atoms: C_11  and  C_13
REMARK    6  A    between atoms: C_15  and  C_28
REMARK    7  A    between atoms: C_16  and  C_18
REMARK                            x       y       z     vdW  Elec       q    Type
REMARK                         _______ _______ _______ _____ _____    ______ ____
ROOT
ATOM      1  C   UNL     1       4.468  -3.492  -2.437  0.00  0.00    +0.075 A 
ATOM      2  C   UNL     1       5.578  -4.177  -2.900  0.00  0.00    +0.030 A 
ATOM      3  C   UNL     1       5.388  -5.287  -3.691  0.00  0.00    +0.001 A 
ATOM      4  C   UNL     1       4.078  -5.669  -3.990  0.00  0.00    +0.029 A 
ATOM      5  S   UNL     1       3.119  -4.436  -3.126  0.00  0.00    -0.083 S 
ENDROOT
BRANCH   4   6
ATOM      6  C   UNL     1       3.608  -6.802  -4.805  0.00  0.00    +0.001 A 
ATOM      7  C   UNL     1       4.164  -7.069  -6.061  0.00  0.00    +0.029 A 
ATOM      8  C   UNL     1       3.693  -8.143  -6.792  0.00  0.00    +0.114 A 
ATOM      9  N   UNL     1       2.733  -8.923  -6.339  0.00  0.00    -0.237 NA
ATOM     10  C   UNL     1       2.164  -8.725  -5.157  0.00  0.00    +0.139 A 
ATOM     11  C   UNL     1       2.587  -7.658  -4.344  0.00  0.00    +0.027 A 
ATOM     12  C   UNL     1       1.779  -7.721  -3.129  0.00  0.00    +0.029 A 
ATOM     13  C   UNL     1       0.956  -8.775  -3.263  0.00  0.00    +0.085 A 
ATOM     14  N   UNL     1       1.167  -9.380  -4.472  0.00  0.00    -0.346 N 
ATOM     15  H   UNL     1       0.692 -10.162  -4.794  0.00  0.00    +0.167 HD
ENDBRANCH   4   6
BRANCH   3  16
ATOM     16  C   UNL     1       6.544  -6.057  -4.214  0.00  0.00    +0.020 A 
ATOM     17  C   UNL     1       7.580  -5.558  -4.947  0.00  0.00    +0.113 A 
ATOM     18  N   UNL     1       8.417  -6.581  -5.221  0.00  0.00    -0.284 N 
ATOM     19  H   UNL     1       9.241  -6.521  -5.729  0.00  0.00    +0.188 HD
ATOM     20  N   UNL     1       7.889  -7.743  -4.645  0.00  0.00    -0.182 NA
ATOM     21  C   UNL     1       6.774  -7.436  -4.037  0.00  0.00    +0.142 A 
ENDBRANCH   3  16
BRANCH   1  23
ATOM     22  N   UNL     1       3.222  -1.774  -1.237  0.00  0.00    -0.306 N 
ATOM     23  C   UNL     1       4.413  -2.296  -1.590  0.00  0.00    +0.251 C 
ATOM     24  O   UNL     1       5.444  -1.776  -1.205  0.00  0.00    -0.270 OA
ATOM     25  H   UNL     1       2.401  -2.189  -1.544  0.00  0.00    +0.150 HD
BRANCH  22  26
ATOM     26  C   UNL     1       3.168  -0.579  -0.391  0.00  0.00    +0.086 C 
BRANCH  26  30
ATOM     27  C   UNL     1      -0.511   1.481  -1.073  0.00  0.00    +0.000 A 
ATOM     28  C   UNL     1       0.661   2.196  -0.907  0.00  0.00    +0.000 A 
ATOM     29  C   UNL     1       1.851   1.529  -0.686  0.00  0.00    +0.005 A 
ATOM     30  C   UNL     1       1.870   0.148  -0.631  0.00  0.00    -0.029 A 
ATOM     31  C   UNL     1       0.698  -0.567  -0.796  0.00  0.00    +0.005 A 
ATOM     32  C   UNL     1      -0.492   0.100  -1.019  0.00  0.00    +0.000 A 
ENDBRANCH  26  30
BRANCH  26  33
ATOM     33  C   UNL     1       3.257  -0.992   1.080  0.00  0.00    -0.059 C 
BRANCH  33  34
ATOM     34  N   UNL     1       4.464  -1.803   1.288  0.00  0.00    +0.380 N 
ATOM     35  H   UNL     1       4.522  -2.075   2.258  0.00  0.00    -0.090 HD
ATOM     36  H   UNL     1       4.418  -2.629   0.710  0.00  0.00    -0.090 HD
ATOM     37  H   UNL     1       5.279  -1.263   1.041  0.00  0.00    -0.090 HD
ENDBRANCH  33  34
ENDBRANCH  26  33
ENDBRANCH  22  26
ENDBRANCH   1  23
TORSDOF 7
