REMARK  Name = CHEMBL470598
REMARK  7 active torsions:
REMARK  status: ('A' for Active; 'I' for Inactive)
REMARK    1  A    between atoms: C_7  and  C_11
REMARK    2  A    between atoms: C_14  and  C_16
REMARK    3  A    between atoms: N_18  and  C_19
REMARK    4  A    between atoms: C_19  and  C_21
REMARK    5  A    between atoms: C_19  and  C_28
REMARK    6  A    between atoms: C_21  and  C_22
REMARK    7  A    between atoms: C_28  and  N_29
REMARK                            x       y       z     vdW  Elec       q    Type
REMARK                         _______ _______ _______ _____ _____    ______ ____
ROOT
ATOM      1  C   UNL     1      -6.104   1.262   0.149  0.00  0.00    +0.251 C 
ATOM      2  O   UNL     1      -7.200   0.735   0.093  0.00  0.00    -0.270 OA
ATOM      3  N   UNL     1      -6.007   2.601   0.266  0.00  0.00    -0.310 N 
ATOM      4  H   UNL     1      -5.134   3.022   0.311  0.00  0.00    +0.149 HD
ENDROOT
BRANCH   1   8
ATOM      5  C   UNL     1      -2.425  -0.653   0.021  0.00  0.00    +0.035 A 
ATOM      6  C   UNL     1      -3.527  -1.490  -0.061  0.00  0.00    +0.033 A 
ATOM      7  C   UNL     1      -4.777  -0.937  -0.026  0.00  0.00    +0.036 A 
ATOM      8  C   UNL     1      -4.892   0.441   0.091  0.00  0.00    +0.075 A 
ATOM      9  S   UNL     1      -3.184   0.957   0.160  0.00  0.00    -0.083 S 
ATOM     10 BR   UNL     1      -3.307  -3.362  -0.221  0.00  0.00    -0.049 Br
BRANCH   5  17
ATOM     11  C   UNL     1      -0.201   0.788  -1.774  0.00  0.00    +0.029 A 
ATOM     12  C   UNL     1       1.031   1.017  -2.260  0.00  0.00    +0.085 A 
ATOM     13  N   UNL     1       1.924   0.150  -1.691  0.00  0.00    -0.346 N 
ATOM     14  H   UNL     1       2.874   0.124  -1.885  0.00  0.00    +0.167 HD
ATOM     15  C   UNL     1       1.276  -0.677  -0.804  0.00  0.00    +0.139 A 
ATOM     16  C   UNL     1      -0.082  -0.311  -0.819  0.00  0.00    +0.027 A 
ATOM     17  C   UNL     1      -0.992  -1.003   0.005  0.00  0.00    +0.002 A 
ATOM     18  C   UNL     1      -0.491  -2.032   0.808  0.00  0.00    +0.029 A 
ATOM     19  C   UNL     1       0.859  -2.326   0.762  0.00  0.00    +0.114 A 
ATOM     20  N   UNL     1       1.687  -1.663  -0.018  0.00  0.00    -0.237 NA
ENDBRANCH   5  17
ENDBRANCH   1   8
BRANCH   3  21
ATOM     21  C   UNL     1      -7.219   3.422   0.324  0.00  0.00    +0.056 C 
BRANCH  21  22
ATOM     22  C   UNL     1      -6.913   4.732   1.052  0.00  0.00    +0.024 C 
BRANCH  22  23
ATOM     23  C   UNL     1      -6.556   4.435   2.509  0.00  0.00    -0.009 C 
ATOM     24  C   UNL     1      -7.775   3.850   3.225  0.00  0.00    +0.003 C 
ATOM     25  C   UNL     1      -7.417   3.552   4.682  0.00  0.00    +0.000 C 
ATOM     26  C   UNL     1      -6.991   4.847   5.377  0.00  0.00    +0.000 C 
ATOM     27  C   UNL     1      -5.771   5.432   4.662  0.00  0.00    +0.000 C 
ATOM     28  C   UNL     1      -6.129   5.730   3.204  0.00  0.00    +0.003 C 
ENDBRANCH  22  23
ENDBRANCH  21  22
BRANCH  21  29
ATOM     29  C   UNL     1      -7.697   3.727  -1.097  0.00  0.00    -0.064 C 
BRANCH  29  30
ATOM     30  N   UNL     1      -7.876   2.469  -1.834  0.00  0.00    +0.379 N 
ATOM     31  H   UNL     1      -6.997   1.975  -1.874  0.00  0.00    -0.090 HD
ATOM     32  H   UNL     1      -8.562   1.899  -1.364  0.00  0.00    -0.090 HD
ATOM     33  H   UNL     1      -8.191   2.671  -2.771  0.00  0.00    -0.090 HD
ENDBRANCH  29  30
ENDBRANCH  21  29
ENDBRANCH   3  21
TORSDOF 7
