REMARK  Name = CHEMBL595349
REMARK  11 active torsions:
REMARK  status: ('A' for Active; 'I' for Inactive)
REMARK    1  A    between atoms: C_3  and  O_22
REMARK    2  A    between atoms: C_4  and  O_17
REMARK    3  A    between atoms: C_5  and  O_12
REMARK    4  A    between atoms: C_6  and  O_7
REMARK    5  A    between atoms: O_7  and  P_8
REMARK    6  A    between atoms: O_12  and  P_13
REMARK    7  A    between atoms: P_13  and  O_16
REMARK    8  A    between atoms: O_17  and  P_18
REMARK    9  A    between atoms: P_18  and  O_21
REMARK   10  A    between atoms: O_22  and  P_23
REMARK   11  A    between atoms: P_23  and  O_26
REMARK                            x       y       z     vdW  Elec       q    Type
REMARK                         _______ _______ _______ _____ _____    ______ ____
ROOT
ATOM      1  C   UNL     1       0.617   1.238   0.242  0.00  0.00    +0.054 A 
ATOM      2  C   UNL     1       1.959   1.553   0.360  0.00  0.00    +0.054 A 
ATOM      3  C   UNL     1       2.918   0.557   0.264  0.00  0.00    +0.178 A 
ATOM      4  C   UNL     1       2.532  -0.761   0.050  0.00  0.00    +0.220 A 
ATOM      5  C   UNL     1       1.185  -1.077  -0.068  0.00  0.00    +0.220 A 
ATOM      6  C   UNL     1       0.227  -0.074   0.029  0.00  0.00    +0.178 A 
ENDROOT
BRANCH   6   7
ATOM      7  O   UNL     1      -1.093  -0.381  -0.087  0.00  0.00    -0.397 OA
BRANCH   7   8
ATOM      8  P   UNL     1      -1.744   0.044  -1.497  0.00  0.00    +0.589 P 
ATOM      9  O   UNL     1      -1.499   1.571  -1.746  0.00  0.00    -0.211 OA
ATOM     10  O   UNL     1      -1.081  -0.786  -2.649  0.00  0.00    -0.104 OA
ATOM     11  O   UNL     1      -3.284  -0.240  -1.468  0.00  0.00    -0.104 OA
ENDBRANCH   7   8
ENDBRANCH   6   7
BRANCH   5  12
ATOM     12  O   UNL     1       0.804  -2.367  -0.278  0.00  0.00    -0.395 OA
BRANCH  12  13
ATOM     13  P   UNL     1       0.478  -3.182   1.071  0.00  0.00    +0.558 P 
ATOM     14  O   UNL     1       1.690  -3.100   2.027  0.00  0.00    -0.213 OA
ATOM     15  O   UNL     1      -0.762  -2.566   1.758  0.00  0.00    -0.106 OA
BRANCH  13  16
ATOM     16  O   UNL     1       0.182  -4.722   0.710  0.00  0.00    -0.291 OA
ATOM     17  H   UNL     1      -0.022  -5.274   1.477  0.00  0.00    +0.223 HD
ENDBRANCH  13  16
ENDBRANCH  12  13
ENDBRANCH   5  12
BRANCH   4  18
ATOM     18  O   UNL     1       3.473  -1.740  -0.045  0.00  0.00    -0.395 OA
BRANCH  18  19
ATOM     19  P   UNL     1       4.053  -1.949  -1.533  0.00  0.00    +0.558 P 
ATOM     20  O   UNL     1       2.885  -2.229  -2.506  0.00  0.00    -0.213 OA
ATOM     21  O   UNL     1       4.800  -0.672  -1.979  0.00  0.00    -0.106 OA
BRANCH  19  22
ATOM     22  O   UNL     1       5.070  -3.197  -1.542  0.00  0.00    -0.291 OA
ATOM     23  H   UNL     1       5.459  -3.381  -2.408  0.00  0.00    +0.223 HD
ENDBRANCH  19  22
ENDBRANCH  18  19
ENDBRANCH   4  18
BRANCH   3  24
ATOM     24  O   UNL     1       4.237   0.870   0.379  0.00  0.00    -0.399 OA
BRANCH  24  25
ATOM     25  P   UNL     1       4.710   1.169   1.889  0.00  0.00    +0.558 P 
ATOM     26  O   UNL     1       3.845   2.302   2.485  0.00  0.00    -0.213 OA
ATOM     27  O   UNL     1       4.545  -0.108   2.742  0.00  0.00    -0.106 OA
BRANCH  25  28
ATOM     28  O   UNL     1       6.256   1.618   1.888  0.00  0.00    -0.291 OA
ATOM     29  H   UNL     1       6.609   1.815   2.767  0.00  0.00    +0.223 HD
ENDBRANCH  25  28
ENDBRANCH  24  25
ENDBRANCH   3  24
TORSDOF 11
