REMARK  Name = CHEMBL180231
REMARK  5 active torsions:
REMARK  status: ('A' for Active; 'I' for Inactive)
REMARK    1  A    between atoms: C_4  and  C_7
REMARK    2  A    between atoms: C_8  and  C_21
REMARK    3  A    between atoms: C_24  and  C_27
REMARK    4  A    between atoms: C_27  and  N_28
REMARK    5  A    between atoms: C_31  and  N_34
REMARK                            x       y       z     vdW  Elec       q    Type
REMARK                         _______ _______ _______ _____ _____    ______ ____
ROOT
ATOM      1  C   UNL     1       2.740  -2.396   1.592  0.00  0.00    +0.002 A 
ATOM      2  C   UNL     1       1.805  -1.501   2.113  0.00  0.00    +0.010 A 
ATOM      3  C   UNL     1       0.759  -1.971   2.881  0.00  0.00    +0.002 A 
ATOM      4  C   UNL     1       0.637  -3.325   3.134  0.00  0.00    -0.064 A 
ATOM      5  C   UNL     1       1.562  -4.217   2.620  0.00  0.00    +0.002 A 
ATOM      6  C   UNL     1       2.609  -3.761   1.846  0.00  0.00    +0.010 A 
ENDROOT
BRANCH   1   8
ATOM      7  C   UNL     1       3.616  -0.905  -0.280  0.00  0.00    +0.098 A 
ATOM      8  C   UNL     1       3.865  -1.898   0.767  0.00  0.00    +0.098 A 
ATOM      9  N   UNL     1       5.083  -2.352   0.980  0.00  0.00    -0.243 NA
ATOM     10  C   UNL     1       6.106  -1.903   0.233  0.00  0.00    +0.091 A 
ATOM     11  C   UNL     1       7.394  -2.379   0.454  0.00  0.00    +0.041 A 
ATOM     12  C   UNL     1       8.455  -1.906  -0.329  0.00  0.00    +0.022 A 
ATOM     13  C   UNL     1       9.819  -2.173  -0.361  0.00  0.00    +0.113 A 
ATOM     14  N   UNL     1      10.363  -1.424  -1.326  0.00  0.00    -0.284 N 
ATOM     15  N   UNL     1       9.377  -0.651  -1.949  0.00  0.00    -0.174 NA
ATOM     16  H   UNL     1      11.304  -1.417  -1.560  0.00  0.00    +0.188 HD
ATOM     17  C   UNL     1       8.205  -0.907  -1.382  0.00  0.00    +0.095 A 
ATOM     18  C   UNL     1       6.904  -0.432  -1.598  0.00  0.00    +0.060 A 
ATOM     19  C   UNL     1       5.856  -0.906  -0.818  0.00  0.00    +0.092 A 
ATOM     20  N   UNL     1       4.606  -0.458  -1.024  0.00  0.00    -0.243 NA
BRANCH   7  24
ATOM     21  C   UNL     1      -0.331   0.530  -0.931  0.00  0.00    +0.000 A 
ATOM     22  C   UNL     1       0.727   1.420  -0.888  0.00  0.00    +0.001 A 
ATOM     23  C   UNL     1       2.011   0.960  -0.677  0.00  0.00    +0.010 A 
ATOM     24  C   UNL     1       2.241  -0.405  -0.506  0.00  0.00    +0.002 A 
ATOM     25  C   UNL     1       1.169  -1.298  -0.551  0.00  0.00    +0.010 A 
ATOM     26  C   UNL     1      -0.110  -0.826  -0.763  0.00  0.00    +0.001 A 
ENDBRANCH   7  24
ENDBRANCH   1   8
BRANCH   4  27
ATOM     27  C   UNL     1      -0.507  -3.832   3.974  0.00  0.00    -0.043 C 
BRANCH  27  28
ATOM     28  N   UNL     1      -1.652  -4.140   3.107  0.00  0.00    +0.382 N 
ATOM     29  C   UNL     1      -2.136  -2.904   2.480  0.00  0.00    -0.076 C 
ATOM     30  C   UNL     1      -3.277  -3.230   1.514  0.00  0.00    +0.006 C 
ATOM     31  C   UNL     1      -4.420  -3.894   2.287  0.00  0.00    +0.089 C 
ATOM     32  C   UNL     1      -3.886  -5.141   2.997  0.00  0.00    +0.006 C 
ATOM     33  C   UNL     1      -2.723  -4.744   3.909  0.00  0.00    -0.076 C 
ATOM     34  H   UNL     1      -1.364  -4.788   2.389  0.00  0.00    -0.081 HD
BRANCH  31  35
ATOM     35  N   UNL     1      -5.483  -4.278   1.356  0.00  0.00    -0.289 N 
ATOM     36  C   UNL     1      -6.799  -3.821   1.388  0.00  0.00    +0.070 A 
ATOM     37  C   UNL     1      -7.482  -2.945   2.217  0.00  0.00    +0.028 A 
ATOM     38  C   UNL     1      -8.819  -2.685   1.990  0.00  0.00    +0.002 A 
ATOM     39  C   UNL     1      -9.480  -3.296   0.939  0.00  0.00    +0.002 A 
ATOM     40  C   UNL     1      -8.809  -4.170   0.108  0.00  0.00    +0.028 A 
ATOM     41  C   UNL     1      -7.466  -4.437   0.327  0.00  0.00    +0.067 A 
ATOM     42  N   UNL     1      -6.535  -5.249  -0.317  0.00  0.00    -0.306 N 
ATOM     43  H   UNL     1      -6.706  -5.804  -1.093  0.00  0.00    +0.170 HD
ATOM     44  C   UNL     1      -5.354  -5.128   0.320  0.00  0.00    +0.328 A 
ATOM     45  O   UNL     1      -4.328  -5.702   0.008  0.00  0.00    -0.247 OA
ENDBRANCH  31  35
ENDBRANCH  27  28
ENDBRANCH   4  27
TORSDOF 5
