REMARK  Name = CHEMBL270638
REMARK  7 active torsions:
REMARK  status: ('A' for Active; 'I' for Inactive)
REMARK    1  A    between atoms: C_1  and  C_2
REMARK    2  A    between atoms: C_10  and  C_25
REMARK    3  A    between atoms: N_14  and  C_15
REMARK    4  A    between atoms: C_18  and  C_21
REMARK    5  A    between atoms: C_21  and  C_22
REMARK    6  A    between atoms: C_21  and  C_23
REMARK    7  A    between atoms: C_26  and  C_27
REMARK                            x       y       z     vdW  Elec       q    Type
REMARK                         _______ _______ _______ _____ _____    ______ ____
ROOT
ATOM      1  C   UNL     1      -0.018   1.503   0.010  0.00  0.00    +0.086 C 
ATOM      2  C   UNL     1       0.002  -0.004   0.002  0.00  0.00    +0.112 A 
ATOM      3  N   UNL     1       0.008  -0.746  -1.068  0.00  0.00    -0.231 NA
ATOM      4  C   UNL     1       0.028  -2.055  -0.712  0.00  0.00    +0.108 A 
ATOM      5  C   UNL     1       0.042  -3.262  -1.431  0.00  0.00    +0.141 A 
ATOM      6  N   UNL     1       0.060  -4.419  -0.820  0.00  0.00    -0.253 NA
ATOM      7  C   UNL     1       0.068  -4.524   0.516  0.00  0.00    +0.073 A 
ATOM      8  C   UNL     1       0.088  -5.787   1.133  0.00  0.00    +0.029 A 
ATOM      9  C   UNL     1       0.096  -5.887   2.487  0.00  0.00    +0.019 A 
ATOM     10  C   UNL     1       0.083  -4.736   3.295  0.00  0.00    +0.026 A 
ATOM     11  C   UNL     1       0.062  -3.475   2.715  0.00  0.00    +0.029 A 
ATOM     12  C   UNL     1       0.055  -3.358   1.321  0.00  0.00    +0.027 A 
ATOM     13  C   UNL     1       0.034  -2.096   0.688  0.00  0.00    +0.084 A 
ATOM     14  N   UNL     1       0.023  -0.793   1.113  0.00  0.00    -0.296 N 
ENDROOT
BRANCH  14  15
ATOM     15  C   UNL     1       0.030  -0.354   2.444  0.00  0.00    +0.048 A 
ATOM     16  C   UNL     1       1.132  -0.597   3.252  0.00  0.00    +0.026 A 
ATOM     17  C   UNL     1       1.135  -0.163   4.563  0.00  0.00    +0.007 A 
ATOM     18  C   UNL     1       0.042   0.514   5.071  0.00  0.00    -0.031 A 
ATOM     19  C   UNL     1      -1.058   0.757   4.269  0.00  0.00    +0.007 A 
ATOM     20  C   UNL     1      -1.065   0.331   2.956  0.00  0.00    +0.026 A 
BRANCH  18  21
ATOM     21  C   UNL     1       0.049   0.986   6.502  0.00  0.00    +0.118 C 
ATOM     22  C   UNL     1      -1.113   0.338   7.259  0.00  0.00    +0.028 C 
BRANCH  21  23
ATOM     23  C   UNL     1      -0.100   2.450   6.536  0.00  0.00    +0.070 C 
ATOM     24  N   UNL     1      -0.214   3.580   6.562  0.00  0.00    -0.196 NA
ENDBRANCH  21  23
ENDBRANCH  18  21
ENDBRANCH  14  15
BRANCH  10  25
ATOM     25  C   UNL     1       0.090  -4.866   4.721  0.00  0.00    -0.061 C 
ATOM     26  C   UNL     1       0.095  -4.971   5.890  0.00  0.00    -0.060 C 
BRANCH  26  27
ATOM     27  C   UNL     1       0.102  -5.101   7.316  0.00  0.00    +0.043 A 
ATOM     28  C   UNL     1       0.128  -6.367   7.918  0.00  0.00    +0.020 A 
ATOM     29  C   UNL     1       0.134  -6.436   9.299  0.00  0.00    +0.021 A 
ATOM     30  C   UNL     1       0.114  -5.265  10.037  0.00  0.00    +0.111 A 
ATOM     31  N   UNL     1       0.090  -4.087   9.444  0.00  0.00    -0.262 NA
ATOM     32  C   UNL     1       0.089  -3.967   8.133  0.00  0.00    +0.127 A 
ENDBRANCH  26  27
ENDBRANCH  10  25
TORSDOF 5
