REMARK  Name = CHEMBL493359
REMARK  4 active torsions:
REMARK  status: ('A' for Active; 'I' for Inactive)
REMARK    1  A    between atoms: C_4  and  C_7
REMARK    2  A    between atoms: C_7  and  O_8
REMARK    3  A    between atoms: O_8  and  C_9
REMARK    4  A    between atoms: C_9  and  C_10
REMARK                            x       y       z     vdW  Elec       q    Type
REMARK                         _______ _______ _______ _____ _____    ______ ____
ROOT
ATOM      1  C   UNL     1       5.745  -1.842   2.874  0.00  0.00    +0.179 C 
ATOM      2  C   UNL     1       7.059  -2.577   2.975  0.00  0.00    +0.041 C 
ATOM      3  C   UNL     1       7.275  -3.487   3.929  0.00  0.00    +0.052 C 
ATOM      4  C   UNL     1       6.235  -3.850   4.958  0.00  0.00    +0.240 C 
ATOM      5  C   UNL     1       4.993  -2.945   4.851  0.00  0.00    +0.175 C 
ATOM      6  O   UNL     1       4.724  -2.603   3.513  0.00  0.00    -0.362 OA
ATOM      7  C   UNL     1       5.465  -1.685   5.610  0.00  0.00    +0.156 C 
ATOM      8  C   UNL     1       6.641  -2.179   6.434  0.00  0.00    +0.310 C 
ATOM      9  O   UNL     1       7.348  -1.491   7.132  0.00  0.00    -0.251 OA
ATOM     10  O   UNL     1       6.774  -3.529   6.262  0.00  0.00    -0.454 OA
ATOM     11  C   UNL     1       8.579  -4.190   4.007  0.00  0.00    +0.194 C 
ATOM     12  O   UNL     1       8.770  -5.013   4.881  0.00  0.00    -0.287 OA
ATOM     13  C   UNL     1       9.646  -3.897   3.031  0.00  0.00    +0.033 A 
ATOM     14  C   UNL     1      10.872  -4.550   3.091  0.00  0.00    +0.012 A 
ATOM     15  C   UNL     1      11.855  -4.256   2.158  0.00  0.00    +0.001 A 
ATOM     16  C   UNL     1      11.625  -3.318   1.171  0.00  0.00    +0.001 A 
ATOM     17  C   UNL     1      10.408  -2.657   1.099  0.00  0.00    +0.012 A 
ATOM     18  C   UNL     1       9.413  -2.941   2.027  0.00  0.00    +0.033 A 
ATOM     19  C   UNL     1       8.107  -2.256   1.980  0.00  0.00    +0.193 C 
ATOM     20  O   UNL     1       7.891  -1.425   1.121  0.00  0.00    -0.287 OA
ENDROOT
BRANCH   1  21
ATOM     21  C   UNL     1       5.385  -1.642   1.400  0.00  0.00    +0.196 C 
BRANCH  21  22
ATOM     22  O   UNL     1       5.423  -2.901   0.726  0.00  0.00    -0.372 OA
BRANCH  22  23
ATOM     23  C   UNL     1       5.101  -2.826  -0.664  0.00  0.00    +0.195 C 
BRANCH  23  27
ATOM     24  C   UNL     1       5.300  -6.729  -2.389  0.00  0.00    +0.000 A 
ATOM     25  C   UNL     1       4.112  -6.271  -1.850  0.00  0.00    +0.000 A 
ATOM     26  C   UNL     1       4.048  -5.008  -1.292  0.00  0.00    +0.006 A 
ATOM     27  C   UNL     1       5.171  -4.203  -1.272  0.00  0.00    -0.022 A 
ATOM     28  C   UNL     1       6.359  -4.662  -1.810  0.00  0.00    +0.006 A 
ATOM     29  C   UNL     1       6.423  -5.924  -2.369  0.00  0.00    +0.000 A 
ENDBRANCH  23  27
ENDBRANCH  22  23
ENDBRANCH  21  22
ENDBRANCH   1  21
TORSDOF 4
