REMARK  Name = CHEMBL226381
REMARK  8 active torsions:
REMARK  status: ('A' for Active; 'I' for Inactive)
REMARK    1  A    between atoms: C_1  and  C_2
REMARK    2  A    between atoms: C_5  and  C_13
REMARK    3  A    between atoms: C_15  and  O_19
REMARK    4  A    between atoms: O_19  and  C_20
REMARK    5  A    between atoms: C_20  and  C_21
REMARK    6  A    between atoms: C_21  and  C_23
REMARK    7  A    between atoms: C_21  and  N_30
REMARK    8  A    between atoms: C_23  and  C_24
REMARK                            x       y       z     vdW  Elec       q    Type
REMARK                         _______ _______ _______ _____ _____    ______ ____
ROOT
ATOM      1  C   UNL     1      -0.002  -1.515  -4.877  0.00  0.00    +0.023 A 
ATOM      2  C   UNL     1       0.003  -2.604  -5.752  0.00  0.00    +0.058 A 
ATOM      3  C   UNL     1      -0.007  -2.351  -7.117  0.00  0.00    +0.139 A 
ATOM      4  C   UNL     1      -0.022  -1.036  -7.562  0.00  0.00    +0.156 A 
ATOM      5  N   UNL     1      -0.026  -0.032  -6.707  0.00  0.00    -0.259 NA
ATOM      6  C   UNL     1      -0.022  -0.226  -5.404  0.00  0.00    +0.121 A 
ENDROOT
BRANCH   1  11
ATOM      7  C   UNL     1      -1.718   1.066  -0.041  0.00  0.00    +0.068 C 
ATOM      8  C   UNL     1      -1.010  -0.265  -0.028  0.00  0.00    +0.068 A 
ATOM      9  C   UNL     1      -0.537  -0.997  -1.196  0.00  0.00    +0.026 A 
ATOM     10  C   UNL     1      -0.557  -0.776  -2.577  0.00  0.00    +0.041 A 
ATOM     11  C   UNL     1       0.009  -1.729  -3.409  0.00  0.00    +0.094 A 
ATOM     12  N   UNL     1       0.563  -2.834  -2.911  0.00  0.00    -0.137 N 
ATOM     13  O   UNL     1       1.128  -3.775  -3.804  0.00  0.00    -0.164 OA
ATOM     14  C   UNL     1       0.604  -3.081  -1.620  0.00  0.00    +0.161 A 
ATOM     15  C   UNL     1       0.060  -2.180  -0.709  0.00  0.00    +0.086 A 
ATOM     16  N   UNL     1      -0.056  -2.145   0.654  0.00  0.00    -0.275 N 
ATOM     17  H   UNL     1       0.266  -2.828   1.264  0.00  0.00    +0.189 HD
ATOM     18  N   UNL     1      -0.706  -0.964   1.029  0.00  0.00    -0.178 NA
ENDBRANCH   1  11
BRANCH   3  19
ATOM     19  O   UNL     1      -0.003  -3.378  -8.008  0.00  0.00    -0.492 OA
BRANCH  19  20
ATOM     20  C   UNL     1      -0.014  -3.034  -9.395  0.00  0.00    +0.213 C 
BRANCH  20  21
ATOM     21  C   UNL     1      -0.007  -4.311 -10.237  0.00  0.00    -0.033 C 
BRANCH  21  22
ATOM     22  N   UNL     1      -1.254  -5.054 -10.010  0.00  0.00    +0.382 N 
ATOM     23  H   UNL     1      -1.249  -5.897 -10.566  0.00  0.00    -0.089 HD
ATOM     24  H   UNL     1      -1.329  -5.296  -9.034  0.00  0.00    -0.089 HD
ATOM     25  H   UNL     1      -2.040  -4.481 -10.276  0.00  0.00    -0.089 HD
ENDBRANCH  21  22
BRANCH  21  26
ATOM     26  C   UNL     1       0.106  -3.945 -11.718  0.00  0.00    +0.022 C 
BRANCH  26  27
ATOM     27  C   UNL     1       0.237  -5.203 -12.538  0.00  0.00    -0.049 A 
ATOM     28  C   UNL     1       1.488  -5.727 -12.804  0.00  0.00    +0.003 A 
ATOM     29  C   UNL     1       1.608  -6.881 -13.556  0.00  0.00    +0.000 A 
ATOM     30  C   UNL     1       0.477  -7.510 -14.042  0.00  0.00    +0.000 A 
ATOM     31  C   UNL     1      -0.774  -6.986 -13.775  0.00  0.00    +0.000 A 
ATOM     32  C   UNL     1      -0.894  -5.835 -13.019  0.00  0.00    +0.003 A 
ENDBRANCH  26  27
ENDBRANCH  21  26
ENDBRANCH  20  21
ENDBRANCH  19  20
ENDBRANCH   3  19
TORSDOF 7
