REMARK  Name = CHEMBL470192
REMARK  6 active torsions:
REMARK  status: ('A' for Active; 'I' for Inactive)
REMARK    1  A    between atoms: C_4  and  C_7
REMARK    2  A    between atoms: C_7  and  C_8
REMARK    3  A    between atoms: C_7  and  N_10
REMARK    4  A    between atoms: C_8  and  N_9
REMARK    5  A    between atoms: C_11  and  C_13
REMARK    6  A    between atoms: C_16  and  C_18
REMARK                            x       y       z     vdW  Elec       q    Type
REMARK                         _______ _______ _______ _____ _____    ______ ____
ROOT
ATOM      1  N   UNL     1       3.630  -1.873   0.845  0.00  0.00    -0.306 N 
ATOM      2  C   UNL     1       4.751  -2.385   1.391  0.00  0.00    +0.251 C 
ATOM      3  O   UNL     1       5.832  -1.878   1.149  0.00  0.00    -0.270 OA
ATOM      4  H   UNL     1       2.769  -2.277   1.038  0.00  0.00    +0.150 HD
ENDROOT
BRANCH   2   5
ATOM      5  C   UNL     1       4.670  -3.549   2.272  0.00  0.00    +0.074 A 
ATOM      6  C   UNL     1       5.694  -4.217   2.931  0.00  0.00    +0.021 A 
ATOM      7  C   UNL     1       5.379  -5.292   3.711  0.00  0.00    +0.017 A 
ATOM      8  C   UNL     1       4.050  -5.676   3.814  0.00  0.00    +0.022 A 
ATOM      9  S   UNL     1       3.230  -4.471   2.783  0.00  0.00    -0.084 S 
BRANCH   8  10
ATOM     10  C   UNL     1       3.463  -6.788   4.584  0.00  0.00    +0.015 A 
ATOM     11  C   UNL     1       3.875  -8.084   4.583  0.00  0.00    +0.094 A 
ATOM     12  N   UNL     1       3.087  -8.818   5.420  0.00  0.00    -0.345 N 
ATOM     13  H   UNL     1       3.189  -9.768   5.585  0.00  0.00    +0.167 HD
ATOM     14  C   UNL     1       2.128  -8.018   5.999  0.00  0.00    +0.139 A 
ATOM     15  C   UNL     1       2.321  -6.714   5.509  0.00  0.00    +0.027 A 
ATOM     16  C   UNL     1       1.482  -5.687   5.938  0.00  0.00    +0.013 A 
ATOM     17  C   UNL     1       0.483  -5.998   6.843  0.00  0.00    +0.020 A 
ATOM     18  C   UNL     1       0.352  -7.304   7.288  0.00  0.00    +0.113 A 
ATOM     19  N   UNL     1       1.151  -8.260   6.863  0.00  0.00    -0.237 NA
ENDBRANCH   8  10
ENDBRANCH   2   5
BRANCH   1  20
ATOM     20  C   UNL     1       3.711  -0.707  -0.038  0.00  0.00    +0.086 C 
BRANCH  20  24
ATOM     21  C   UNL     1      -0.017   1.378   0.010  0.00  0.00    +0.000 A 
ATOM     22  C   UNL     1       1.171   2.086   0.002  0.00  0.00    +0.000 A 
ATOM     23  C   UNL     1       2.377   1.411  -0.013  0.00  0.00    +0.005 A 
ATOM     24  C   UNL     1       2.396   0.029  -0.020  0.00  0.00    -0.029 A 
ATOM     25  C   UNL     1       1.208  -0.679  -0.012  0.00  0.00    +0.005 A 
ATOM     26  C   UNL     1       0.002  -0.004   0.002  0.00  0.00    +0.000 A 
ENDBRANCH  20  24
BRANCH  20  27
ATOM     27  C   UNL     1       4.019  -1.168  -1.464  0.00  0.00    -0.059 C 
BRANCH  27  28
ATOM     28  N   UNL     1       5.239  -1.986  -1.461  0.00  0.00    +0.380 N 
ATOM     29  H   UNL     1       5.442  -2.290  -2.402  0.00  0.00    -0.090 HD
ATOM     30  H   UNL     1       6.011  -1.439  -1.111  0.00  0.00    -0.090 HD
ATOM     31  H   UNL     1       5.102  -2.792  -0.870  0.00  0.00    -0.090 HD
ENDBRANCH  27  28
ENDBRANCH  20  27
ENDBRANCH   1  20
TORSDOF 6
