REMARK  Name = CHEMBL493360
REMARK  2 active torsions:
REMARK  status: ('A' for Active; 'I' for Inactive)
REMARK    1  A    between atoms: C_22  and  C_24
REMARK    2  A    between atoms: C_27  and  O_30
REMARK                            x       y       z     vdW  Elec       q    Type
REMARK                         _______ _______ _______ _____ _____    ______ ____
ROOT
ATOM      1  C   UNL     1      -0.017   1.382   0.010  0.00  0.00    +0.001 A 
ATOM      2  C   UNL     1       1.165   2.098   0.002  0.00  0.00    +0.001 A 
ATOM      3  C   UNL     1       2.385   1.441  -0.013  0.00  0.00    +0.012 A 
ATOM      4  C   UNL     1       2.420   0.051  -0.020  0.00  0.00    +0.033 A 
ATOM      5  C   UNL     1       1.218  -0.677  -0.013  0.00  0.00    +0.033 A 
ATOM      6  C   UNL     1       0.002  -0.004   0.002  0.00  0.00    +0.012 A 
ATOM      7  C   UNL     1       1.274  -2.152  -0.022  0.00  0.00    +0.193 C 
ATOM      8  O   UNL     1       0.244  -2.796  -0.019  0.00  0.00    -0.287 OA
ATOM      9  C   UNL     1       2.579  -2.849  -0.035  0.00  0.00    +0.043 C 
ATOM     10  C   UNL     1       3.726  -2.161  -0.040  0.00  0.00    +0.052 C 
ATOM     11  C   UNL     1       3.703  -0.678  -0.035  0.00  0.00    +0.194 C 
ATOM     12  O   UNL     1       4.748  -0.059  -0.044  0.00  0.00    -0.287 OA
ATOM     13  C   UNL     1       5.068  -2.834  -0.047  0.00  0.00    +0.240 C 
ATOM     14  C   UNL     1       4.953  -4.350  -0.296  0.00  0.00    +0.175 C 
ATOM     15  C   UNL     1       6.225  -4.863   0.431  0.00  0.00    +0.156 C 
ATOM     16  C   UNL     1       6.610  -3.719   1.349  0.00  0.00    +0.310 C 
ATOM     17  O   UNL     1       7.591  -3.684   2.053  0.00  0.00    -0.251 OA
ATOM     18  O   UNL     1       5.689  -2.731   1.246  0.00  0.00    -0.454 OA
ATOM     19  O   UNL     1       3.806  -4.853   0.393  0.00  0.00    -0.359 OA
ATOM     20  C   UNL     1       2.573  -4.358  -0.046  0.00  0.00    +0.183 C 
ENDROOT
BRANCH  20  21
ATOM     21  C   UNL     1       1.459  -4.861   0.836  0.00  0.00    -0.014 A 
ATOM     22  C   UNL     1       1.628  -4.898   2.208  0.00  0.00    +0.010 A 
ATOM     23  C   UNL     1       0.608  -5.359   3.018  0.00  0.00    +0.046 A 
ATOM     24  C   UNL     1      -0.587  -5.783   2.454  0.00  0.00    +0.117 A 
ATOM     25  C   UNL     1      -0.754  -5.744   1.078  0.00  0.00    +0.046 A 
ATOM     26  C   UNL     1       0.267  -5.277   0.272  0.00  0.00    +0.010 A 
BRANCH  24  27
ATOM     27  O   UNL     1      -1.591  -6.237   3.249  0.00  0.00    -0.507 OA
ATOM     28  H   UNL     1      -2.203  -5.548   3.542  0.00  0.00    +0.292 HD
ENDBRANCH  24  27
ENDBRANCH  20  21
TORSDOF 2
