REMARK  Name = CHEMBL254099
REMARK  8 active torsions:
REMARK  status: ('A' for Active; 'I' for Inactive)
REMARK    1  A    between atoms: C_1  and  S_2
REMARK    2  A    between atoms: S_2  and  C_3
REMARK    3  A    between atoms: C_8  and  C_38
REMARK    4  A    between atoms: C_9  and  C_13
REMARK    5  A    between atoms: C_16  and  C_19
REMARK    6  A    between atoms: C_19  and  N_20
REMARK    7  A    between atoms: C_23  and  C_26
REMARK    8  A    between atoms: C_29  and  C_32
REMARK                            x       y       z     vdW  Elec       q    Type
REMARK                         _______ _______ _______ _____ _____    ______ ____
ROOT
ATOM      1  C   UNL     1       2.782  -5.141   4.539  0.00  0.00    +0.001 A 
ATOM      2  C   UNL     1       3.953  -5.576   5.159  0.00  0.00    +0.010 A 
ATOM      3  C   UNL     1       4.133  -6.918   5.424  0.00  0.00    +0.002 A 
ATOM      4  C   UNL     1       3.155  -7.832   5.075  0.00  0.00    -0.064 A 
ATOM      5  C   UNL     1       1.991  -7.407   4.459  0.00  0.00    +0.002 A 
ATOM      6  C   UNL     1       1.797  -6.067   4.195  0.00  0.00    +0.010 A 
ENDROOT
BRANCH   1  13
ATOM      7  C   UNL     1       0.877  -0.427   1.472  0.00  0.00    +0.190 A 
ATOM      8  N   UNL     1       1.317   0.555   2.258  0.00  0.00    -0.230 NA
ATOM      9  C   UNL     1       1.977   0.301   3.369  0.00  0.00    +0.125 A 
ATOM     10  C   UNL     1       2.211  -1.041   3.719  0.00  0.00    +0.038 A 
ATOM     11  C   UNL     1       2.905  -1.392   4.886  0.00  0.00    +0.023 A 
ATOM     12  C   UNL     1       3.091  -2.741   5.153  0.00  0.00    +0.009 A 
ATOM     13  C   UNL     1       2.582  -3.702   4.252  0.00  0.00    +0.081 A 
ATOM     14  N   UNL     1       1.933  -3.345   3.159  0.00  0.00    -0.227 NA
ATOM     15  C   UNL     1       1.728  -2.063   2.858  0.00  0.00    +0.165 A 
ATOM     16  N   UNL     1       1.064  -1.703   1.752  0.00  0.00    -0.202 NA
BRANCH  12  17
ATOM     17  C   UNL     1       3.817  -3.169   6.372  0.00  0.00    -0.016 A 
ATOM     18  C   UNL     1       3.265  -4.134   7.213  0.00  0.00    +0.008 A 
ATOM     19  C   UNL     1       3.946  -4.529   8.346  0.00  0.00    +0.001 A 
ATOM     20  C   UNL     1       5.174  -3.969   8.649  0.00  0.00    +0.000 A 
ATOM     21  C   UNL     1       5.727  -3.011   7.818  0.00  0.00    +0.001 A 
ATOM     22  C   UNL     1       5.058  -2.612   6.679  0.00  0.00    +0.008 A 
ENDBRANCH  12  17
BRANCH   7  24
ATOM     23  C   UNL     1      -0.022   1.810   0.012  0.00  0.00    +0.093 C 
ATOM     24  S   UNL     1       0.002  -0.004   0.002  0.00  0.00    -0.089 S 
ENDBRANCH   7  24
ENDBRANCH   1  13
BRANCH   4  25
ATOM     25  C   UNL     1       3.358  -9.297   5.367  0.00  0.00    -0.043 C 
BRANCH  25  26
ATOM     26  N   UNL     1       2.828  -9.608   6.702  0.00  0.00    +0.382 N 
ATOM     27  C   UNL     1       3.608  -8.889   7.716  0.00  0.00    -0.078 C 
ATOM     28  C   UNL     1       3.010  -9.146   9.101  0.00  0.00    -0.007 C 
ATOM     29  C   UNL     1       3.047 -10.648   9.396  0.00  0.00    +0.055 C 
ATOM     30  C   UNL     1       2.293 -11.394   8.291  0.00  0.00    -0.007 C 
ATOM     31  C   UNL     1       2.917 -11.054   6.936  0.00  0.00    -0.078 C 
ATOM     32  H   UNL     1       1.863  -9.319   6.755  0.00  0.00    -0.081 HD
BRANCH  29  33
ATOM     33  C   UNL     1       2.389 -10.917  10.725  0.00  0.00    +0.154 A 
ATOM     34  N   UNL     1       2.977 -11.479  11.776  0.00  0.00    -0.210 NA
ATOM     35  H   UNL     1       0.126 -10.969  12.869  0.00  0.00    +0.191 HD
ATOM     36  C   UNL     1       2.121 -11.565  12.773  0.00  0.00    +0.175 A 
ATOM     37  N   UNL     1       0.945 -11.044  12.355  0.00  0.00    -0.257 N 
ATOM     38  N   UNL     1       1.149 -10.628  11.029  0.00  0.00    -0.157 NA
BRANCH  36  39
ATOM     39  C   UNL     1       2.396 -12.132  14.113  0.00  0.00    +0.107 A 
ATOM     40  C   UNL     1       3.664 -12.632  14.405  0.00  0.00    +0.031 A 
ATOM     41  C   UNL     1       3.906 -13.159  15.662  0.00  0.00    +0.004 A 
ATOM     42  C   UNL     1       2.872 -13.168  16.586  0.00  0.00    +0.020 A 
ATOM     43  C   UNL     1       1.637 -12.656  16.229  0.00  0.00    +0.111 A 
ATOM     44  N   UNL     1       1.435 -12.156  15.028  0.00  0.00    -0.252 NA
ENDBRANCH  36  39
ENDBRANCH  29  33
ENDBRANCH  25  26
ENDBRANCH   4  25
TORSDOF 7
