REMARK  Name = CHEMBL252856
REMARK  8 active torsions:
REMARK  status: ('A' for Active; 'I' for Inactive)
REMARK    1  A    between atoms: C_1  and  S_2
REMARK    2  A    between atoms: S_2  and  C_3
REMARK    3  A    between atoms: C_8  and  C_35
REMARK    4  A    between atoms: C_9  and  C_13
REMARK    5  A    between atoms: C_16  and  C_19
REMARK    6  A    between atoms: C_19  and  N_20
REMARK    7  A    between atoms: C_23  and  C_26
REMARK    8  A    between atoms: N_28  and  C_29
REMARK                            x       y       z     vdW  Elec       q    Type
REMARK                         _______ _______ _______ _____ _____    ______ ____
ROOT
ATOM      1  C   UNL     1       2.682  -5.094  -4.627  0.00  0.00    +0.001 A 
ATOM      2  C   UNL     1       2.638  -5.535  -5.950  0.00  0.00    +0.010 A 
ATOM      3  C   UNL     1       2.810  -6.874  -6.233  0.00  0.00    +0.002 A 
ATOM      4  C   UNL     1       3.026  -7.779  -5.209  0.00  0.00    -0.064 A 
ATOM      5  C   UNL     1       3.070  -7.348  -3.896  0.00  0.00    +0.002 A 
ATOM      6  C   UNL     1       2.905  -6.010  -3.600  0.00  0.00    +0.010 A 
ENDROOT
BRANCH   1  13
ATOM      7  C   UNL     1       0.875  -0.411  -1.454  0.00  0.00    +0.190 A 
ATOM      8  N   UNL     1       1.305   0.579  -2.235  0.00  0.00    -0.230 NA
ATOM      9  C   UNL     1       1.939   0.337  -3.363  0.00  0.00    +0.125 A 
ATOM     10  C   UNL     1       2.156  -1.002  -3.737  0.00  0.00    +0.038 A 
ATOM     11  C   UNL     1       2.824  -1.341  -4.924  0.00  0.00    +0.023 A 
ATOM     12  C   UNL     1       2.994  -2.686  -5.213  0.00  0.00    +0.009 A 
ATOM     13  C   UNL     1       2.498  -3.657  -4.316  0.00  0.00    +0.081 A 
ATOM     14  N   UNL     1       1.873  -3.312  -3.205  0.00  0.00    -0.227 NA
ATOM     15  C   UNL     1       1.684  -2.033  -2.882  0.00  0.00    +0.165 A 
ATOM     16  N   UNL     1       1.055  -1.684  -1.752  0.00  0.00    -0.202 NA
BRANCH  12  17
ATOM     17  C   UNL     1       3.692  -3.102  -6.454  0.00  0.00    -0.016 A 
ATOM     18  C   UNL     1       4.721  -4.041  -6.397  0.00  0.00    +0.008 A 
ATOM     19  C   UNL     1       5.365  -4.424  -7.556  0.00  0.00    +0.001 A 
ATOM     20  C   UNL     1       4.993  -3.878  -8.771  0.00  0.00    +0.000 A 
ATOM     21  C   UNL     1       3.973  -2.946  -8.833  0.00  0.00    +0.001 A 
ATOM     22  C   UNL     1       3.317  -2.559  -7.682  0.00  0.00    +0.008 A 
ENDBRANCH  12  17
BRANCH   7  24
ATOM     23  C   UNL     1       0.010   1.810   0.050  0.00  0.00    +0.093 C 
ATOM     24  S   UNL     1       0.036  -0.004   0.041  0.00  0.00    -0.089 S 
ENDBRANCH   7  24
ENDBRANCH   1  13
BRANCH   4  25
ATOM     25  C   UNL     1       3.213  -9.240  -5.526  0.00  0.00    -0.043 C 
BRANCH  25  26
ATOM     26  N   UNL     1       4.640  -9.516  -5.741  0.00  0.00    +0.382 N 
ATOM     27  C   UNL     1       5.104  -8.790  -6.929  0.00  0.00    -0.078 C 
ATOM     28  C   UNL     1       6.607  -9.009  -7.111  0.00  0.00    -0.006 C 
ATOM     29  C   UNL     1       6.882 -10.505  -7.285  0.00  0.00    +0.072 C 
ATOM     30  C   UNL     1       6.328 -11.261  -6.074  0.00  0.00    -0.006 C 
ATOM     31  C   UNL     1       4.834 -10.958  -5.931  0.00  0.00    -0.078 C 
ATOM     32  H   UNL     1       5.165  -9.210  -4.936  0.00  0.00    -0.081 HD
BRANCH  29  33
ATOM     33  C   UNL     1       8.368 -10.736  -7.386  0.00  0.00    +0.220 C 
ATOM     34  O   UNL     1       9.133  -9.797  -7.325  0.00  0.00    -0.275 OA
ATOM     35  N   UNL     1       8.846 -11.986  -7.545  0.00  0.00    -0.285 N 
ATOM     36  H   UNL     1       8.240 -12.743  -7.526  0.00  0.00    +0.155 HD
BRANCH  35  37
ATOM     37  C   UNL     1      10.213 -12.191  -7.736  0.00  0.00    +0.036 A 
ATOM     38  C   UNL     1      11.153 -11.384  -7.096  0.00  0.00    +0.043 A 
ATOM     39  C   UNL     1      12.496 -11.619  -7.312  0.00  0.00    +0.112 A 
ATOM     40  N   UNL     1      12.892 -12.592  -8.110  0.00  0.00    -0.263 NA
ATOM     41  C   UNL     1      12.034 -13.377  -8.733  0.00  0.00    +0.112 A 
ATOM     42  C   UNL     1      10.674 -13.211  -8.566  0.00  0.00    +0.043 A 
ENDBRANCH  35  37
ENDBRANCH  29  33
ENDBRANCH  25  26
ENDBRANCH   4  25
TORSDOF 7
