REMARK  Name = CHEMBL262341
REMARK  6 active torsions:
REMARK  status: ('A' for Active; 'I' for Inactive)
REMARK    1  A    between atoms: C_4  and  C_7
REMARK    2  A    between atoms: C_17  and  C_18
REMARK    3  A    between atoms: C_21  and  C_24
REMARK    4  A    between atoms: C_24  and  N_25
REMARK    5  A    between atoms: C_28  and  C_31
REMARK    6  A    between atoms: C_33  and  C_37
REMARK                            x       y       z     vdW  Elec       q    Type
REMARK                         _______ _______ _______ _____ _____    ______ ____
ROOT
ATOM      1  C   UNL     1       3.329  -1.387  -2.469  0.00  0.00    +0.001 A 
ATOM      2  C   UNL     1       2.206  -0.557  -2.544  0.00  0.00    +0.010 A 
ATOM      3  C   UNL     1       1.516  -0.443  -3.733  0.00  0.00    +0.002 A 
ATOM      4  C   UNL     1       1.933  -1.148  -4.849  0.00  0.00    -0.064 A 
ATOM      5  C   UNL     1       3.044  -1.970  -4.782  0.00  0.00    +0.002 A 
ATOM      6  C   UNL     1       3.748  -2.090  -3.602  0.00  0.00    +0.010 A 
ENDROOT
BRANCH   1  17
ATOM      7  C   UNL     1       3.359  -1.436   0.087  0.00  0.00    +0.005 C 
ATOM      8  C   UNL     1       4.059  -1.270   1.230  0.00  0.00    +0.002 C 
ATOM      9  C   UNL     1       5.535  -1.085   1.173  0.00  0.00    +0.149 C 
ATOM     10  C   UNL     1       6.089  -1.663  -0.101  0.00  0.00    +0.059 C 
ATOM     11  C   UNL     1       7.334  -2.267  -0.012  0.00  0.00    +0.041 C 
ATOM     12  C   UNL     1       7.926  -2.437   1.233  0.00  0.00    +0.102 C 
ATOM     13  N   UNL     1       7.376  -2.106   2.380  0.00  0.00    -0.188 NA
ATOM     14  C   UNL     1       6.198  -1.475   2.467  0.00  0.00    +0.249 C 
ATOM     15  O   UNL     1       5.688  -1.228   3.542  0.00  0.00    -0.273 OA
ATOM     16  N   UNL     1       5.383  -1.692  -1.216  0.00  0.00    -0.250 NA
ATOM     17  C   UNL     1       4.073  -1.514  -1.201  0.00  0.00    +0.079 C 
BRANCH   7  21
ATOM     18  C   UNL     1      -0.880  -1.750   0.203  0.00  0.00    +0.000 A 
ATOM     19  C   UNL     1      -0.266  -0.569   0.577  0.00  0.00    +0.001 A 
ATOM     20  C   UNL     1       1.109  -0.461   0.542  0.00  0.00    +0.008 A 
ATOM     21  C   UNL     1       1.880  -1.546   0.128  0.00  0.00    -0.016 A 
ATOM     22  C   UNL     1       1.256  -2.734  -0.249  0.00  0.00    +0.008 A 
ATOM     23  C   UNL     1      -0.120  -2.830  -0.209  0.00  0.00    +0.001 A 
ENDBRANCH   7  21
ENDBRANCH   1  17
BRANCH   4  24
ATOM     24  C   UNL     1       1.174  -1.018  -6.144  0.00  0.00    -0.043 C 
BRANCH  24  25
ATOM     25  N   UNL     1       1.735   0.086  -6.933  0.00  0.00    +0.382 N 
ATOM     26  C   UNL     1       1.523   1.352  -6.221  0.00  0.00    -0.078 C 
ATOM     27  C   UNL     1       2.178   2.495  -6.999  0.00  0.00    -0.007 C 
ATOM     28  C   UNL     1       1.550   2.581  -8.393  0.00  0.00    +0.055 C 
ATOM     29  C   UNL     1       1.712   1.232  -9.099  0.00  0.00    -0.007 C 
ATOM     30  C   UNL     1       1.075   0.135  -8.243  0.00  0.00    -0.078 C 
ATOM     31  H   UNL     1       2.725  -0.063  -7.062  0.00  0.00    -0.081 HD
BRANCH  28  32
ATOM     32  C   UNL     1       2.243   3.655  -9.193  0.00  0.00    +0.154 A 
ATOM     33  N   UNL     1       1.658   4.734  -9.702  0.00  0.00    -0.210 NA
ATOM     34  C   UNL     1       2.549   5.464 -10.341  0.00  0.00    +0.175 A 
ATOM     35  N   UNL     1       3.744   4.838 -10.242  0.00  0.00    -0.257 N 
ATOM     36  H   UNL     1       4.590   5.136 -10.614  0.00  0.00    +0.191 HD
ATOM     37  N   UNL     1       3.517   3.674  -9.491  0.00  0.00    -0.157 NA
BRANCH  34  38
ATOM     38  C   UNL     1       2.289   6.741 -11.043  0.00  0.00    +0.107 A 
ATOM     39  C   UNL     1       1.000   7.272 -11.057  0.00  0.00    +0.031 A 
ATOM     40  C   UNL     1       0.772   8.467 -11.717  0.00  0.00    +0.004 A 
ATOM     41  C   UNL     1       1.842   9.093 -12.342  0.00  0.00    +0.020 A 
ATOM     42  C   UNL     1       3.095   8.510 -12.288  0.00  0.00    +0.111 A 
ATOM     43  N   UNL     1       3.286   7.374 -11.649  0.00  0.00    -0.252 NA
ENDBRANCH  34  38
ENDBRANCH  28  32
ENDBRANCH  24  25
ENDBRANCH   4  24
TORSDOF 6
