REMARK  Name = CHEMBL576372
REMARK  11 active torsions:
REMARK  status: ('A' for Active; 'I' for Inactive)
REMARK    1  A    between atoms: C_1  and  C_2
REMARK    2  A    between atoms: C_5  and  C_12
REMARK    3  A    between atoms: C_14  and  O_18
REMARK    4  A    between atoms: O_18  and  C_19
REMARK    5  A    between atoms: C_19  and  C_20
REMARK    6  A    between atoms: C_20  and  C_22
REMARK    7  A    between atoms: C_20  and  N_37
REMARK    8  A    between atoms: C_22  and  C_23
REMARK    9  A    between atoms: C_27  and  O_29
REMARK   10  A    between atoms: O_29  and  C_30
REMARK   11  A    between atoms: C_30  and  C_31
REMARK                            x       y       z     vdW  Elec       q    Type
REMARK                         _______ _______ _______ _____ _____    ______ ____
ROOT
ATOM      1  C   UNL     1      -0.316  -4.131 -10.256  0.00  0.00    -0.033 C 
ENDROOT
BRANCH   1   2
ATOM      2  N   UNL     1      -1.619  -4.768 -10.023  0.00  0.00    +0.382 N 
ATOM      3  H   UNL     1      -1.702  -5.017  -9.048  0.00  0.00    -0.089 HD
ATOM      4  H   UNL     1      -2.356  -4.125 -10.270  0.00  0.00    -0.089 HD
ATOM      5  H   UNL     1      -1.693  -5.599 -10.590  0.00  0.00    -0.089 HD
ENDBRANCH   1   2
BRANCH   1   6
ATOM      6  C   UNL     1      -0.202  -2.871  -9.396  0.00  0.00    +0.213 C 
BRANCH   6   7
ATOM      7  O   UNL     1      -0.203  -3.235  -8.015  0.00  0.00    -0.492 OA
BRANCH   7  10
ATOM      8  C   UNL     1      -0.002  -1.427  -4.859  0.00  0.00    +0.022 A 
ATOM      9  C   UNL     1      -0.102  -2.499  -5.748  0.00  0.00    +0.058 A 
ATOM     10  C   UNL     1      -0.108  -2.225  -7.110  0.00  0.00    +0.139 A 
ATOM     11  C   UNL     1      -0.015  -0.907  -7.536  0.00  0.00    +0.156 A 
ATOM     12  N   UNL     1       0.079   0.081  -6.667  0.00  0.00    -0.259 NA
ATOM     13  C   UNL     1       0.082  -0.133  -5.367  0.00  0.00    +0.121 A 
BRANCH   8  18
ATOM     14  C   UNL     1      -0.018   1.503   0.010  0.00  0.00    +0.068 C 
ATOM     15  C   UNL     1       0.002  -0.004   0.002  0.00  0.00    +0.068 A 
ATOM     16  C   UNL     1       0.008  -0.822  -1.150  0.00  0.00    +0.026 A 
ATOM     17  C   UNL     1      -0.002  -0.579  -2.529  0.00  0.00    +0.040 A 
ATOM     18  C   UNL     1       0.009  -1.662  -3.394  0.00  0.00    +0.073 A 
ATOM     19  N   UNL     1       0.028  -2.911  -2.931  0.00  0.00    -0.253 NA
ATOM     20  C   UNL     1       0.038  -3.186  -1.646  0.00  0.00    +0.139 A 
ATOM     21  C   UNL     1       0.029  -2.161  -0.704  0.00  0.00    +0.084 A 
ATOM     22  N   UNL     1       0.035  -2.115   0.665  0.00  0.00    -0.275 N 
ATOM     23  H   UNL     1       0.049  -2.880   1.260  0.00  0.00    +0.189 HD
ATOM     24  N   UNL     1       0.023  -0.769   1.056  0.00  0.00    -0.178 NA
ENDBRANCH   8  18
ENDBRANCH   7  10
ENDBRANCH   6   7
ENDBRANCH   1   6
BRANCH   1  25
ATOM     25  C   UNL     1      -0.190  -3.754 -11.734  0.00  0.00    +0.022 C 
BRANCH  25  26
ATOM     26  C   UNL     1      -0.178  -5.005 -12.573  0.00  0.00    -0.045 A 
ATOM     27  C   UNL     1       1.020  -5.631 -12.863  0.00  0.00    +0.004 A 
ATOM     28  C   UNL     1       1.034  -6.779 -13.633  0.00  0.00    +0.004 A 
ATOM     29  C   UNL     1      -0.149  -7.305 -14.114  0.00  0.00    +0.045 A 
ATOM     30  C   UNL     1      -1.353  -6.679 -13.823  0.00  0.00    +0.121 A 
ATOM     31  C   UNL     1      -1.365  -5.530 -13.046  0.00  0.00    +0.049 A 
BRANCH  30  32
ATOM     32  O   UNL     1      -2.519  -7.194 -14.295  0.00  0.00    -0.492 OA
BRANCH  32  33
ATOM     33  C   UNL     1      -2.431  -8.382 -15.084  0.00  0.00    +0.232 C 
BRANCH  33  34
ATOM     34  C   UNL     1      -3.834  -8.808 -15.522  0.00  0.00    +0.023 C 
ATOM     35  C   UNL     1      -4.655  -9.209 -14.293  0.00  0.00    -0.012 C 
ATOM     36  C   UNL     1      -6.029  -9.709 -14.744  0.00  0.00    -0.082 C 
ATOM     37  N   UNL     1      -5.865 -10.872 -15.625  0.00  0.00    +0.379 N 
ATOM     38  C   UNL     1      -5.141 -10.478 -16.840  0.00  0.00    -0.082 C 
ATOM     39  C   UNL     1      -3.733 -10.008 -16.469  0.00  0.00    -0.012 C 
ATOM     40  H   UNL     1      -5.344 -11.588 -15.141  0.00  0.00    -0.086 HD
ATOM     41  H   UNL     1      -6.773 -11.232 -15.878  0.00  0.00    -0.086 HD
ENDBRANCH  33  34
ENDBRANCH  32  33
ENDBRANCH  30  32
ENDBRANCH  25  26
ENDBRANCH   1  25
TORSDOF 10
