REMARK  Name = CHEMBL211186
REMARK  10 active torsions:
REMARK  status: ('A' for Active; 'I' for Inactive)
REMARK    1  A    between atoms: C_1  and  C_2
REMARK    2  A    between atoms: C_5  and  C_12
REMARK    3  A    between atoms: C_14  and  O_18
REMARK    4  A    between atoms: O_18  and  C_19
REMARK    5  A    between atoms: C_19  and  C_20
REMARK    6  A    between atoms: C_20  and  C_22
REMARK    7  A    between atoms: C_20  and  N_31
REMARK    8  A    between atoms: C_22  and  C_23
REMARK    9  A    between atoms: C_23  and  C_24
REMARK   10  A    between atoms: C_24  and  C_25
REMARK                            x       y       z     vdW  Elec       q    Type
REMARK                         _______ _______ _______ _____ _____    ______ ____
ROOT
ATOM      1  C   UNL     1      -0.003  -1.420  -4.905  0.00  0.00    +0.004 A 
ATOM      2  C   UNL     1       0.000  -2.485  -5.810  0.00  0.00    +0.057 A 
ATOM      3  C   UNL     1      -0.011  -2.194  -7.168  0.00  0.00    +0.139 A 
ATOM      4  C   UNL     1      -0.026  -0.867  -7.576  0.00  0.00    +0.156 A 
ATOM      5  N   UNL     1      -0.029   0.113  -6.694  0.00  0.00    -0.259 NA
ATOM      6  C   UNL     1      -0.024  -0.117  -5.397  0.00  0.00    +0.119 A 
ENDROOT
BRANCH   1  11
ATOM      7  C   UNL     1      -0.018   1.503   0.010  0.00  0.00    +0.068 C 
ATOM      8  C   UNL     1       0.002  -0.004   0.002  0.00  0.00    +0.067 A 
ATOM      9  C   UNL     1       0.008  -0.858  -1.182  0.00  0.00    +0.023 A 
ATOM     10  C   UNL     1      -0.002  -0.608  -2.557  0.00  0.00    +0.020 A 
ATOM     11  C   UNL     1       0.008  -1.674  -3.443  0.00  0.00    -0.016 A 
ATOM     12  C   UNL     1       0.028  -2.989  -2.963  0.00  0.00    +0.010 A 
ATOM     13  C   UNL     1       0.038  -3.241  -1.623  0.00  0.00    +0.028 A 
ATOM     14  C   UNL     1       0.029  -2.186  -0.712  0.00  0.00    +0.066 A 
ATOM     15  N   UNL     1       0.034  -2.119   0.657  0.00  0.00    -0.277 N 
ATOM     16  H   UNL     1       0.047  -2.881   1.257  0.00  0.00    +0.189 HD
ATOM     17  N   UNL     1       0.023  -0.777   1.050  0.00  0.00    -0.178 NA
ENDBRANCH   1  11
BRANCH   3  18
ATOM     18  O   UNL     1      -0.007  -3.196  -8.086  0.00  0.00    -0.492 OA
BRANCH  18  19
ATOM     19  C   UNL     1      -0.020  -2.814  -9.463  0.00  0.00    +0.213 C 
BRANCH  19  20
ATOM     20  C   UNL     1      -0.014  -4.068 -10.340  0.00  0.00    -0.037 C 
BRANCH  20  21
ATOM     21  N   UNL     1      -1.260  -4.817 -10.133  0.00  0.00    +0.382 N 
ATOM     22  H   UNL     1      -1.256  -5.644 -10.711  0.00  0.00    -0.090 HD
ATOM     23  H   UNL     1      -1.335  -5.085  -9.163  0.00  0.00    -0.090 HD
ATOM     24  H   UNL     1      -2.047  -4.236 -10.382  0.00  0.00    -0.090 HD
ENDBRANCH  20  21
BRANCH  20  25
ATOM     25  C   UNL     1       0.099  -3.662 -11.810  0.00  0.00    -0.013 C 
BRANCH  25  26
ATOM     26  C   UNL     1       0.231  -4.915 -12.678  0.00  0.00    +0.003 C 
BRANCH  26  27
ATOM     27  C   UNL     1       0.343  -4.508 -14.148  0.00  0.00    +0.035 C 
BRANCH  27  28
ATOM     28  C   UNL     1       0.473  -5.743 -15.002  0.00  0.00    -0.047 A 
ATOM     29  C   UNL     1       1.723  -6.261 -15.284  0.00  0.00    +0.003 A 
ATOM     30  C   UNL     1       1.842  -7.393 -16.067  0.00  0.00    +0.000 A 
ATOM     31  C   UNL     1       0.711  -8.008 -16.569  0.00  0.00    +0.000 A 
ATOM     32  C   UNL     1      -0.540  -7.492 -16.287  0.00  0.00    +0.000 A 
ATOM     33  C   UNL     1      -0.659  -6.362 -15.500  0.00  0.00    +0.003 A 
ENDBRANCH  27  28
ENDBRANCH  26  27
ENDBRANCH  25  26
ENDBRANCH  20  25
ENDBRANCH  19  20
ENDBRANCH  18  19
ENDBRANCH   3  18
TORSDOF 9
