REMARK  Name = CHEMBL504537
REMARK  0 active torsions:
REMARK  status: ('A' for Active; 'I' for Inactive)
REMARK                            x       y       z     vdW  Elec       q    Type
REMARK                         _______ _______ _______ _____ _____    ______ ____
ROOT
ATOM      1  C   UNL     1      -0.017   1.382   0.010  0.00  0.00    +0.001 A 
ATOM      2  C   UNL     1       1.164   2.099   0.002  0.00  0.00    +0.001 A 
ATOM      3  C   UNL     1       2.385   1.442  -0.013  0.00  0.00    +0.012 A 
ATOM      4  C   UNL     1       2.420   0.053  -0.021  0.00  0.00    +0.033 A 
ATOM      5  C   UNL     1       1.218  -0.677  -0.013  0.00  0.00    +0.033 A 
ATOM      6  C   UNL     1       0.002  -0.004   0.002  0.00  0.00    +0.012 A 
ATOM      7  C   UNL     1       1.272  -2.151  -0.025  0.00  0.00    +0.194 C 
ATOM      8  O   UNL     1       0.240  -2.792  -0.016  0.00  0.00    -0.287 OA
ATOM      9  C   UNL     1       2.576  -2.857  -0.049  0.00  0.00    +0.052 C 
ATOM     10  C   UNL     1       3.718  -2.158  -0.052  0.00  0.00    +0.042 C 
ATOM     11  C   UNL     1       3.702  -0.679  -0.036  0.00  0.00    +0.193 C 
ATOM     12  O   UNL     1       4.749  -0.063  -0.036  0.00  0.00    -0.287 OA
ATOM     13  C   UNL     1       5.054  -2.854  -0.069  0.00  0.00    +0.099 C 
ATOM     14  C   UNL     1       5.636  -2.886   1.358  0.00  0.00    +0.040 C 
ATOM     15  C   UNL     1       7.156  -2.668   1.151  0.00  0.00    +0.003 C 
ATOM     16  C   UNL     1       7.199  -1.636  -0.003  0.00  0.00    +0.003 C 
ATOM     17  C   UNL     1       6.044  -2.060  -0.934  0.00  0.00    +0.040 C 
ATOM     18  O   UNL     1       4.920  -4.179  -0.567  0.00  0.00    -0.361 OA
ATOM     19  C   UNL     1       3.955  -4.962   0.140  0.00  0.00    +0.175 C 
ATOM     20  C   UNL     1       2.554  -4.358  -0.075  0.00  0.00    +0.240 C 
ATOM     21  O   UNL     1       2.126  -4.837  -1.353  0.00  0.00    -0.454 OA
ATOM     22  C   UNL     1       2.799  -5.940  -1.716  0.00  0.00    +0.310 C 
ATOM     23  O   UNL     1       2.643  -6.545  -2.751  0.00  0.00    -0.251 OA
ATOM     24  C   UNL     1       3.789  -6.307  -0.624  0.00  0.00    +0.156 C 
ENDROOT
TORSDOF 0
