REMARK  Name = CHEMBL470410
REMARK  7 active torsions:
REMARK  status: ('A' for Active; 'I' for Inactive)
REMARK    1  A    between atoms: C_1  and  N_2
REMARK    2  A    between atoms: N_2  and  C_3
REMARK    3  A    between atoms: C_3  and  C_4
REMARK    4  A    between atoms: C_4  and  C_5
REMARK    5  A    between atoms: C_4  and  N_11
REMARK    6  A    between atoms: C_12  and  C_14
REMARK    7  A    between atoms: C_17  and  C_19
REMARK                            x       y       z     vdW  Elec       q    Type
REMARK                         _______ _______ _______ _____ _____    ______ ____
ROOT
ATOM      1  N   UNL     1      -0.580  -2.800  -1.037  0.00  0.00    -0.306 N 
ATOM      2  C   UNL     1       0.766  -2.747  -0.989  0.00  0.00    +0.251 C 
ATOM      3  O   UNL     1       1.325  -2.360   0.021  0.00  0.00    -0.270 OA
ATOM      4  H   UNL     1      -1.025  -3.109  -1.842  0.00  0.00    +0.150 HD
ENDROOT
BRANCH   2   5
ATOM      5  C   UNL     1       1.557  -3.156  -2.154  0.00  0.00    +0.075 A 
ATOM      6  C   UNL     1       2.936  -3.181  -2.305  0.00  0.00    +0.036 A 
ATOM      7  C   UNL     1       3.458  -3.606  -3.494  0.00  0.00    +0.033 A 
ATOM      8  C   UNL     1       2.589  -3.994  -4.503  0.00  0.00    +0.035 A 
ATOM      9  S   UNL     1       0.994  -3.755  -3.738  0.00  0.00    -0.083 S 
ATOM     10 BR   UNL     1       5.330  -3.662  -3.760  0.00  0.00    -0.049 Br
BRANCH   8  11
ATOM     11  C   UNL     1       2.902  -4.483  -5.859  0.00  0.00    +0.002 A 
ATOM     12  C   UNL     1       3.859  -5.482  -6.063  0.00  0.00    +0.029 A 
ATOM     13  C   UNL     1       4.121  -5.911  -7.351  0.00  0.00    +0.114 A 
ATOM     14  N   UNL     1       3.494  -5.404  -8.392  0.00  0.00    -0.237 NA
ATOM     15  C   UNL     1       2.575  -4.455  -8.267  0.00  0.00    +0.139 A 
ATOM     16  C   UNL     1       2.243  -3.965  -6.991  0.00  0.00    +0.027 A 
ATOM     17  C   UNL     1       1.211  -2.952  -7.197  0.00  0.00    +0.029 A 
ATOM     18  C   UNL     1       0.982  -2.892  -8.520  0.00  0.00    +0.085 A 
ATOM     19  N   UNL     1       1.796  -3.776  -9.174  0.00  0.00    -0.346 N 
ATOM     20  H   UNL     1       1.812  -3.913 -10.134  0.00  0.00    +0.167 HD
ENDBRANCH   8  11
ENDBRANCH   2   5
BRANCH   1  21
ATOM     21  C   UNL     1      -1.371  -2.392   0.127  0.00  0.00    +0.086 C 
BRANCH  21  22
ATOM     22  C   UNL     1      -2.710  -3.081   0.090  0.00  0.00    -0.029 A 
ATOM     23  C   UNL     1      -3.376  -3.234  -1.111  0.00  0.00    +0.005 A 
ATOM     24  C   UNL     1      -4.605  -3.866  -1.145  0.00  0.00    +0.000 A 
ATOM     25  C   UNL     1      -5.168  -4.345   0.024  0.00  0.00    +0.000 A 
ATOM     26  C   UNL     1      -4.502  -4.193   1.225  0.00  0.00    +0.000 A 
ATOM     27  C   UNL     1      -3.271  -3.565   1.258  0.00  0.00    +0.005 A 
ENDBRANCH  21  22
BRANCH  21  28
ATOM     28  C   UNL     1      -1.576  -0.876   0.098  0.00  0.00    -0.056 C 
BRANCH  28  30
ATOM     29  C   UNL     1      -0.468   1.248  -0.016  0.00  0.00    -0.100 C 
ATOM     30  N   UNL     1      -0.271  -0.207   0.012  0.00  0.00    +0.379 N 
ATOM     31  H   UNL     1       0.202  -0.499  -0.830  0.00  0.00    -0.086 HD
ATOM     32  H   UNL     1       0.288  -0.456   0.815  0.00  0.00    -0.086 HD
ENDBRANCH  28  30
ENDBRANCH  21  28
ENDBRANCH   1  21
TORSDOF 6
