REMARK  Name = CHEMBL210237
REMARK  12 active torsions:
REMARK  status: ('A' for Active; 'I' for Inactive)
REMARK    1  A    between atoms: C_1  and  C_2
REMARK    2  A    between atoms: C_2  and  C_3
REMARK    3  A    between atoms: C_2  and  C_4
REMARK    4  A    between atoms: C_2  and  C_15
REMARK    5  A    between atoms: C_4  and  C_5
REMARK    6  A    between atoms: C_18  and  C_25
REMARK    7  A    between atoms: C_27  and  O_31
REMARK    8  A    between atoms: O_31  and  C_32
REMARK    9  A    between atoms: C_32  and  C_33
REMARK   10  A    between atoms: C_33  and  C_35
REMARK   11  A    between atoms: C_33  and  N_46
REMARK   12  A    between atoms: C_35  and  C_36
REMARK                            x       y       z     vdW  Elec       q    Type
REMARK                         _______ _______ _______ _____ _____    ______ ____
ROOT
ATOM      1  C   UNL     1       0.718  -0.497  -1.257  0.00  0.00    +0.113 C 
ATOM      2  C   UNL     1       2.108   0.090  -1.340  0.00  0.00    -0.013 A 
ATOM      3  C   UNL     1       3.210  -0.002  -0.523  0.00  0.00    +0.014 A 
ATOM      4  C   UNL     1       4.385   0.668  -0.866  0.00  0.00    -0.016 A 
ATOM      5  C   UNL     1       4.430   1.424  -2.036  0.00  0.00    +0.010 A 
ATOM      6  C   UNL     1       3.322   1.511  -2.849  0.00  0.00    +0.024 A 
ATOM      7  C   UNL     1       2.146   0.843  -2.508  0.00  0.00    +0.037 A 
ATOM      8  N   UNL     1       0.914   0.781  -3.160  0.00  0.00    -0.285 N 
ATOM      9  C   UNL     1       0.025   0.021  -2.499  0.00  0.00    +0.225 C 
ATOM     10  O   UNL     1      -1.118  -0.207  -2.834  0.00  0.00    -0.275 OA
ATOM     11  H   UNL     1       0.721   1.235  -3.995  0.00  0.00    +0.155 HD
ENDROOT
BRANCH   4  12
ATOM     12  C   UNL     1       5.580   0.575   0.009  0.00  0.00    +0.004 A 
ATOM     13  C   UNL     1       6.758   1.248  -0.325  0.00  0.00    +0.057 A 
ATOM     14  C   UNL     1       7.847   1.129   0.527  0.00  0.00    +0.139 A 
ATOM     15  C   UNL     1       7.729   0.353   1.673  0.00  0.00    +0.156 A 
ATOM     16  N   UNL     1       6.602  -0.269   1.957  0.00  0.00    -0.259 NA
ATOM     17  C   UNL     1       5.542  -0.179   1.180  0.00  0.00    +0.119 A 
BRANCH  14  18
ATOM     18  O   UNL     1       9.015   1.764   0.244  0.00  0.00    -0.492 OA
BRANCH  18  19
ATOM     19  C   UNL     1      10.089   1.592   1.171  0.00  0.00    +0.213 C 
BRANCH  19  20
ATOM     20  C   UNL     1      11.311   2.375   0.688  0.00  0.00    -0.033 C 
BRANCH  20  21
ATOM     21  N   UNL     1      11.009   3.813   0.706  0.00  0.00    +0.382 N 
ATOM     22  H   UNL     1      10.778   4.096   1.646  0.00  0.00    -0.089 HD
ATOM     23  H   UNL     1      11.815   4.330   0.387  0.00  0.00    -0.089 HD
ATOM     24  H   UNL     1      10.227   4.000   0.096  0.00  0.00    -0.089 HD
ENDBRANCH  20  21
BRANCH  20  25
ATOM     25  C   UNL     1      12.497   2.092   1.612  0.00  0.00    +0.024 C 
BRANCH  25  26
ATOM     26  C   UNL     1      13.730   2.765   1.067  0.00  0.00    -0.024 A 
ATOM     27  C   UNL     1      14.662   2.207   0.278  0.00  0.00    +0.087 A 
ATOM     28  N   UNL     1      15.635   3.123  -0.015  0.00  0.00    -0.360 N 
ATOM     29  H   UNL     1      16.413   2.952  -0.569  0.00  0.00    +0.165 HD
ATOM     30  C   UNL     1      15.345   4.324   0.594  0.00  0.00    +0.047 A 
ATOM     31  C   UNL     1      14.136   4.154   1.293  0.00  0.00    +0.003 A 
ATOM     32  C   UNL     1      13.590   5.221   2.009  0.00  0.00    +0.010 A 
ATOM     33  C   UNL     1      14.231   6.427   2.023  0.00  0.00    +0.001 A 
ATOM     34  C   UNL     1      15.422   6.601   1.331  0.00  0.00    +0.002 A 
ATOM     35  C   UNL     1      15.984   5.559   0.626  0.00  0.00    +0.026 A 
ENDBRANCH  25  26
ENDBRANCH  20  25
ENDBRANCH  19  20
ENDBRANCH  18  19
ENDBRANCH  14  18
ENDBRANCH   4  12
BRANCH   1  37
ATOM     36  C   UNL     1      -0.019   1.526   0.010  0.00  0.00    +0.012 C 
ATOM     37  C   UNL     1       0.002  -0.004   0.002  0.00  0.00    -0.016 C 
ATOM     38  C   UNL     1       0.742  -0.511   1.242  0.00  0.00    +0.012 C 
BRANCH  37  39
ATOM     39  C   UNL     1      -1.433  -0.534   0.013  0.00  0.00    +0.044 C 
BRANCH  39  40
ATOM     40  C   UNL     1      -2.139  -0.048   1.253  0.00  0.00    -0.022 A 
ATOM     41  C   UNL     1      -2.258  -0.709   2.415  0.00  0.00    +0.087 A 
ATOM     42  N   UNL     1      -2.964   0.046   3.311  0.00  0.00    -0.360 N 
ATOM     43  H   UNL     1      -3.178  -0.222   4.219  0.00  0.00    +0.165 HD
ATOM     44  C   UNL     1      -3.325   1.242   2.733  0.00  0.00    +0.047 A 
ATOM     45  C   UNL     1      -2.819   1.239   1.421  0.00  0.00    +0.003 A 
ATOM     46  C   UNL     1      -3.030   2.341   0.590  0.00  0.00    +0.010 A 
ATOM     47  C   UNL     1      -3.725   3.420   1.058  0.00  0.00    +0.001 A 
ATOM     48  C   UNL     1      -4.223   3.430   2.353  0.00  0.00    +0.002 A 
ATOM     49  C   UNL     1      -4.035   2.349   3.187  0.00  0.00    +0.026 A 
ENDBRANCH  39  40
ENDBRANCH  37  39
ENDBRANCH   1  37
TORSDOF 10
