REMARK  Name = CHEMBL1099297
REMARK  14 active torsions:
REMARK  status: ('A' for Active; 'I' for Inactive)
REMARK    1  A    between atoms: C_1  and  C_2
REMARK    2  A    between atoms: C_2  and  N_3
REMARK    3  A    between atoms: C_6  and  O_24
REMARK    4  A    between atoms: C_8  and  C_18
REMARK    5  A    between atoms: C_11  and  C_12
REMARK    6  A    between atoms: C_19  and  C_20
REMARK    7  A    between atoms: C_20  and  C_21
REMARK    8  A    between atoms: C_20  and  C_22
REMARK    9  A    between atoms: C_20  and  O_23
REMARK   10  A    between atoms: O_24  and  C_25
REMARK   11  A    between atoms: C_25  and  C_27
REMARK   12  A    between atoms: C_25  and  C_30
REMARK   13  A    between atoms: C_27  and  C_28
REMARK   14  A    between atoms: C_28  and  N_29
REMARK                            x       y       z     vdW  Elec       q    Type
REMARK                         _______ _______ _______ _____ _____    ______ ____
ROOT
ATOM      1  N   UNL     1       0.711  -0.489   1.189  0.00  0.00    -0.322 N 
ATOM      2  C   UNL     1       2.059  -0.739   1.291  0.00  0.00    +0.077 A 
ATOM      3  C   UNL     1       3.143  -0.644   0.428  0.00  0.00    +0.095 A 
ATOM      4  C   UNL     1       4.404  -0.991   0.889  0.00  0.00    +0.218 A 
ATOM      5  N   UNL     1       4.590  -1.410   2.132  0.00  0.00    -0.202 NA
ATOM      6  C   UNL     1       3.591  -1.520   2.998  0.00  0.00    +0.145 A 
ATOM      7  C   UNL     1       2.279  -1.187   2.610  0.00  0.00    +0.124 A 
ATOM      8  N   UNL     1       1.088  -1.189   3.233  0.00  0.00    -0.223 NA
ATOM      9  C   UNL     1       0.155  -0.775   2.410  0.00  0.00    +0.167 A 
ENDROOT
BRANCH   9  10
ATOM     10  C   UNL     1      -1.278  -0.640   2.746  0.00  0.00    +0.190 A 
ATOM     11  C   UNL     1      -1.889  -0.935   4.048  0.00  0.00    +0.191 A 
ATOM     12  N   UNL     1      -3.169  -0.697   3.965  0.00  0.00    -0.033 NA
ATOM     13  O   UNL     1      -3.445  -0.250   2.649  0.00  0.00    -0.240 OA
ATOM     14  N   UNL     1      -2.221  -0.231   1.936  0.00  0.00    -0.044 NA
ATOM     15  N   UNL     1      -1.219  -1.390   5.176  0.00  0.00    -0.339 N 
ATOM     16  H   UNL     1      -0.261  -1.539   5.144  0.00  0.00    +0.144 HD
ATOM     17  H   UNL     1      -1.709  -1.558   5.997  0.00  0.00    +0.144 HD
ENDBRANCH   9  10
BRANCH   1  19
ATOM     18  C   UNL     1      -0.019   1.526   0.010  0.00  0.00    +0.027 C 
ATOM     19  C   UNL     1       0.002  -0.004   0.002  0.00  0.00    +0.120 C 
ENDBRANCH   1  19
BRANCH   6  20
ATOM     20  C   UNL     1       3.848  -1.978   4.331  0.00  0.00    -0.041 C 
ATOM     21  C   UNL     1       4.058  -2.354   5.423  0.00  0.00    -0.061 C 
BRANCH  21  22
ATOM     22  C   UNL     1       4.321  -2.825   6.792  0.00  0.00    +0.121 C 
ATOM     23  C   UNL     1       3.010  -2.860   7.581  0.00  0.00    +0.055 C 
ATOM     24  C   UNL     1       4.923  -4.230   6.741  0.00  0.00    +0.055 C 
BRANCH  22  25
ATOM     25  O   UNL     1       5.239  -1.936   7.433  0.00  0.00    -0.377 OA
ATOM     26  H   UNL     1       4.922  -1.025   7.501  0.00  0.00    +0.211 HD
ENDBRANCH  22  25
ENDBRANCH  21  22
ENDBRANCH   6  20
BRANCH   4  27
ATOM     27  O   UNL     1       5.467  -0.901   0.051  0.00  0.00    -0.468 OA
BRANCH  27  28
ATOM     28  C   UNL     1       6.742  -1.271   0.579  0.00  0.00    +0.203 C 
BRANCH  28  29
ATOM     29  C   UNL     1       7.822  -0.477  -0.111  0.00  0.00    -0.007 A 
ATOM     30  C   UNL     1       7.689  -0.146  -1.446  0.00  0.00    +0.007 A 
ATOM     31  C   UNL     1       8.679   0.583  -2.079  0.00  0.00    +0.000 A 
ATOM     32  C   UNL     1       9.801   0.981  -1.376  0.00  0.00    +0.000 A 
ATOM     33  C   UNL     1       9.933   0.650  -0.041  0.00  0.00    +0.000 A 
ATOM     34  C   UNL     1       8.941  -0.075   0.593  0.00  0.00    +0.007 A 
ENDBRANCH  28  29
BRANCH  28  35
ATOM     35  C   UNL     1       6.978  -2.764   0.342  0.00  0.00    +0.030 C 
BRANCH  35  36
ATOM     36  C   UNL     1       5.957  -3.575   1.143  0.00  0.00    -0.083 C 
BRANCH  36  37
ATOM     37  N   UNL     1       6.184  -5.009   0.916  0.00  0.00    +0.378 N 
ATOM     38  H   UNL     1       7.116  -5.253   1.214  0.00  0.00    -0.090 HD
ATOM     39  H   UNL     1       5.511  -5.543   1.445  0.00  0.00    -0.090 HD
ATOM     40  H   UNL     1       6.080  -5.214  -0.066  0.00  0.00    -0.090 HD
ENDBRANCH  36  37
ENDBRANCH  35  36
ENDBRANCH  28  35
ENDBRANCH  27  28
ENDBRANCH   4  27
TORSDOF 11
