REMARK  Name = CHEMBL182101
REMARK  7 active torsions:
REMARK  status: ('A' for Active; 'I' for Inactive)
REMARK    1  A    between atoms: C_1  and  N_2
REMARK    2  A    between atoms: C_3  and  C_7
REMARK    3  A    between atoms: C_9  and  C_36
REMARK    4  A    between atoms: C_10  and  C_13
REMARK    5  A    between atoms: C_16  and  C_19
REMARK    6  A    between atoms: C_19  and  N_20
REMARK    7  A    between atoms: C_23  and  N_26
REMARK                            x       y       z     vdW  Elec       q    Type
REMARK                         _______ _______ _______ _____ _____    ______ ____
ROOT
ATOM      1  C   UNL     1       0.593   0.935  -6.472  0.00  0.00    +0.001 A 
ATOM      2  C   UNL     1       0.948   0.047  -7.488  0.00  0.00    +0.010 A 
ATOM      3  C   UNL     1       1.075   0.502  -8.784  0.00  0.00    +0.002 A 
ATOM      4  C   UNL     1       0.851   1.835  -9.078  0.00  0.00    -0.064 A 
ATOM      5  C   UNL     1       0.498   2.720  -8.075  0.00  0.00    +0.002 A 
ATOM      6  C   UNL     1       0.362   2.276  -6.776  0.00  0.00    +0.010 A 
ENDROOT
BRANCH   1  10
ATOM      7  C   UNL     1       0.214  -0.406  -2.492  0.00  0.00    +0.039 A 
ATOM      8  C   UNL     1      -0.163  -1.277  -3.518  0.00  0.00    +0.023 A 
ATOM      9  C   UNL     1      -0.040  -0.839  -4.835  0.00  0.00    +0.009 A 
ATOM     10  C   UNL     1       0.455   0.453  -5.078  0.00  0.00    +0.079 A 
ATOM     11  N   UNL     1       0.800   1.246  -4.073  0.00  0.00    -0.254 NA
ATOM     12  C   UNL     1       0.691   0.865  -2.818  0.00  0.00    +0.123 A 
BRANCH   7  15
ATOM     13  C   UNL     1      -0.046  -3.326  -1.409  0.00  0.00    +0.176 C 
ATOM     14  N   UNL     1      -0.010  -2.094  -0.618  0.00  0.00    -0.228 N 
ATOM     15  C   UNL     1       0.102  -0.823  -1.077  0.00  0.00    +0.183 A 
ATOM     16  N   UNL     1       0.093  -0.030  -0.026  0.00  0.00    -0.108 NA
ATOM     17  N   UNL     1      -0.016  -0.717   1.054  0.00  0.00    -0.023 NA
ATOM     18  N   UNL     1      -0.089  -1.975   0.781  0.00  0.00    -0.044 NA
ENDBRANCH   7  15
BRANCH   9  19
ATOM     19  C   UNL     1      -0.425  -1.723  -5.961  0.00  0.00    -0.016 A 
ATOM     20  C   UNL     1      -1.264  -1.248  -6.968  0.00  0.00    +0.008 A 
ATOM     21  C   UNL     1      -1.619  -2.074  -8.014  0.00  0.00    +0.001 A 
ATOM     22  C   UNL     1      -1.143  -3.372  -8.066  0.00  0.00    +0.000 A 
ATOM     23  C   UNL     1      -0.310  -3.849  -7.069  0.00  0.00    +0.001 A 
ATOM     24  C   UNL     1       0.055  -3.030  -6.021  0.00  0.00    +0.008 A 
ENDBRANCH   9  19
ENDBRANCH   1  10
BRANCH   4  25
ATOM     25  C   UNL     1       0.991   2.325 -10.496  0.00  0.00    -0.043 C 
BRANCH  25  26
ATOM     26  N   UNL     1      -0.301   2.209 -11.185  0.00  0.00    +0.382 N 
ATOM     27  C   UNL     1      -0.673   0.793 -11.289  0.00  0.00    -0.076 C 
ATOM     28  C   UNL     1      -2.055   0.671 -11.933  0.00  0.00    +0.006 C 
ATOM     29  C   UNL     1      -2.019   1.295 -13.331  0.00  0.00    +0.089 C 
ATOM     30  C   UNL     1      -1.558   2.751 -13.217  0.00  0.00    +0.006 C 
ATOM     31  C   UNL     1      -0.194   2.796 -12.526  0.00  0.00    -0.076 C 
ATOM     32  H   UNL     1      -1.007   2.702 -10.658  0.00  0.00    -0.081 HD
BRANCH  29  33
ATOM     33  N   UNL     1      -3.358   1.250 -13.923  0.00  0.00    -0.289 N 
ATOM     34  C   UNL     1      -3.706   0.594 -15.102  0.00  0.00    +0.070 A 
ATOM     35  C   UNL     1      -2.989  -0.158 -16.020  0.00  0.00    +0.028 A 
ATOM     36  C   UNL     1      -3.630  -0.693 -17.120  0.00  0.00    +0.002 A 
ATOM     37  C   UNL     1      -4.985  -0.481 -17.311  0.00  0.00    +0.002 A 
ATOM     38  C   UNL     1      -5.707   0.267 -16.402  0.00  0.00    +0.028 A 
ATOM     39  C   UNL     1      -5.073   0.807 -15.293  0.00  0.00    +0.067 A 
ATOM     40  N   UNL     1      -5.512   1.586 -14.225  0.00  0.00    -0.306 N 
ATOM     41  C   UNL     1      -4.463   1.830 -13.418  0.00  0.00    +0.328 A 
ATOM     42  O   UNL     1      -4.506   2.479 -12.390  0.00  0.00    -0.247 OA
ATOM     43  H   UNL     1      -6.421   1.895 -14.085  0.00  0.00    +0.170 HD
ENDBRANCH  29  33
ENDBRANCH  25  26
ENDBRANCH   4  25
TORSDOF 6
