REMARK  Name = CHEMBL1171840
REMARK  7 active torsions:
REMARK  status: ('A' for Active; 'I' for Inactive)
REMARK    1  A    between atoms: C_1  and  C_2
REMARK    2  A    between atoms: C_8  and  N_12
REMARK    3  A    between atoms: C_15  and  C_17
REMARK    4  A    between atoms: C_15  and  N_28
REMARK    5  A    between atoms: C_17  and  N_18
REMARK    6  A    between atoms: C_19  and  O_21
REMARK    7  A    between atoms: O_21  and  C_22
REMARK                            x       y       z     vdW  Elec       q    Type
REMARK                         _______ _______ _______ _____ _____    ______ ____
ROOT
ATOM      1  N   UNL     1      -0.207   0.719   2.712  0.00  0.00    -0.316 N 
ATOM      2  C   UNL     1      -0.303   1.982   1.959  0.00  0.00    +0.105 C 
ATOM      3  C   UNL     1      -0.810   3.021   2.991  0.00  0.00    +0.009 C 
ATOM      4  C   UNL     1      -0.071   2.568   4.277  0.00  0.00    -0.038 C 
ATOM      5  C   UNL     1      -0.052   1.031   4.140  0.00  0.00    +0.095 C 
ENDROOT
BRANCH   1  13
ATOM      6  C   UNL     1      -3.419   0.478   2.679  0.00  0.00    +0.046 C 
ATOM      7  C   UNL     1      -2.895  -0.815   2.110  0.00  0.00    -0.021 A 
ATOM      8  C   UNL     1      -3.627  -1.852   1.672  0.00  0.00    +0.088 A 
ATOM      9  N   UNL     1      -2.799  -2.849   1.226  0.00  0.00    -0.345 N 
ATOM     10  H   UNL     1      -3.097  -3.698   0.863  0.00  0.00    +0.167 HD
ATOM     11  C   UNL     1      -1.492  -2.472   1.368  0.00  0.00    +0.143 A 
ATOM     12  C   UNL     1      -1.492  -1.179   1.922  0.00  0.00    +0.061 A 
ATOM     13  C   UNL     1      -0.260  -0.551   2.166  0.00  0.00    +0.134 A 
ATOM     14  N   UNL     1       0.854  -1.208   1.858  0.00  0.00    -0.220 NA
ATOM     15  C   UNL     1       0.808  -2.421   1.336  0.00  0.00    +0.225 A 
ATOM     16  N   UNL     1      -0.323  -3.050   1.098  0.00  0.00    -0.218 NA
ENDBRANCH   1  13
BRANCH   4  17
ATOM     17  N   UNL     1       1.295   3.108   4.310  0.00  0.00    +0.384 N 
ATOM     18  H   UNL     1       1.258   4.117   4.317  0.00  0.00    -0.089 HD
ATOM     19  H   UNL     1       1.766   2.783   5.141  0.00  0.00    -0.089 HD
ATOM     20  H   UNL     1       1.800   2.796   3.493  0.00  0.00    -0.089 HD
ENDBRANCH   4  17
BRANCH   4  21
ATOM     21  C   UNL     1      -0.850   2.987   5.526  0.00  0.00    +0.096 C 
BRANCH  21  22
ATOM     22  N   UNL     1      -0.958   4.448   5.566  0.00  0.00    -0.282 N 
ATOM     23  C   UNL     1      -1.608   5.048   6.583  0.00  0.00    +0.406 C 
ATOM     24  O   UNL     1      -2.104   4.377   7.466  0.00  0.00    -0.226 OA
ATOM     25  H   UNL     1      -0.562   4.983   4.860  0.00  0.00    +0.152 HD
BRANCH  23  26
ATOM     26  O   UNL     1      -1.707   6.390   6.620  0.00  0.00    -0.412 OA
BRANCH  26  27
ATOM     27  C   UNL     1      -2.263   6.959   7.723  0.00  0.00    +0.133 A 
ATOM     28  C   UNL     1      -3.515   7.550   7.644  0.00  0.00    +0.046 A 
ATOM     29  C   UNL     1      -4.077   8.127   8.766  0.00  0.00    +0.004 A 
ATOM     30  C   UNL     1      -3.392   8.116   9.967  0.00  0.00    +0.000 A 
ATOM     31  C   UNL     1      -2.143   7.528  10.048  0.00  0.00    +0.004 A 
ATOM     32  C   UNL     1      -1.580   6.944   8.930  0.00  0.00    +0.046 A 
ENDBRANCH  26  27
ENDBRANCH  23  26
ENDBRANCH  21  22
ENDBRANCH   4  21
TORSDOF 6
