REMARK  Name = CHEMBL512480
REMARK  6 active torsions:
REMARK  status: ('A' for Active; 'I' for Inactive)
REMARK    1  A    between atoms: C_4  and  C_7
REMARK    2  A    between atoms: C_7  and  C_8
REMARK    3  A    between atoms: C_7  and  C_10
REMARK    4  A    between atoms: C_8  and  N_9
REMARK    5  A    between atoms: N_12  and  C_13
REMARK    6  A    between atoms: C_16  and  C_18
REMARK                            x       y       z     vdW  Elec       q    Type
REMARK                         _______ _______ _______ _____ _____    ______ ____
ROOT
ATOM      1  C   UNL     1       3.827  -1.402  -1.199  0.00  0.00    +0.223 C 
ATOM      2  O   UNL     1       2.935  -1.286  -2.012  0.00  0.00    -0.275 OA
ATOM      3  N   UNL     1       4.890  -2.184  -1.473  0.00  0.00    -0.280 N 
ATOM      4  H   UNL     1       5.637  -2.221  -0.855  0.00  0.00    +0.155 HD
ENDROOT
BRANCH   3   5
ATOM      5  C   UNL     1       4.917  -2.939  -2.644  0.00  0.00    +0.072 A 
ATOM      6  C   UNL     1       5.887  -3.789  -3.097  0.00  0.00    +0.032 A 
ATOM      7  C   UNL     1       5.699  -4.436  -4.295  0.00  0.00    +0.018 A 
ATOM      8  C   UNL     1       4.542  -4.208  -4.995  0.00  0.00    +0.022 A 
ATOM      9  S   UNL     1       3.688  -3.053  -3.934  0.00  0.00    -0.073 S 
BRANCH   8  10
ATOM     10  C   UNL     1       4.112  -4.773  -6.286  0.00  0.00    +0.001 A 
ATOM     11  C   UNL     1       4.960  -4.763  -7.398  0.00  0.00    +0.029 A 
ATOM     12  C   UNL     1       4.517  -5.305  -8.589  0.00  0.00    +0.114 A 
ATOM     13  N   UNL     1       3.314  -5.831  -8.707  0.00  0.00    -0.237 NA
ATOM     14  C   UNL     1       2.460  -5.871  -7.690  0.00  0.00    +0.139 A 
ATOM     15  C   UNL     1       2.833  -5.347  -6.440  0.00  0.00    +0.027 A 
ATOM     16  C   UNL     1       1.691  -5.551  -5.552  0.00  0.00    +0.029 A 
ATOM     17  C   UNL     1       0.738  -6.162  -6.276  0.00  0.00    +0.085 A 
ATOM     18  N   UNL     1       1.180  -6.353  -7.558  0.00  0.00    -0.346 N 
ATOM     19  H   UNL     1       0.669  -6.776  -8.265  0.00  0.00    +0.167 HD
ENDBRANCH   8  10
ENDBRANCH   3   5
BRANCH   1  20
ATOM     20  C   UNL     1       3.747  -0.673   0.118  0.00  0.00    +0.088 C 
BRANCH  20  24
ATOM     21  C   UNL     1       5.268   3.290  -0.357  0.00  0.00    +0.000 A 
ATOM     22  C   UNL     1       5.862   2.425   0.541  0.00  0.00    +0.000 A 
ATOM     23  C   UNL     1       5.370   1.142   0.695  0.00  0.00    +0.004 A 
ATOM     24  C   UNL     1       4.283   0.725  -0.050  0.00  0.00    -0.037 A 
ATOM     25  C   UNL     1       3.688   1.591  -0.948  0.00  0.00    +0.004 A 
ATOM     26  C   UNL     1       4.181   2.873  -1.103  0.00  0.00    +0.000 A 
ENDBRANCH  20  24
BRANCH  20  27
ATOM     27  C   UNL     1       2.289  -0.609   0.578  0.00  0.00    -0.069 C 
BRANCH  27  28
ATOM     28  N   UNL     1       1.806  -1.967   0.861  0.00  0.00    +0.379 N 
ATOM     29  H   UNL     1       2.319  -2.351   1.640  0.00  0.00    -0.090 HD
ATOM     30  H   UNL     1       0.823  -1.933   1.089  0.00  0.00    -0.090 HD
ATOM     31  H   UNL     1       1.942  -2.550   0.049  0.00  0.00    -0.090 HD
ENDBRANCH  27  28
ENDBRANCH  20  27
ENDBRANCH   1  20
TORSDOF 6
