REMARK  Name = CHEMBL202937
REMARK  7 active torsions:
REMARK  status: ('A' for Active; 'I' for Inactive)
REMARK    1  A    between atoms: C_1  and  N_2
REMARK    2  A    between atoms: C_4  and  C_11
REMARK    3  A    between atoms: C_11  and  C_12
REMARK    4  A    between atoms: C_11  and  C_14
REMARK    5  A    between atoms: C_12  and  N_13
REMARK    6  A    between atoms: C_16  and  C_20
REMARK    7  A    between atoms: C_21  and  C_22
REMARK                            x       y       z     vdW  Elec       q    Type
REMARK                         _______ _______ _______ _____ _____    ______ ____
ROOT
ATOM      1  C   UNL     1       0.039  -3.258  -1.721  0.00  0.00    +0.035 C 
ENDROOT
BRANCH   1   5
ATOM      2  C   UNL     1      -0.018   1.461   0.010  0.00  0.00    +0.149 C 
ATOM      3  N   UNL     1       0.002  -0.004   0.002  0.00  0.00    -0.349 N 
ATOM      4  C   UNL     1       0.008  -0.784  -1.122  0.00  0.00    +0.090 A 
ATOM      5  C   UNL     1       0.027  -2.082  -0.779  0.00  0.00    -0.017 A 
ATOM      6  C   UNL     1       0.034  -2.138   0.685  0.00  0.00    +0.004 A 
ATOM      7  C   UNL     1       0.024  -0.801   1.125  0.00  0.00    +0.049 A 
ATOM      8  C   UNL     1       0.032  -0.533   2.489  0.00  0.00    +0.026 A 
ATOM      9  C   UNL     1       0.055  -1.574   3.391  0.00  0.00    +0.002 A 
ATOM     10  C   UNL     1       0.069  -2.891   2.952  0.00  0.00    +0.001 A 
ATOM     11  C   UNL     1       0.051  -3.177   1.616  0.00  0.00    +0.010 A 
ENDBRANCH   1   5
BRANCH   1  12
ATOM     12  C   UNL     1      -1.196  -3.222  -2.585  0.00  0.00    -0.023 A 
ATOM     13  C   UNL     1      -2.100  -4.269  -2.554  0.00  0.00    +0.015 A 
ATOM     14  C   UNL     1      -3.234  -4.191  -3.374  0.00  0.00    -0.007 A 
ATOM     15  C   UNL     1      -3.404  -3.065  -4.185  0.00  0.00    +0.118 A 
ATOM     16  N   UNL     1      -2.513  -2.095  -4.177  0.00  0.00    -0.262 NA
ATOM     17  C   UNL     1      -1.440  -2.140  -3.411  0.00  0.00    +0.115 A 
BRANCH  14  18
ATOM     18  C   UNL     1      -4.230  -5.277  -3.383  0.00  0.00    +0.010 C 
ATOM     19  C   UNL     1      -5.312  -5.190  -4.173  0.00  0.00    +0.008 C 
BRANCH  19  20
ATOM     20  C   UNL     1      -6.307  -6.276  -4.181  0.00  0.00    -0.022 A 
ATOM     21  C   UNL     1      -6.148  -7.407  -3.368  0.00  0.00    +0.027 A 
ATOM     22  C   UNL     1      -7.104  -8.398  -3.407  0.00  0.00    +0.111 A 
ATOM     23  N   UNL     1      -8.158  -8.294  -4.196  0.00  0.00    -0.263 NA
ATOM     24  C   UNL     1      -8.347  -7.248  -4.978  0.00  0.00    +0.111 A 
ATOM     25  C   UNL     1      -7.444  -6.206  -4.998  0.00  0.00    +0.027 A 
ENDBRANCH  19  20
ENDBRANCH  14  18
ENDBRANCH   1  12
BRANCH   1  26
ATOM     26  C   UNL     1       1.283  -3.188  -2.608  0.00  0.00    -0.073 C 
BRANCH  26  27
ATOM     27  N   UNL     1       2.485  -3.344  -1.778  0.00  0.00    +0.379 N 
ATOM     28  H   UNL     1       3.306  -3.298  -2.363  0.00  0.00    -0.090 HD
ATOM     29  H   UNL     1       2.519  -2.603  -1.093  0.00  0.00    -0.090 HD
ATOM     30  H   UNL     1       2.457  -4.236  -1.308  0.00  0.00    -0.090 HD
ENDBRANCH  26  27
ENDBRANCH   1  26
TORSDOF 6
