REMARK  Name = CHEMBL252457
REMARK  7 active torsions:
REMARK  status: ('A' for Active; 'I' for Inactive)
REMARK    1  A    between atoms: C_1  and  S_2
REMARK    2  A    between atoms: S_2  and  C_3
REMARK    3  A    between atoms: C_8  and  C_29
REMARK    4  A    between atoms: C_9  and  C_13
REMARK    5  A    between atoms: C_16  and  C_19
REMARK    6  A    between atoms: C_19  and  N_20
REMARK    7  A    between atoms: C_23  and  C_26
REMARK                            x       y       z     vdW  Elec       q    Type
REMARK                         _______ _______ _______ _____ _____    ______ ____
ROOT
ATOM      1  C   UNL     1      -5.236  -5.226   0.038  0.00  0.00    +0.001 A 
ATOM      2  C   UNL     1      -6.352  -5.691   0.733  0.00  0.00    +0.010 A 
ATOM      3  C   UNL     1      -6.650  -7.038   0.729  0.00  0.00    +0.002 A 
ATOM      4  C   UNL     1      -5.845  -7.926   0.039  0.00  0.00    -0.064 A 
ATOM      5  C   UNL     1      -4.737  -7.471  -0.652  0.00  0.00    +0.002 A 
ATOM      6  C   UNL     1      -4.431  -6.125  -0.661  0.00  0.00    +0.010 A 
ENDROOT
BRANCH   1  13
ATOM      7  C   UNL     1      -1.702  -0.454   0.016  0.00  0.00    +0.190 A 
ATOM      8  N   UNL     1      -2.617   0.514   0.024  0.00  0.00    -0.230 NA
ATOM      9  C   UNL     1      -3.905   0.240   0.034  0.00  0.00    +0.125 A 
ATOM     10  C   UNL     1      -4.304  -1.109   0.036  0.00  0.00    +0.038 A 
ATOM     11  C   UNL     1      -5.657  -1.482   0.046  0.00  0.00    +0.023 A 
ATOM     12  C   UNL     1      -5.960  -2.835   0.046  0.00  0.00    +0.009 A 
ATOM     13  C   UNL     1      -4.910  -3.781   0.037  0.00  0.00    +0.081 A 
ATOM     14  N   UNL     1      -3.645  -3.404   0.028  0.00  0.00    -0.227 NA
ATOM     15  C   UNL     1      -3.302  -2.115   0.027  0.00  0.00    +0.165 A 
ATOM     16  N   UNL     1      -2.018  -1.735   0.012  0.00  0.00    -0.202 NA
BRANCH  12  17
ATOM     17  C   UNL     1      -7.372  -3.286   0.057  0.00  0.00    -0.016 A 
ATOM     18  C   UNL     1      -7.809  -4.240  -0.861  0.00  0.00    +0.008 A 
ATOM     19  C   UNL     1      -9.124  -4.656  -0.845  0.00  0.00    +0.001 A 
ATOM     20  C   UNL     1     -10.009  -4.128   0.078  0.00  0.00    +0.000 A 
ATOM     21  C   UNL     1      -9.581  -3.181   0.991  0.00  0.00    +0.001 A 
ATOM     22  C   UNL     1      -8.267  -2.762   0.989  0.00  0.00    +0.008 A 
ENDBRANCH  12  17
BRANCH   7  24
ATOM     23  C   UNL     1      -0.022   1.810   0.012  0.00  0.00    +0.093 C 
ATOM     24  S   UNL     1       0.002  -0.004   0.002  0.00  0.00    -0.089 S 
ENDBRANCH   7  24
ENDBRANCH   1  13
BRANCH   4  25
ATOM     25  C   UNL     1      -6.176  -9.397   0.039  0.00  0.00    -0.043 C 
BRANCH  25  26
ATOM     26  N   UNL     1      -7.062  -9.699  -1.093  0.00  0.00    +0.382 N 
ATOM     27  C   UNL     1      -8.342  -9.004  -0.910  0.00  0.00    -0.078 C 
ATOM     28  C   UNL     1      -9.239  -9.250  -2.125  0.00  0.00    -0.006 C 
ATOM     29  C   UNL     1      -9.489 -10.754  -2.271  0.00  0.00    +0.071 C 
ATOM     30  C   UNL     1      -8.144 -11.477  -2.387  0.00  0.00    -0.006 C 
ATOM     31  C   UNL     1      -7.288 -11.148  -1.162  0.00  0.00    -0.078 C 
ATOM     32  H   UNL     1      -6.631  -9.386  -1.949  0.00  0.00    -0.081 HD
BRANCH  29  33
ATOM     33  C   UNL     1     -10.307 -11.011  -3.511  0.00  0.00    +0.213 C 
ATOM     34  O   UNL     1     -10.656 -10.083  -4.210  0.00  0.00    -0.276 OA
ATOM     35  N   UNL     1     -10.651 -12.271  -3.843  0.00  0.00    -0.329 N 
ATOM     36  H   UNL     1     -10.372 -13.013  -3.284  0.00  0.00    +0.145 HD
ATOM     37  H   UNL     1     -11.177 -12.436  -4.641  0.00  0.00    +0.145 HD
ENDBRANCH  29  33
ENDBRANCH  25  26
ENDBRANCH   4  25
TORSDOF 6
