REMARK  Name = CHEMBL578418
REMARK  7 active torsions:
REMARK  status: ('A' for Active; 'I' for Inactive)
REMARK    1  A    between atoms: C_7  and  C_11
REMARK    2  A    between atoms: C_11  and  C_12
REMARK    3  A    between atoms: C_12  and  C_14
REMARK    4  A    between atoms: C_12  and  N_38
REMARK    5  A    between atoms: C_14  and  O_15
REMARK    6  A    between atoms: O_15  and  C_16
REMARK    7  A    between atoms: C_18  and  C_22
REMARK                            x       y       z     vdW  Elec       q    Type
REMARK                         _______ _______ _______ _____ _____    ______ ____
ROOT
ATOM      1  C   UNL     1      -0.468  -7.257  -3.188  0.00  0.00    +0.139 A 
ATOM      2  C   UNL     1      -1.030  -7.498  -4.436  0.00  0.00    +0.057 A 
ATOM      3  C   UNL     1      -1.958  -8.535  -4.554  0.00  0.00    +0.004 A 
ATOM      4  C   UNL     1      -2.282  -9.283  -3.424  0.00  0.00    +0.119 A 
ATOM      5  N   UNL     1      -1.725  -9.020  -2.260  0.00  0.00    -0.259 NA
ATOM      6  C   UNL     1      -0.841  -8.052  -2.114  0.00  0.00    +0.156 A 
ENDROOT
BRANCH   3   7
ATOM      7  C   UNL     1      -2.590  -8.835  -5.863  0.00  0.00    -0.016 A 
ATOM      8  C   UNL     1      -2.250  -8.078  -6.991  0.00  0.00    +0.010 A 
ATOM      9  C   UNL     1      -2.820  -8.341  -8.202  0.00  0.00    +0.028 A 
ATOM     10  C   UNL     1      -3.752  -9.370  -8.329  0.00  0.00    +0.068 A 
ATOM     11  C   UNL     1      -4.101 -10.138  -7.201  0.00  0.00    +0.042 A 
ATOM     12  C   UNL     1      -3.509  -9.867  -5.966  0.00  0.00    +0.022 A 
ATOM     13  C   UNL     1      -5.085 -11.120  -7.661  0.00  0.00    +0.151 A 
ATOM     14  N   UNL     1      -5.274 -10.922  -8.939  0.00  0.00    -0.158 NA
ATOM     15  N   UNL     1      -4.477  -9.862  -9.383  0.00  0.00    -0.275 N 
ATOM     16  H   UNL     1      -4.444  -9.527 -10.292  0.00  0.00    +0.189 HD
ATOM     17  N   UNL     1      -5.710 -12.093  -6.876  0.00  0.00    -0.309 N 
ATOM     18  C   UNL     1      -5.538 -12.112  -5.415  0.00  0.00    +0.134 C 
ATOM     19  C   UNL     1      -6.924 -12.194  -4.766  0.00  0.00    +0.178 C 
ATOM     20  O   UNL     1      -7.646 -13.289  -5.335  0.00  0.00    -0.377 OA
ATOM     21  C   UNL     1      -7.895 -13.161  -6.736  0.00  0.00    +0.178 C 
ATOM     22  C   UNL     1      -6.563 -13.125  -7.486  0.00  0.00    +0.134 C 
ENDBRANCH   3   7
BRANCH   1  23
ATOM     23  O   UNL     1       0.440  -6.259  -3.024  0.00  0.00    -0.492 OA
BRANCH  23  24
ATOM     24  C   UNL     1       0.976  -6.080  -1.712  0.00  0.00    +0.213 C 
BRANCH  24  25
ATOM     25  C   UNL     1       1.974  -4.920  -1.722  0.00  0.00    -0.033 C 
BRANCH  25  26
ATOM     26  N   UNL     1       1.266  -3.669  -2.028  0.00  0.00    +0.382 N 
ATOM     27  H   UNL     1       0.827  -3.743  -2.933  0.00  0.00    -0.089 HD
ATOM     28  H   UNL     1       0.562  -3.500  -1.325  0.00  0.00    -0.089 HD
ATOM     29  H   UNL     1       1.924  -2.904  -2.035  0.00  0.00    -0.089 HD
ENDBRANCH  25  26
BRANCH  25  30
ATOM     30  C   UNL     1       2.640  -4.807  -0.349  0.00  0.00    +0.024 C 
BRANCH  30  37
ATOM     31  C   UNL     1       2.560  -0.150   0.184  0.00  0.00    +0.001 A 
ATOM     32  C   UNL     1       3.815   0.430   0.057  0.00  0.00    +0.002 A 
ATOM     33  C   UNL     1       4.924  -0.344  -0.201  0.00  0.00    +0.026 A 
ATOM     34  C   UNL     1       4.789  -1.722  -0.335  0.00  0.00    +0.047 A 
ATOM     35  C   UNL     1       3.516  -2.306  -0.204  0.00  0.00    +0.003 A 
ATOM     36  C   UNL     1       2.404  -1.502   0.057  0.00  0.00    +0.010 A 
ATOM     37  C   UNL     1       3.708  -3.745  -0.395  0.00  0.00    -0.024 A 
ATOM     38  C   UNL     1       5.018  -3.940  -0.619  0.00  0.00    +0.087 A 
ATOM     39  N   UNL     1       5.679  -2.742  -0.586  0.00  0.00    -0.360 N 
ATOM     40  H   UNL     1       6.633  -2.629  -0.720  0.00  0.00    +0.165 HD
ENDBRANCH  30  37
ENDBRANCH  25  30
ENDBRANCH  24  25
ENDBRANCH  23  24
ENDBRANCH   1  23
TORSDOF 7
