REMARK  Name = CHEMBL270847
REMARK  6 active torsions:
REMARK  status: ('A' for Active; 'I' for Inactive)
REMARK    1  A    between atoms: C_4  and  C_7
REMARK    2  A    between atoms: C_9  and  C_37
REMARK    3  A    between atoms: C_12  and  C_13
REMARK    4  A    between atoms: C_16  and  C_19
REMARK    5  A    between atoms: C_19  and  N_20
REMARK    6  A    between atoms: C_23  and  N_26
REMARK                            x       y       z     vdW  Elec       q    Type
REMARK                         _______ _______ _______ _____ _____    ______ ____
ROOT
ATOM      1  C   UNL     1       2.918  -2.088   1.874  0.00  0.00    +0.001 A 
ATOM      2  C   UNL     1       2.088  -1.107   2.417  0.00  0.00    +0.010 A 
ATOM      3  C   UNL     1       1.126  -1.457   3.343  0.00  0.00    +0.002 A 
ATOM      4  C   UNL     1       0.984  -2.777   3.731  0.00  0.00    -0.064 A 
ATOM      5  C   UNL     1       1.804  -3.754   3.196  0.00  0.00    +0.002 A 
ATOM      6  C   UNL     1       2.765  -3.418   2.265  0.00  0.00    +0.010 A 
ENDROOT
BRANCH   1  12
ATOM      7  C   UNL     1       3.698  -0.688  -0.038  0.00  0.00    +0.009 A 
ATOM      8  C   UNL     1       4.684  -0.349  -0.963  0.00  0.00    +0.023 A 
ATOM      9  C   UNL     1       5.888  -1.059  -0.937  0.00  0.00    +0.041 A 
ATOM     10  C   UNL     1       6.060  -2.075   0.005  0.00  0.00    +0.123 A 
ATOM     11  N   UNL     1       5.108  -2.371   0.864  0.00  0.00    -0.254 NA
ATOM     12  C   UNL     1       3.953  -1.719   0.880  0.00  0.00    +0.079 A 
BRANCH   7  16
ATOM     13  C   UNL     1      -0.017   1.379   0.010  0.00  0.00    +0.000 A 
ATOM     14  C   UNL     1       1.169   2.092   0.002  0.00  0.00    +0.001 A 
ATOM     15  C   UNL     1       2.377   1.427  -0.013  0.00  0.00    +0.008 A 
ATOM     16  C   UNL     1       2.402   0.033  -0.021  0.00  0.00    -0.016 A 
ATOM     17  C   UNL     1       1.205  -0.680  -0.013  0.00  0.00    +0.008 A 
ATOM     18  C   UNL     1       0.002  -0.004   0.002  0.00  0.00    +0.001 A 
ENDBRANCH   7  16
BRANCH   9  19
ATOM     19  C   UNL     1       6.966  -0.738  -1.898  0.00  0.00    +0.208 A 
ATOM     20  N   UNL     1       6.941   0.204  -2.842  0.00  0.00    -0.106 NA
ATOM     21  N   UNL     1       8.070   0.162  -3.462  0.00  0.00    -0.021 NA
ATOM     22  N   UNL     1       8.802  -0.764  -2.949  0.00  0.00    -0.021 NA
ATOM     23  N   UNL     1       8.159  -1.331  -1.987  0.00  0.00    -0.106 NA
ENDBRANCH   9  19
ENDBRANCH   1  12
BRANCH   4  24
ATOM     24  C   UNL     1      -0.069  -3.152   4.742  0.00  0.00    -0.043 C 
BRANCH  24  25
ATOM     25  N   UNL     1      -1.322  -3.477   4.047  0.00  0.00    +0.382 N 
ATOM     26  C   UNL     1      -1.830  -2.278   3.372  0.00  0.00    -0.076 C 
ATOM     27  C   UNL     1      -3.091  -2.630   2.579  0.00  0.00    +0.006 C 
ATOM     28  C   UNL     1      -4.157  -3.167   3.539  0.00  0.00    +0.089 C 
ATOM     29  C   UNL     1      -3.589  -4.374   4.292  0.00  0.00    +0.006 C 
ATOM     30  C   UNL     1      -2.310  -3.957   5.021  0.00  0.00    -0.076 C 
ATOM     31  H   UNL     1      -1.148  -4.198   3.363  0.00  0.00    -0.081 HD
BRANCH  28  32
ATOM     32  N   UNL     1      -5.340  -3.577   2.778  0.00  0.00    -0.289 N 
ATOM     33  C   UNL     1      -6.623  -3.055   2.922  0.00  0.00    +0.070 A 
ATOM     34  C   UNL     1      -7.166  -2.078   3.742  0.00  0.00    +0.028 A 
ATOM     35  C   UNL     1      -8.510  -1.773   3.651  0.00  0.00    +0.002 A 
ATOM     36  C   UNL     1      -9.317  -2.439   2.744  0.00  0.00    +0.002 A 
ATOM     37  C   UNL     1      -8.785  -3.414   1.923  0.00  0.00    +0.028 A 
ATOM     38  C   UNL     1      -7.437  -3.727   2.007  0.00  0.00    +0.067 A 
ATOM     39  N   UNL     1      -6.622  -4.636   1.335  0.00  0.00    -0.306 N 
ATOM     40  H   UNL     1      -6.908  -5.246   0.638  0.00  0.00    +0.170 HD
ATOM     41  C   UNL     1      -5.370  -4.518   1.815  0.00  0.00    +0.328 A 
ATOM     42  O   UNL     1      -4.412  -5.167   1.439  0.00  0.00    -0.247 OA
ENDBRANCH  28  32
ENDBRANCH  24  25
ENDBRANCH   4  24
TORSDOF 6
