REMARK  Name = CHEMBL408151
REMARK  6 active torsions:
REMARK  status: ('A' for Active; 'I' for Inactive)
REMARK    1  A    between atoms: C_4  and  C_7
REMARK    2  A    between atoms: C_8  and  C_22
REMARK    3  A    between atoms: C_12  and  C_17
REMARK    4  A    between atoms: C_25  and  C_28
REMARK    5  A    between atoms: C_28  and  N_29
REMARK    6  A    between atoms: C_32  and  N_35
REMARK                            x       y       z     vdW  Elec       q    Type
REMARK                         _______ _______ _______ _____ _____    ______ ____
ROOT
ATOM      1  C   UNL     1       2.738  -2.360   1.567  0.00  0.00    +0.002 A 
ATOM      2  C   UNL     1       1.802  -1.468   2.089  0.00  0.00    +0.010 A 
ATOM      3  C   UNL     1       0.758  -1.939   2.858  0.00  0.00    +0.002 A 
ATOM      4  C   UNL     1       0.638  -3.294   3.111  0.00  0.00    -0.064 A 
ATOM      5  C   UNL     1       1.563  -4.184   2.596  0.00  0.00    +0.002 A 
ATOM      6  C   UNL     1       2.608  -3.725   1.820  0.00  0.00    +0.010 A 
ENDROOT
BRANCH   1   8
ATOM      7  C   UNL     1       3.618  -0.901  -0.274  0.00  0.00    +0.098 A 
ATOM      8  C   UNL     1       3.861  -1.860   0.741  0.00  0.00    +0.098 A 
ATOM      9  N   UNL     1       5.084  -2.310   0.953  0.00  0.00    -0.243 NA
ATOM     10  C   UNL     1       6.098  -1.857   0.206  0.00  0.00    +0.091 A 
ATOM     11  C   UNL     1       7.406  -2.324   0.416  0.00  0.00    +0.041 A 
ATOM     12  C   UNL     1       8.437  -1.840  -0.370  0.00  0.00    +0.025 A 
ATOM     13  C   UNL     1       8.184  -0.889  -1.373  0.00  0.00    +0.014 A 
ATOM     14  C   UNL     1       6.926  -0.426  -1.591  0.00  0.00    +0.030 A 
ATOM     15  C   UNL     1       5.855  -0.897  -0.810  0.00  0.00    +0.090 A 
ATOM     16  N   UNL     1       4.612  -0.452  -1.019  0.00  0.00    -0.243 NA
BRANCH   7  20
ATOM     17  C   UNL     1      -0.330   0.526  -0.933  0.00  0.00    +0.000 A 
ATOM     18  C   UNL     1       0.726   1.418  -0.889  0.00  0.00    +0.001 A 
ATOM     19  C   UNL     1       2.010   0.961  -0.675  0.00  0.00    +0.010 A 
ATOM     20  C   UNL     1       2.242  -0.403  -0.503  0.00  0.00    +0.002 A 
ATOM     21  C   UNL     1       1.173  -1.298  -0.549  0.00  0.00    +0.010 A 
ATOM     22  C   UNL     1      -0.107  -0.829  -0.764  0.00  0.00    +0.001 A 
ENDBRANCH   7  20
BRANCH  12  23
ATOM     23  C   UNL     1       9.817  -2.329  -0.152  0.00  0.00    +0.207 A 
ATOM     24  N   UNL     1      10.909  -1.960  -0.824  0.00  0.00    -0.106 NA
ATOM     25  N   UNL     1      11.905  -2.614  -0.331  0.00  0.00    -0.021 NA
ATOM     26  N   UNL     1      11.487  -3.374   0.619  0.00  0.00    -0.021 NA
ATOM     27  N   UNL     1      10.214  -3.219   0.758  0.00  0.00    -0.106 NA
ENDBRANCH  12  23
ENDBRANCH   1   8
BRANCH   4  28
ATOM     28  C   UNL     1      -0.504  -3.803   3.953  0.00  0.00    -0.043 C 
BRANCH  28  29
ATOM     29  N   UNL     1      -1.650  -4.112   3.087  0.00  0.00    +0.382 N 
ATOM     30  C   UNL     1      -2.137  -2.877   2.462  0.00  0.00    -0.076 C 
ATOM     31  C   UNL     1      -3.278  -3.205   1.497  0.00  0.00    +0.006 C 
ATOM     32  C   UNL     1      -4.419  -3.871   2.272  0.00  0.00    +0.089 C 
ATOM     33  C   UNL     1      -3.882  -5.117   2.980  0.00  0.00    +0.006 C 
ATOM     34  C   UNL     1      -2.718  -4.719   3.890  0.00  0.00    -0.076 C 
ATOM     35  H   UNL     1      -1.362  -4.760   2.369  0.00  0.00    -0.081 HD
BRANCH  32  36
ATOM     36  N   UNL     1      -5.483  -4.256   1.341  0.00  0.00    -0.289 N 
ATOM     37  C   UNL     1      -6.800  -3.802   1.375  0.00  0.00    +0.070 A 
ATOM     38  C   UNL     1      -7.483  -2.927   2.206  0.00  0.00    +0.028 A 
ATOM     39  C   UNL     1      -8.821  -2.669   1.981  0.00  0.00    +0.002 A 
ATOM     40  C   UNL     1      -9.483  -3.281   0.930  0.00  0.00    +0.002 A 
ATOM     41  C   UNL     1      -8.810  -4.154   0.098  0.00  0.00    +0.028 A 
ATOM     42  C   UNL     1      -7.467  -4.419   0.315  0.00  0.00    +0.067 A 
ATOM     43  N   UNL     1      -6.535  -5.229  -0.330  0.00  0.00    -0.306 N 
ATOM     44  H   UNL     1      -6.707  -5.783  -1.107  0.00  0.00    +0.170 HD
ATOM     45  C   UNL     1      -5.354  -5.105   0.305  0.00  0.00    +0.328 A 
ATOM     46  O   UNL     1      -4.327  -5.678  -0.009  0.00  0.00    -0.247 OA
ENDBRANCH  32  36
ENDBRANCH  28  29
ENDBRANCH   4  28
TORSDOF 6
