REMARK  Name = CHEMBL383254
REMARK  6 active torsions:
REMARK  status: ('A' for Active; 'I' for Inactive)
REMARK    1  A    between atoms: C_4  and  C_7
REMARK    2  A    between atoms: C_7  and  C_8
REMARK    3  A    between atoms: C_7  and  C_10
REMARK    4  A    between atoms: C_8  and  N_9
REMARK    5  A    between atoms: C_12  and  C_16
REMARK    6  A    between atoms: C_17  and  C_18
REMARK                            x       y       z     vdW  Elec       q    Type
REMARK                         _______ _______ _______ _____ _____    ______ ____
ROOT
ATOM      1  C   UNL     1       3.870  -1.483   1.245  0.00  0.00    -0.023 A 
ATOM      2  C   UNL     1       4.872  -1.155   2.140  0.00  0.00    +0.015 A 
ATOM      3  C   UNL     1       4.980  -1.904   3.320  0.00  0.00    -0.007 A 
ATOM      4  C   UNL     1       4.076  -2.947   3.541  0.00  0.00    +0.118 A 
ATOM      5  N   UNL     1       3.140  -3.219   2.656  0.00  0.00    -0.262 NA
ATOM      6  C   UNL     1       3.012  -2.527   1.541  0.00  0.00    +0.115 A 
ENDROOT
BRANCH   3   7
ATOM      7  C   UNL     1       6.029  -1.598   4.309  0.00  0.00    +0.010 C 
ATOM      8  C   UNL     1       6.122  -2.324   5.435  0.00  0.00    +0.008 C 
BRANCH   8   9
ATOM      9  C   UNL     1       7.170  -2.019   6.424  0.00  0.00    -0.022 A 
ATOM     10  C   UNL     1       8.078  -0.971   6.212  0.00  0.00    +0.027 A 
ATOM     11  C   UNL     1       9.042  -0.721   7.165  0.00  0.00    +0.111 A 
ATOM     12  N   UNL     1       9.118  -1.450   8.261  0.00  0.00    -0.263 NA
ATOM     13  C   UNL     1       8.285  -2.445   8.501  0.00  0.00    +0.111 A 
ATOM     14  C   UNL     1       7.285  -2.763   7.606  0.00  0.00    +0.027 A 
ENDBRANCH   8   9
ENDBRANCH   3   7
BRANCH   1  15
ATOM     15  C   UNL     1       3.711  -0.707  -0.038  0.00  0.00    +0.033 C 
BRANCH  15  19
ATOM     16  C   UNL     1       0.082   1.541   0.101  0.00  0.00    +0.000 A 
ATOM     17  C   UNL     1       0.038   0.161   0.044  0.00  0.00    +0.000 A 
ATOM     18  C   UNL     1       1.212  -0.567  -0.001  0.00  0.00    +0.004 A 
ATOM     19  C   UNL     1       2.431   0.086   0.010  0.00  0.00    -0.042 A 
ATOM     20  C   UNL     1       2.475   1.467   0.066  0.00  0.00    +0.004 A 
ATOM     21  C   UNL     1       1.300   2.194   0.112  0.00  0.00    +0.000 A 
ENDBRANCH  15  19
BRANCH  15  22
ATOM     22  C   UNL     1       3.666  -1.678  -1.219  0.00  0.00    -0.074 C 
BRANCH  22  23
ATOM     23  N   UNL     1       3.631  -0.919  -2.476  0.00  0.00    +0.379 N 
ATOM     24  H   UNL     1       2.811  -0.332  -2.492  0.00  0.00    -0.090 HD
ATOM     25  H   UNL     1       4.458  -0.345  -2.545  0.00  0.00    -0.090 HD
ATOM     26  H   UNL     1       3.601  -1.560  -3.255  0.00  0.00    -0.090 HD
ENDBRANCH  22  23
ENDBRANCH  15  22
ENDBRANCH   1  15
TORSDOF 6
