REMARK  Name = CHEMBL286737
REMARK  4 active torsions:
REMARK  status: ('A' for Active; 'I' for Inactive)
REMARK    1  A    between atoms: C_3  and  S_8
REMARK    2  A    between atoms: C_6  and  N_7
REMARK    3  A    between atoms: S_8  and  N_11
REMARK    4  A    between atoms: N_11  and  C_12
REMARK                            x       y       z     vdW  Elec       q    Type
REMARK                         _______ _______ _______ _____ _____    ______ ____
ROOT
ATOM      1  C   UNL     1      -0.017   1.385   0.010  0.00  0.00    +0.024 A 
ATOM      2  C   UNL     1       1.171   2.090   0.002  0.00  0.00    +0.030 A 
ATOM      3  C   UNL     1       2.377   1.415  -0.013  0.00  0.00    +0.111 A 
ATOM      4  C   UNL     1       2.400   0.032  -0.021  0.00  0.00    +0.030 A 
ATOM      5  C   UNL     1       1.216  -0.679  -0.014  0.00  0.00    +0.024 A 
ATOM      6  C   UNL     1       0.002  -0.004   0.002  0.00  0.00    +0.025 A 
ENDROOT
BRANCH   6   7
ATOM      7  N   UNL     1      -1.197  -0.720   0.010  0.00  0.00    -0.358 N 
ATOM      8  H   UNL     1      -2.044  -0.248   0.021  0.00  0.00    +0.142 HD
ATOM      9  H   UNL     1      -1.183  -1.690   0.005  0.00  0.00    +0.142 HD
ENDBRANCH   6   7
BRANCH   3  10
ATOM     10  S   UNL     1       3.890   2.319  -0.024  0.00  0.00    +0.094 S 
ATOM     11  O   UNL     1       4.872   1.461  -0.589  0.00  0.00    -0.148 OA
ATOM     12  O   UNL     1       3.595   3.599  -0.566  0.00  0.00    -0.148 OA
BRANCH  10  13
ATOM     13  N   UNL     1       4.326   2.562   1.555  0.00  0.00    -0.069 NA
BRANCH  13  14
ATOM     14  C   UNL     1       5.490   3.254   1.854  0.00  0.00    +0.223 A 
ATOM     15  N   UNL     1       6.387   3.805   1.046  0.00  0.00    -0.123 NA
ATOM     16  N   UNL     1       7.403   4.406   1.492  0.00  0.00    -0.148 NA
ATOM     17  C   UNL     1       7.638   4.524   2.783  0.00  0.00    +0.183 A 
ATOM     18  S   UNL     1       6.210   3.666   3.440  0.00  0.00    -0.036 S 
ENDBRANCH  13  14
ENDBRANCH  10  13
ENDBRANCH   3  10
TORSDOF 4
