REMARK  Name = CHEMBL469560
REMARK  7 active torsions:
REMARK  status: ('A' for Active; 'I' for Inactive)
REMARK    1  A    between atoms: C_4  and  C_7
REMARK    2  A    between atoms: C_7  and  C_8
REMARK    3  A    between atoms: C_7  and  N_10
REMARK    4  A    between atoms: C_8  and  N_9
REMARK    5  A    between atoms: N_10  and  C_11
REMARK    6  A    between atoms: C_11  and  C_12
REMARK    7  A    between atoms: C_15  and  C_17
REMARK                            x       y       z     vdW  Elec       q    Type
REMARK                         _______ _______ _______ _____ _____    ______ ____
ROOT
ATOM      1  C   UNL     1       4.989  -2.273  -1.333  0.00  0.00    +0.124 C 
ENDROOT
BRANCH   1   2
ATOM      2  C   UNL     1       4.799  -3.483  -2.210  0.00  0.00    +0.004 A 
ATOM      3  C   UNL     1       4.694  -3.549  -3.563  0.00  0.00    +0.013 A 
ATOM      4  C   UNL     1       4.522  -4.776  -4.163  0.00  0.00    +0.016 A 
ATOM      5  C   UNL     1       4.463  -5.894  -3.372  0.00  0.00    +0.020 A 
ATOM      6  S   UNL     1       4.661  -5.200  -1.739  0.00  0.00    -0.092 S 
BRANCH   5   7
ATOM      7  C   UNL     1       4.287  -7.304  -3.767  0.00  0.00    +0.001 A 
ATOM      8  C   UNL     1       3.263  -7.688  -4.638  0.00  0.00    +0.029 A 
ATOM      9  C   UNL     1       3.135  -9.020  -4.982  0.00  0.00    +0.114 A 
ATOM     10  N   UNL     1       3.952  -9.940  -4.511  0.00  0.00    -0.237 NA
ATOM     11  C   UNL     1       4.944  -9.642  -3.681  0.00  0.00    +0.139 A 
ATOM     12  C   UNL     1       5.149  -8.309  -3.284  0.00  0.00    +0.027 A 
ATOM     13  C   UNL     1       6.305  -8.320  -2.389  0.00  0.00    +0.029 A 
ATOM     14  C   UNL     1       6.719  -9.595  -2.303  0.00  0.00    +0.085 A 
ATOM     15  N   UNL     1       5.911 -10.398  -3.063  0.00  0.00    -0.346 N 
ATOM     16  H   UNL     1       6.013 -11.358  -3.160  0.00  0.00    +0.167 HD
ENDBRANCH   5   7
ENDBRANCH   1   2
BRANCH   1  17
ATOM     17  N   UNL     1       3.678  -1.740  -0.942  0.00  0.00    -0.307 NA
ATOM     18  H   UNL     1       3.158  -2.416  -0.403  0.00  0.00    +0.123 HD
BRANCH  17  19
ATOM     19  C   UNL     1       3.821  -0.477  -0.204  0.00  0.00    +0.067 C 
BRANCH  19  23
ATOM     20  C   UNL     1       0.576   2.121  -1.189  0.00  0.00    +0.000 A 
ATOM     21  C   UNL     1       1.853   2.632  -1.047  0.00  0.00    +0.000 A 
ATOM     22  C   UNL     1       2.902   1.792  -0.728  0.00  0.00    +0.005 A 
ATOM     23  C   UNL     1       2.676   0.440  -0.551  0.00  0.00    -0.032 A 
ATOM     24  C   UNL     1       1.399  -0.072  -0.692  0.00  0.00    +0.005 A 
ATOM     25  C   UNL     1       0.350   0.769  -1.012  0.00  0.00    +0.000 A 
ENDBRANCH  19  23
BRANCH  19  26
ATOM     26  C   UNL     1       3.810  -0.761   1.299  0.00  0.00    -0.063 C 
BRANCH  26  27
ATOM     27  N   UNL     1       4.883  -1.709   1.626  0.00  0.00    +0.379 N 
ATOM     28  H   UNL     1       4.893  -1.875   2.622  0.00  0.00    -0.090 HD
ATOM     29  H   UNL     1       4.722  -2.579   1.142  0.00  0.00    -0.090 HD
ATOM     30  H   UNL     1       5.771  -1.324   1.340  0.00  0.00    -0.090 HD
ENDBRANCH  26  27
ENDBRANCH  19  26
ENDBRANCH  17  19
ENDBRANCH   1  17
TORSDOF 7
