REMARK  Name = CHEMBL469561
REMARK  7 active torsions:
REMARK  status: ('A' for Active; 'I' for Inactive)
REMARK    1  A    between atoms: C_4  and  C_7
REMARK    2  A    between atoms: C_7  and  C_8
REMARK    3  A    between atoms: C_7  and  C_10
REMARK    4  A    between atoms: C_8  and  N_9
REMARK    5  A    between atoms: C_10  and  N_11
REMARK    6  A    between atoms: N_11  and  C_12
REMARK    7  A    between atoms: C_15  and  C_17
REMARK                            x       y       z     vdW  Elec       q    Type
REMARK                         _______ _______ _______ _____ _____    ______ ____
ROOT
ATOM      1  N   UNL     1       5.143  -2.215   1.251  0.00  0.00    -0.338 N 
ATOM      2  H   UNL     1       5.788  -2.032   0.550  0.00  0.00    +0.147 HD
ENDROOT
BRANCH   1   3
ATOM      3  C   UNL     1       5.475  -3.068   2.298  0.00  0.00    +0.066 A 
ATOM      4  C   UNL     1       6.646  -3.737   2.524  0.00  0.00    +0.031 A 
ATOM      5  C   UNL     1       6.753  -4.535   3.638  0.00  0.00    +0.018 A 
ATOM      6  C   UNL     1       5.680  -4.634   4.486  0.00  0.00    +0.022 A 
ATOM      7  S   UNL     1       4.485  -3.567   3.698  0.00  0.00    -0.074 S 
BRANCH   6   8
ATOM      8  C   UNL     1       5.548  -5.414   5.728  0.00  0.00    +0.001 A 
ATOM      9  C   UNL     1       5.894  -6.770   5.770  0.00  0.00    +0.029 A 
ATOM     10  C   UNL     1       5.755  -7.463   6.956  0.00  0.00    +0.114 A 
ATOM     11  N   UNL     1       5.305  -6.883   8.051  0.00  0.00    -0.237 NA
ATOM     12  C   UNL     1       4.960  -5.600   8.078  0.00  0.00    +0.139 A 
ATOM     13  C   UNL     1       5.075  -4.819   6.916  0.00  0.00    +0.027 A 
ATOM     14  C   UNL     1       4.630  -3.475   7.278  0.00  0.00    +0.029 A 
ATOM     15  C   UNL     1       4.291  -3.514   8.578  0.00  0.00    +0.085 A 
ATOM     16  N   UNL     1       4.476  -4.779   9.068  0.00  0.00    -0.346 N 
ATOM     17  H   UNL     1       4.300  -5.053   9.982  0.00  0.00    +0.167 HD
ENDBRANCH   6   8
ENDBRANCH   1   3
BRANCH   1  18
ATOM     18  C   UNL     1       3.817  -1.592   1.206  0.00  0.00    +0.108 C 
BRANCH  18  19
ATOM     19  C   UNL     1       3.711  -0.707  -0.038  0.00  0.00    +0.018 C 
BRANCH  19  23
ATOM     20  C   UNL     1      -0.017   1.378   0.010  0.00  0.00    +0.000 A 
ATOM     21  C   UNL     1       1.171   2.086   0.002  0.00  0.00    +0.000 A 
ATOM     22  C   UNL     1       2.377   1.411  -0.013  0.00  0.00    +0.004 A 
ATOM     23  C   UNL     1       2.396   0.029  -0.020  0.00  0.00    -0.045 A 
ATOM     24  C   UNL     1       1.208  -0.679  -0.012  0.00  0.00    +0.004 A 
ATOM     25  C   UNL     1       0.002  -0.004   0.002  0.00  0.00    +0.000 A 
ENDBRANCH  19  23
BRANCH  19  26
ATOM     26  C   UNL     1       3.791  -1.579  -1.292  0.00  0.00    -0.077 C 
BRANCH  26  27
ATOM     27  N   UNL     1       3.810  -0.722  -2.485  0.00  0.00    +0.379 N 
ATOM     28  H   UNL     1       2.967  -0.167  -2.513  0.00  0.00    -0.090 HD
ATOM     29  H   UNL     1       4.612  -0.111  -2.447  0.00  0.00    -0.090 HD
ATOM     30  H   UNL     1       3.862  -1.297  -3.312  0.00  0.00    -0.090 HD
ENDBRANCH  26  27
ENDBRANCH  19  26
ENDBRANCH  18  19
ENDBRANCH   1  18
TORSDOF 7
