REMARK  Name = CHEMBL252054
REMARK  9 active torsions:
REMARK  status: ('A' for Active; 'I' for Inactive)
REMARK    1  A    between atoms: C_1  and  S_2
REMARK    2  A    between atoms: S_2  and  C_3
REMARK    3  A    between atoms: C_8  and  C_29
REMARK    4  A    between atoms: C_9  and  C_13
REMARK    5  A    between atoms: C_16  and  C_19
REMARK    6  A    between atoms: C_19  and  N_20
REMARK    7  A    between atoms: N_20  and  C_21
REMARK    8  A    between atoms: C_21  and  C_22
REMARK    9  A    between atoms: C_22  and  C_23
REMARK                            x       y       z     vdW  Elec       q    Type
REMARK                         _______ _______ _______ _____ _____    ______ ____
ROOT
ATOM      1  C   UNL     1       0.848  -0.411  -1.489  0.00  0.00    +0.190 A 
ATOM      2  N   UNL     1       1.284   0.580  -2.267  0.00  0.00    -0.230 NA
ATOM      3  C   UNL     1       1.923   0.338  -3.392  0.00  0.00    +0.125 A 
ATOM      4  C   UNL     1       2.142  -1.001  -3.766  0.00  0.00    +0.038 A 
ATOM      5  C   UNL     1       2.815  -1.339  -4.949  0.00  0.00    +0.023 A 
ATOM      6  C   UNL     1       2.987  -2.685  -5.239  0.00  0.00    +0.009 A 
ATOM      7  C   UNL     1       2.485  -3.656  -4.344  0.00  0.00    +0.081 A 
ATOM      8  N   UNL     1       1.855  -3.311  -3.237  0.00  0.00    -0.227 NA
ATOM      9  C   UNL     1       1.665  -2.032  -2.913  0.00  0.00    +0.165 A 
ATOM     10  N   UNL     1       1.030  -1.684  -1.786  0.00  0.00    -0.202 NA
ENDROOT
BRANCH   7  11
ATOM     11  C   UNL     1       2.670  -5.092  -4.655  0.00  0.00    +0.001 A 
ATOM     12  C   UNL     1       2.633  -5.533  -5.978  0.00  0.00    +0.010 A 
ATOM     13  C   UNL     1       2.806  -6.872  -6.262  0.00  0.00    +0.002 A 
ATOM     14  C   UNL     1       3.016  -7.777  -5.237  0.00  0.00    -0.064 A 
ATOM     15  C   UNL     1       3.053  -7.347  -3.923  0.00  0.00    +0.002 A 
ATOM     16  C   UNL     1       2.888  -6.009  -3.627  0.00  0.00    +0.010 A 
BRANCH  14  17
ATOM     17  C   UNL     1       3.204  -9.239  -5.554  0.00  0.00    -0.047 C 
BRANCH  17  18
ATOM     18  N   UNL     1       4.631  -9.515  -5.761  0.00  0.00    +0.382 N 
ATOM     19  H   UNL     1       4.974  -8.958  -6.529  0.00  0.00    -0.085 HD
ATOM     20  H   UNL     1       5.144  -9.284  -4.923  0.00  0.00    -0.085 HD
BRANCH  18  21
ATOM     21  C   UNL     1       4.815 -10.940  -6.070  0.00  0.00    -0.076 C 
BRANCH  21  22
ATOM     22  C   UNL     1       6.302 -11.227  -6.286  0.00  0.00    +0.036 C 
BRANCH  22  23
ATOM     23  C   UNL     1       6.490 -12.689  -6.602  0.00  0.00    +0.034 A 
ATOM     24  C   UNL     1       6.386 -13.267  -7.814  0.00  0.00    +0.133 A 
ATOM     25  N   UNL     1       6.626 -14.579  -7.669  0.00  0.00    -0.244 NA
ATOM     26  H   UNL     1       6.948 -13.578  -4.761  0.00  0.00    +0.166 HD
ATOM     27  C   UNL     1       6.874 -14.835  -6.414  0.00  0.00    +0.196 A 
ATOM     28  N   UNL     1       6.804 -13.682  -5.715  0.00  0.00    -0.348 N 
ENDBRANCH  22  23
ENDBRANCH  21  22
ENDBRANCH  18  21
ENDBRANCH  17  18
ENDBRANCH  14  17
ENDBRANCH   7  11
BRANCH   6  29
ATOM     29  C   UNL     1       3.690  -3.100  -6.476  0.00  0.00    -0.016 A 
ATOM     30  C   UNL     1       4.718  -4.040  -6.414  0.00  0.00    +0.008 A 
ATOM     31  C   UNL     1       5.369  -4.423  -7.569  0.00  0.00    +0.001 A 
ATOM     32  C   UNL     1       5.004  -3.876  -8.786  0.00  0.00    +0.000 A 
ATOM     33  C   UNL     1       3.984  -2.943  -8.853  0.00  0.00    +0.001 A 
ATOM     34  C   UNL     1       3.322  -2.557  -7.706  0.00  0.00    +0.008 A 
ENDBRANCH   6  29
BRANCH   1  36
ATOM     35  C   UNL     1      -0.022   1.810   0.012  0.00  0.00    +0.093 C 
ATOM     36  S   UNL     1       0.002  -0.004   0.002  0.00  0.00    -0.089 S 
ENDBRANCH   1  36
TORSDOF 8
