REMARK  Name = CHEMBL375485
REMARK  8 active torsions:
REMARK  status: ('A' for Active; 'I' for Inactive)
REMARK    1  A    between atoms: C_4  and  C_7
REMARK    2  A    between atoms: C_7  and  C_8
REMARK    3  A    between atoms: C_8  and  C_10
REMARK    4  A    between atoms: C_8  and  N_33
REMARK    5  A    between atoms: C_10  and  O_11
REMARK    6  A    between atoms: O_11  and  C_12
REMARK    7  A    between atoms: C_14  and  C_18
REMARK    8  A    between atoms: C_27  and  C_28
REMARK                            x       y       z     vdW  Elec       q    Type
REMARK                         _______ _______ _______ _____ _____    ______ ____
ROOT
ATOM      1  C   UNL     1       6.919  -2.916   2.887  0.00  0.00    +0.139 A 
ATOM      2  C   UNL     1       7.334  -3.289   4.159  0.00  0.00    +0.058 A 
ATOM      3  C   UNL     1       8.485  -4.072   4.276  0.00  0.00    +0.022 A 
ATOM      4  C   UNL     1       9.167  -4.446   3.119  0.00  0.00    +0.121 A 
ATOM      5  N   UNL     1       8.738  -4.068   1.933  0.00  0.00    -0.259 NA
ATOM      6  C   UNL     1       7.652  -3.334   1.786  0.00  0.00    +0.156 A 
ENDROOT
BRANCH   3   7
ATOM      7  C   UNL     1       8.974  -4.499   5.610  0.00  0.00    +0.073 A 
ATOM      8  C   UNL     1      10.122  -5.272   5.702  0.00  0.00    +0.040 A 
ATOM      9  C   UNL     1      10.565  -5.663   6.966  0.00  0.00    +0.034 A 
ATOM     10  C   UNL     1       9.826  -5.256   8.097  0.00  0.00    +0.085 A 
ATOM     11  C   UNL     1       8.685  -4.481   7.910  0.00  0.00    +0.139 A 
ATOM     12  N   UNL     1       8.307  -4.130   6.701  0.00  0.00    -0.253 NA
ATOM     13  N   UNL     1      10.468  -5.767   9.195  0.00  0.00    -0.275 N 
ATOM     14  H   UNL     1      10.185  -5.649  10.115  0.00  0.00    +0.189 HD
ATOM     15  N   UNL     1      11.594  -6.487   8.780  0.00  0.00    -0.170 NA
ATOM     16  C   UNL     1      11.691  -6.452   7.470  0.00  0.00    +0.135 A 
BRANCH  16  17
ATOM     17  C   UNL     1      12.743  -7.092   6.656  0.00  0.00    +0.155 A 
ATOM     18  C   UNL     1      14.049  -7.235   7.008  0.00  0.00    +0.051 A 
ATOM     19  C   UNL     1      14.687  -7.897   5.940  0.00  0.00    +0.042 A 
ATOM     20  C   UNL     1      13.750  -8.124   5.000  0.00  0.00    +0.196 A 
ATOM     21  O   UNL     1      12.575  -7.641   5.438  0.00  0.00    -0.461 OA
ENDBRANCH  16  17
ENDBRANCH   3   7
BRANCH   1  22
ATOM     22  O   UNL     1       5.805  -2.154   2.723  0.00  0.00    -0.492 OA
BRANCH  22  23
ATOM     23  C   UNL     1       5.441  -1.817   1.383  0.00  0.00    +0.213 C 
BRANCH  23  24
ATOM     24  C   UNL     1       4.171  -0.963   1.399  0.00  0.00    -0.033 C 
BRANCH  24  25
ATOM     25  N   UNL     1       4.452   0.319   2.059  0.00  0.00    +0.382 N 
ATOM     26  H   UNL     1       5.178   0.805   1.555  0.00  0.00    -0.089 HD
ATOM     27  H   UNL     1       3.615   0.882   2.070  0.00  0.00    -0.089 HD
ATOM     28  H   UNL     1       4.755   0.150   3.006  0.00  0.00    -0.089 HD
ENDBRANCH  24  25
BRANCH  24  29
ATOM     29  C   UNL     1       3.711  -0.707  -0.038  0.00  0.00    +0.022 C 
BRANCH  29  33
ATOM     30  C   UNL     1      -0.017   1.378   0.010  0.00  0.00    +0.000 A 
ATOM     31  C   UNL     1       1.171   2.086   0.002  0.00  0.00    +0.000 A 
ATOM     32  C   UNL     1       2.377   1.411  -0.013  0.00  0.00    +0.003 A 
ATOM     33  C   UNL     1       2.396   0.029  -0.020  0.00  0.00    -0.049 A 
ATOM     34  C   UNL     1       1.208  -0.679  -0.012  0.00  0.00    +0.003 A 
ATOM     35  C   UNL     1       0.002  -0.004   0.002  0.00  0.00    +0.000 A 
ENDBRANCH  29  33
ENDBRANCH  24  29
ENDBRANCH  23  24
ENDBRANCH  22  23
ENDBRANCH   1  22
TORSDOF 8
