REMARK  Name = CHEMBL209231
REMARK  9 active torsions:
REMARK  status: ('A' for Active; 'I' for Inactive)
REMARK    1  A    between atoms: C_7  and  C_11
REMARK    2  A    between atoms: C_11  and  C_12
REMARK    3  A    between atoms: C_12  and  C_14
REMARK    4  A    between atoms: C_12  and  N_33
REMARK    5  A    between atoms: C_14  and  O_15
REMARK    6  A    between atoms: O_15  and  C_16
REMARK    7  A    between atoms: C_18  and  C_22
REMARK    8  A    between atoms: N_33  and  C_34
REMARK    9  A    between atoms: C_41  and  O_44
REMARK                            x       y       z     vdW  Elec       q    Type
REMARK                         _______ _______ _______ _____ _____    ______ ____
ROOT
ATOM      1  C   UNL     1       0.236  -3.589  -1.455  0.00  0.00    +0.112 C 
ENDROOT
BRANCH   1   2
ATOM      2  N   UNL     1      -0.550  -2.472  -1.985  0.00  0.00    -0.337 N 
ATOM      3  H   UNL     1      -1.518  -2.494  -1.936  0.00  0.00    +0.146 HD
BRANCH   2   4
ATOM      4  C   UNL     1       0.097  -1.373  -2.562  0.00  0.00    +0.030 A 
ATOM      5  C   UNL     1       1.488  -1.348  -2.636  0.00  0.00    +0.025 A 
ATOM      6  C   UNL     1       2.136  -0.271  -3.202  0.00  0.00    +0.030 A 
ATOM      7  C   UNL     1       1.403   0.794  -3.701  0.00  0.00    +0.069 A 
ATOM      8  C   UNL     1       0.000   0.777  -3.631  0.00  0.00    +0.094 A 
ATOM      9  C   UNL     1      -0.648  -0.320  -3.060  0.00  0.00    +0.053 A 
ATOM     10  N   UNL     1      -0.442   1.935  -4.189  0.00  0.00    -0.195 NA
ATOM     11  C   UNL     1       0.579   2.648  -4.590  0.00  0.00    +0.294 A 
ATOM     12  N   UNL     1       1.742   1.992  -4.313  0.00  0.00    -0.308 N 
ATOM     13  H   UNL     1       2.639   2.304  -4.508  0.00  0.00    +0.170 HD
BRANCH  11  14
ATOM     14  O   UNL     1       0.494   3.858  -5.189  0.00  0.00    -0.480 OA
ATOM     15  H   UNL     1       0.504   4.604  -4.573  0.00  0.00    +0.295 HD
ENDBRANCH  11  14
ENDBRANCH   2   4
ENDBRANCH   1   2
BRANCH   1  16
ATOM     16  C   UNL     1       0.666  -3.275  -0.021  0.00  0.00    +0.062 C 
BRANCH  16  23
ATOM     17  C   UNL     1      -0.017   1.362   0.009  0.00  0.00    +0.001 A 
ATOM     18  C   UNL     1       1.170   2.083   0.002  0.00  0.00    +0.002 A 
ATOM     19  C   UNL     1       2.386   1.436  -0.013  0.00  0.00    +0.026 A 
ATOM     20  C   UNL     1       2.428   0.046  -0.021  0.00  0.00    +0.047 A 
ATOM     21  C   UNL     1       1.223  -0.681  -0.013  0.00  0.00    +0.003 A 
ATOM     22  C   UNL     1       0.002  -0.004   0.002  0.00  0.00    +0.010 A 
ATOM     23  C   UNL     1       1.604  -2.095  -0.025  0.00  0.00    -0.021 A 
ATOM     24  C   UNL     1       2.945  -2.141  -0.038  0.00  0.00    +0.087 A 
ATOM     25  N   UNL     1       3.455  -0.871  -0.036  0.00  0.00    -0.360 N 
ATOM     26  H   UNL     1       4.399  -0.650  -0.044  0.00  0.00    +0.165 HD
ENDBRANCH  16  23
ENDBRANCH   1  16
BRANCH   1  27
ATOM     27  C   UNL     1      -0.614  -4.861  -1.466  0.00  0.00    +0.251 C 
BRANCH  27  28
ATOM     28  O   UNL     1      -1.711  -4.708  -0.563  0.00  0.00    -0.489 OA
BRANCH  28  29
ATOM     29  C   UNL     1      -2.570  -5.756  -0.452  0.00  0.00    +0.139 A 
ATOM     30  C   UNL     1      -3.664  -5.682   0.401  0.00  0.00    +0.057 A 
ATOM     31  C   UNL     1      -4.518  -6.784   0.479  0.00  0.00    +0.004 A 
ATOM     32  C   UNL     1      -4.241  -7.908  -0.296  0.00  0.00    +0.119 A 
ATOM     33  N   UNL     1      -3.192  -7.936  -1.092  0.00  0.00    -0.259 NA
ATOM     34  C   UNL     1      -2.368  -6.911  -1.195  0.00  0.00    +0.156 A 
BRANCH  31  35
ATOM     35  C   UNL     1      -5.700  -6.758   1.375  0.00  0.00    -0.014 A 
ATOM     36  C   UNL     1      -5.970  -5.625   2.143  0.00  0.00    +0.011 A 
ATOM     37  C   UNL     1      -7.067  -5.597   2.976  0.00  0.00    +0.028 A 
ATOM     38  C   UNL     1      -7.909  -6.699   3.052  0.00  0.00    +0.067 A 
ATOM     39  C   UNL     1      -7.644  -7.836   2.285  0.00  0.00    +0.067 A 
ATOM     40  C   UNL     1      -6.544  -7.864   1.444  0.00  0.00    +0.036 A 
ATOM     41  N   UNL     1      -8.648  -8.758   2.573  0.00  0.00    -0.306 N 
ATOM     42  C   UNL     1      -9.484  -8.207   3.473  0.00  0.00    +0.325 A 
ATOM     43  N   UNL     1      -9.065  -6.966   3.781  0.00  0.00    -0.306 N 
ATOM     44  H   UNL     1      -9.495  -6.360   4.405  0.00  0.00    +0.170 HD
ATOM     45  O   UNL     1     -10.470  -8.749   3.937  0.00  0.00    -0.247 OA
ATOM     46  H   UNL     1      -8.731  -9.646   2.190  0.00  0.00    +0.170 HD
ENDBRANCH  31  35
ENDBRANCH  28  29
ENDBRANCH  27  28
ENDBRANCH   1  27
TORSDOF 9
