REMARK  Name = CHEMBL1204095
REMARK  9 active torsions:
REMARK  status: ('A' for Active; 'I' for Inactive)
REMARK    1  A    between atoms: C_1  and  O_2
REMARK    2  A    between atoms: O_2  and  C_3
REMARK    3  A    between atoms: C_6  and  O_38
REMARK    4  A    between atoms: C_7  and  C_10
REMARK    5  A    between atoms: C_10  and  C_12
REMARK    6  A    between atoms: C_15  and  C_18
REMARK    7  A    between atoms: C_19  and  C_20
REMARK    8  A    between atoms: C_27  and  N_29
REMARK    9  A    between atoms: C_30  and  C_32
REMARK                            x       y       z     vdW  Elec       q    Type
REMARK                         _______ _______ _______ _____ _____    ______ ____
ROOT
ATOM      1  C   UNL     1      -7.624  -6.778  -0.372  0.00  0.00    +0.004 C 
ATOM      2  C   UNL     1      -7.695  -8.099  -0.266  0.00  0.00    -0.021 C 
ENDROOT
BRANCH   2   3
ATOM      3  C   UNL     1      -9.029  -8.793  -0.369  0.00  0.00    +0.030 C 
ATOM      4  C   UNL     1      -9.312  -9.530   0.956  0.00  0.00    +0.007 C 
ATOM      5  C   UNL     1     -10.404 -10.604   0.790  0.00  0.00    -0.018 C 
ATOM      6  C   UNL     1     -11.528 -10.117  -0.090  0.00  0.00    -0.083 C 
ATOM      7  N   UNL     1     -11.280 -10.594  -1.464  0.00  0.00    +0.380 N 
ATOM      8  C   UNL     1     -10.409  -9.776  -2.186  0.00  0.00    -0.060 C 
ATOM      9  C   UNL     1      -9.002  -9.729  -1.551  0.00  0.00    +0.063 C 
ATOM     10  H   UNL     1     -10.889 -11.523  -1.419  0.00  0.00    -0.086 HD
ATOM     11  H   UNL     1     -12.161 -10.640  -1.954  0.00  0.00    -0.086 HD
BRANCH   9  12
ATOM     12  N   UNL     1      -8.035  -9.244  -2.538  0.00  0.00    -0.310 N 
ATOM     13  C   UNL     1      -7.463 -10.107  -3.402  0.00  0.00    +0.244 C 
ATOM     14  O   UNL     1      -7.750 -11.287  -3.361  0.00  0.00    -0.270 OA
ATOM     15  H   UNL     1      -7.806  -8.302  -2.571  0.00  0.00    +0.149 HD
BRANCH  13  16
ATOM     16  C   UNL     1      -6.485  -9.616  -4.401  0.00  0.00    +0.040 A 
ATOM     17  C   UNL     1      -6.137  -8.263  -4.461  0.00  0.00    +0.033 A 
ATOM     18  C   UNL     1      -5.220  -7.849  -5.407  0.00  0.00    +0.111 A 
ATOM     19  N   UNL     1      -4.678  -8.709  -6.246  0.00  0.00    -0.263 NA
ATOM     20  C   UNL     1      -4.978  -9.993  -6.223  0.00  0.00    +0.111 A 
ATOM     21  C   UNL     1      -5.881 -10.494  -5.305  0.00  0.00    +0.033 A 
ENDBRANCH  13  16
ENDBRANCH   9  12
ENDBRANCH   2   3
BRANCH   1  25
ATOM     22  C   UNL     1      -3.867  -4.824  -0.081  0.00  0.00    +0.023 A 
ATOM     23  C   UNL     1      -5.030  -4.076  -0.289  0.00  0.00    +0.012 A 
ATOM     24  C   UNL     1      -6.243  -4.708  -0.383  0.00  0.00    +0.008 A 
ATOM     25  C   UNL     1      -6.318  -6.099  -0.271  0.00  0.00    -0.025 A 
ATOM     26  C   UNL     1      -5.155  -6.846  -0.064  0.00  0.00    +0.008 A 
ATOM     27  C   UNL     1      -3.941  -6.216   0.025  0.00  0.00    +0.012 A 
BRANCH  22  28
ATOM     28  C   UNL     1      -2.561  -4.144   0.021  0.00  0.00    +0.200 C 
ATOM     29  O   UNL     1      -1.539  -4.799   0.101  0.00  0.00    -0.286 OA
BRANCH  28  34
ATOM     30  C   UNL     1      -2.533  -0.582   1.222  0.00  0.00    +0.156 A 
ATOM     31  C   UNL     1      -2.369   0.103   0.025  0.00  0.00    +0.052 A 
ATOM     32  C   UNL     1      -2.268  -0.586  -1.167  0.00  0.00    +0.050 A 
ATOM     33  C   UNL     1      -2.330  -1.970  -1.180  0.00  0.00    +0.131 A 
ATOM     34  C   UNL     1      -2.494  -2.672   0.024  0.00  0.00    +0.102 A 
ATOM     35  C   UNL     1      -2.590  -1.966   1.229  0.00  0.00    +0.179 A 
ATOM     36  F   UNL     1      -2.743  -2.631   2.395  0.00  0.00    -0.201 F 
BRANCH  30  38
ATOM     37  C   UNL     1      -2.564   1.533   2.311  0.00  0.00    +0.277 C 
ATOM     38  O   UNL     1      -2.631   0.108   2.390  0.00  0.00    -0.492 OA
ENDBRANCH  30  38
BRANCH  33  39
ATOM     39  O   UNL     1      -2.231  -2.646  -2.353  0.00  0.00    -0.506 OA
ATOM     40  H   UNL     1      -1.321  -2.813  -2.635  0.00  0.00    +0.292 HD
ENDBRANCH  33  39
ENDBRANCH  28  34
ENDBRANCH  22  28
ENDBRANCH   1  25
TORSDOF 8
