REMARK  Name = CHEMBL577379
REMARK  8 active torsions:
REMARK  status: ('A' for Active; 'I' for Inactive)
REMARK    1  A    between atoms: C_4  and  C_7
REMARK    2  A    between atoms: C_10  and  C_17
REMARK    3  A    between atoms: C_19  and  O_23
REMARK    4  A    between atoms: O_23  and  C_24
REMARK    5  A    between atoms: C_24  and  C_25
REMARK    6  A    between atoms: C_25  and  C_27
REMARK    7  A    between atoms: C_25  and  N_38
REMARK    8  A    between atoms: C_27  and  C_28
REMARK                            x       y       z     vdW  Elec       q    Type
REMARK                         _______ _______ _______ _____ _____    ______ ____
ROOT
ATOM      1  C   UNL     1       3.757  -2.329  -4.912  0.00  0.00    +0.004 A 
ATOM      2  C   UNL     1       3.836  -3.416  -5.785  0.00  0.00    +0.057 A 
ATOM      3  C   UNL     1       3.781  -3.168  -7.151  0.00  0.00    +0.139 A 
ATOM      4  C   UNL     1       3.651  -1.859  -7.596  0.00  0.00    +0.156 A 
ATOM      5  N   UNL     1       3.580  -0.857  -6.743  0.00  0.00    -0.259 NA
ATOM      6  C   UNL     1       3.621  -1.046  -5.440  0.00  0.00    +0.119 A 
ENDROOT
BRANCH   1  10
ATOM      7  C   UNL     1       3.711  -0.707  -0.038  0.00  0.00    +0.137 C 
ATOM      8  C   UNL     1       3.776  -1.649  -1.218  0.00  0.00    -0.009 A 
ATOM      9  C   UNL     1       3.725  -1.447  -2.577  0.00  0.00    +0.015 A 
ATOM     10  C   UNL     1       3.811  -2.537  -3.443  0.00  0.00    -0.016 A 
ATOM     11  C   UNL     1       3.946  -3.822  -2.922  0.00  0.00    +0.010 A 
ATOM     12  C   UNL     1       3.995  -4.016  -1.560  0.00  0.00    +0.024 A 
ATOM     13  C   UNL     1       3.910  -2.928  -0.690  0.00  0.00    +0.038 A 
ATOM     14  N   UNL     1       3.936  -2.874   0.703  0.00  0.00    -0.284 N 
ATOM     15  C   UNL     1       3.826  -1.618   1.166  0.00  0.00    +0.229 C 
ATOM     16  O   UNL     1       3.819  -1.277   2.330  0.00  0.00    -0.274 OA
ATOM     17  H   UNL     1       4.024  -3.654   1.273  0.00  0.00    +0.155 HD
BRANCH   7  21
ATOM     18  C   UNL     1      -0.017   1.378   0.010  0.00  0.00    +0.000 A 
ATOM     19  C   UNL     1       1.171   2.086   0.002  0.00  0.00    +0.000 A 
ATOM     20  C   UNL     1       2.377   1.411  -0.013  0.00  0.00    +0.005 A 
ATOM     21  C   UNL     1       2.396   0.029  -0.020  0.00  0.00    -0.031 A 
ATOM     22  C   UNL     1       1.208  -0.679  -0.012  0.00  0.00    +0.005 A 
ATOM     23  C   UNL     1       0.002  -0.004   0.002  0.00  0.00    +0.000 A 
ENDBRANCH   7  21
ENDBRANCH   1  10
BRANCH   3  24
ATOM     24  O   UNL     1       3.854  -4.193  -8.040  0.00  0.00    -0.492 OA
BRANCH  24  25
ATOM     25  C   UNL     1       3.791  -3.855  -9.427  0.00  0.00    +0.213 C 
BRANCH  25  26
ATOM     26  C   UNL     1       3.888  -5.129 -10.267  0.00  0.00    -0.033 C 
BRANCH  26  27
ATOM     27  N   UNL     1       2.710  -5.971 -10.018  0.00  0.00    +0.382 N 
ATOM     28  H   UNL     1       2.672  -6.216  -9.040  0.00  0.00    -0.089 HD
ATOM     29  H   UNL     1       1.875  -5.465 -10.271  0.00  0.00    -0.089 HD
ATOM     30  H   UNL     1       2.775  -6.812 -10.573  0.00  0.00    -0.089 HD
ENDBRANCH  26  27
BRANCH  26  31
ATOM     31  C   UNL     1       3.945  -4.759 -11.751  0.00  0.00    +0.024 C 
BRANCH  31  32
ATOM     32  C   UNL     1       4.165  -6.003 -12.572  0.00  0.00    -0.024 A 
ATOM     33  C   UNL     1       5.344  -6.477 -13.005  0.00  0.00    +0.087 A 
ATOM     34  N   UNL     1       5.150  -7.628 -13.719  0.00  0.00    -0.360 N 
ATOM     35  H   UNL     1       5.854  -8.152 -14.133  0.00  0.00    +0.165 HD
ATOM     36  C   UNL     1       3.808  -7.930 -13.765  0.00  0.00    +0.047 A 
ATOM     37  C   UNL     1       3.132  -6.930 -13.043  0.00  0.00    +0.003 A 
ATOM     38  C   UNL     1       1.743  -6.981 -12.914  0.00  0.00    +0.010 A 
ATOM     39  C   UNL     1       1.046  -8.007 -13.488  0.00  0.00    +0.001 A 
ATOM     40  C   UNL     1       1.708  -8.998 -14.198  0.00  0.00    +0.002 A 
ATOM     41  C   UNL     1       3.078  -8.962 -14.346  0.00  0.00    +0.026 A 
ENDBRANCH  31  32
ENDBRANCH  26  31
ENDBRANCH  25  26
ENDBRANCH  24  25
ENDBRANCH   3  24
TORSDOF 8
