REMARK  Name = CHEMBL447114
REMARK  6 active torsions:
REMARK  status: ('A' for Active; 'I' for Inactive)
REMARK    1  A    between atoms: C_4  and  C_7
REMARK    2  A    between atoms: C_18  and  C_19
REMARK    3  A    between atoms: C_22  and  C_25
REMARK    4  A    between atoms: C_25  and  N_26
REMARK    5  A    between atoms: C_29  and  C_32
REMARK    6  A    between atoms: C_35  and  C_38
REMARK                            x       y       z     vdW  Elec       q    Type
REMARK                         _______ _______ _______ _____ _____    ______ ____
ROOT
ATOM      1  C   UNL     1       2.906  -2.082   1.874  0.00  0.00    +0.001 A 
ATOM      2  C   UNL     1       2.078  -1.095   2.410  0.00  0.00    +0.010 A 
ATOM      3  C   UNL     1       1.108  -1.437   3.330  0.00  0.00    +0.002 A 
ATOM      4  C   UNL     1       0.957  -2.756   3.722  0.00  0.00    -0.064 A 
ATOM      5  C   UNL     1       1.775  -3.738   3.195  0.00  0.00    +0.002 A 
ATOM      6  C   UNL     1       2.744  -3.410   2.269  0.00  0.00    +0.010 A 
ENDROOT
BRANCH   1  18
ATOM      7  C   UNL     1       3.698  -0.687  -0.037  0.00  0.00    +0.009 A 
ATOM      8  C   UNL     1       4.681  -0.345  -0.963  0.00  0.00    +0.026 A 
ATOM      9  C   UNL     1       5.881  -1.056  -0.934  0.00  0.00    +0.065 A 
ATOM     10  C   UNL     1       6.060  -2.087   0.019  0.00  0.00    +0.078 A 
ATOM     11  C   UNL     1       7.333  -2.811   0.018  0.00  0.00    +0.046 A 
ATOM     12  C   UNL     1       8.282  -2.481  -0.875  0.00  0.00    +0.088 A 
ATOM     13  N   UNL     1       8.111  -1.488  -1.794  0.00  0.00    -0.328 N 
ATOM     14  H   UNL     1       8.831  -1.294  -2.414  0.00  0.00    +0.168 HD
ATOM     15  C   UNL     1       6.974  -0.768  -1.869  0.00  0.00    +0.258 A 
ATOM     16  O   UNL     1       6.856   0.112  -2.703  0.00  0.00    -0.267 OA
ATOM     17  N   UNL     1       5.096  -2.381   0.883  0.00  0.00    -0.246 NA
ATOM     18  C   UNL     1       3.949  -1.721   0.886  0.00  0.00    +0.079 A 
BRANCH   7  22
ATOM     19  C   UNL     1      -0.017   1.379   0.010  0.00  0.00    +0.000 A 
ATOM     20  C   UNL     1       1.169   2.092   0.002  0.00  0.00    +0.001 A 
ATOM     21  C   UNL     1       2.377   1.427  -0.013  0.00  0.00    +0.008 A 
ATOM     22  C   UNL     1       2.403   0.033  -0.021  0.00  0.00    -0.016 A 
ATOM     23  C   UNL     1       1.205  -0.680  -0.013  0.00  0.00    +0.008 A 
ATOM     24  C   UNL     1       0.002  -0.004   0.002  0.00  0.00    +0.001 A 
ENDBRANCH   7  22
ENDBRANCH   1  18
BRANCH   4  25
ATOM     25  C   UNL     1      -0.104  -3.122   4.728  0.00  0.00    -0.043 C 
BRANCH  25  26
ATOM     26  N   UNL     1      -1.354  -3.443   4.026  0.00  0.00    +0.382 N 
ATOM     27  C   UNL     1      -1.853  -2.243   3.344  0.00  0.00    -0.078 C 
ATOM     28  C   UNL     1      -3.111  -2.590   2.546  0.00  0.00    -0.007 C 
ATOM     29  C   UNL     1      -4.185  -3.119   3.501  0.00  0.00    +0.055 C 
ATOM     30  C   UNL     1      -3.628  -4.327   4.261  0.00  0.00    -0.007 C 
ATOM     31  C   UNL     1      -2.350  -3.914   4.996  0.00  0.00    -0.078 C 
ATOM     32  H   UNL     1      -1.181  -4.167   3.345  0.00  0.00    -0.081 HD
BRANCH  29  33
ATOM     33  C   UNL     1      -5.399  -3.537   2.712  0.00  0.00    +0.154 A 
ATOM     34  N   UNL     1      -6.619  -3.031   2.851  0.00  0.00    -0.208 NA
ATOM     35  H   UNL     1      -7.075  -5.118   0.611  0.00  0.00    +0.191 HD
ATOM     36  C   UNL     1      -7.445  -3.618   2.010  0.00  0.00    +0.194 A 
ATOM     37  N   UNL     1      -6.738  -4.530   1.305  0.00  0.00    -0.256 N 
ATOM     38  N   UNL     1      -5.417  -4.453   1.776  0.00  0.00    -0.157 NA
BRANCH  36  39
ATOM     39  C   UNL     1      -8.890  -3.330   1.862  0.00  0.00    +0.197 A 
ATOM     40  N   UNL     1      -9.446  -2.398   2.624  0.00  0.00    -0.233 NA
ATOM     41  C   UNL     1     -10.732  -2.116   2.517  0.00  0.00    +0.115 A 
ATOM     42  C   UNL     1     -11.502  -2.809   1.594  0.00  0.00    +0.039 A 
ATOM     43  C   UNL     1     -10.889  -3.777   0.812  0.00  0.00    +0.115 A 
ATOM     44  N   UNL     1      -9.596  -4.006   0.966  0.00  0.00    -0.233 NA
ENDBRANCH  36  39
ENDBRANCH  29  33
ENDBRANCH  25  26
ENDBRANCH   4  25
TORSDOF 6
