REMARK  Name = CHEMBL506077
REMARK  6 active torsions:
REMARK  status: ('A' for Active; 'I' for Inactive)
REMARK    1  A    between atoms: C_4  and  C_7
REMARK    2  A    between atoms: C_20  and  C_21
REMARK    3  A    between atoms: C_24  and  C_27
REMARK    4  A    between atoms: C_27  and  N_28
REMARK    5  A    between atoms: C_31  and  C_34
REMARK    6  A    between atoms: C_36  and  C_40
REMARK                            x       y       z     vdW  Elec       q    Type
REMARK                         _______ _______ _______ _____ _____    ______ ____
ROOT
ATOM      1  C   UNL     1       2.907  -2.082   1.873  0.00  0.00    +0.001 A 
ATOM      2  C   UNL     1       2.079  -1.097   2.410  0.00  0.00    +0.010 A 
ATOM      3  C   UNL     1       1.110  -1.441   3.330  0.00  0.00    +0.002 A 
ATOM      4  C   UNL     1       0.960  -2.760   3.721  0.00  0.00    -0.064 A 
ATOM      5  C   UNL     1       1.780  -3.741   3.193  0.00  0.00    +0.002 A 
ATOM      6  C   UNL     1       2.748  -3.411   2.267  0.00  0.00    +0.010 A 
ENDROOT
BRANCH   1  20
ATOM      7  C   UNL     1       3.698  -0.687  -0.037  0.00  0.00    +0.009 A 
ATOM      8  C   UNL     1       4.683  -0.345  -0.964  0.00  0.00    +0.024 A 
ATOM      9  C   UNL     1       5.881  -1.054  -0.935  0.00  0.00    +0.046 A 
ATOM     10  C   UNL     1       6.062  -2.083   0.016  0.00  0.00    +0.077 A 
ATOM     11  C   UNL     1       7.337  -2.811   0.018  0.00  0.00    +0.046 A 
ATOM     12  C   UNL     1       8.292  -2.498  -0.862  0.00  0.00    +0.100 A 
ATOM     13  N   UNL     1       8.143  -1.500  -1.800  0.00  0.00    -0.250 N 
ATOM     14  C   UNL     1       6.975  -0.762  -1.875  0.00  0.00    +0.171 A 
ATOM     15  N   UNL     1       7.094   0.111  -2.840  0.00  0.00    -0.151 NA
ATOM     16  N   UNL     1       8.361  -0.051  -3.416  0.00  0.00    -0.226 N 
ATOM     17  C   UNL     1       8.983  -1.048  -2.756  0.00  0.00    +0.348 A 
ATOM     18  O   UNL     1      10.105  -1.466  -2.981  0.00  0.00    -0.245 OA
ATOM     19  N   UNL     1       5.099  -2.377   0.880  0.00  0.00    -0.246 NA
ATOM     20  C   UNL     1       3.949  -1.720   0.884  0.00  0.00    +0.079 A 
ATOM     21  H   UNL     1       8.725   0.462  -4.154  0.00  0.00    +0.194 HD
BRANCH   7  25
ATOM     22  C   UNL     1      -0.017   1.379   0.010  0.00  0.00    +0.000 A 
ATOM     23  C   UNL     1       1.169   2.093   0.002  0.00  0.00    +0.001 A 
ATOM     24  C   UNL     1       2.377   1.427  -0.013  0.00  0.00    +0.008 A 
ATOM     25  C   UNL     1       2.403   0.033  -0.021  0.00  0.00    -0.016 A 
ATOM     26  C   UNL     1       1.205  -0.680  -0.013  0.00  0.00    +0.008 A 
ATOM     27  C   UNL     1       0.002  -0.004   0.002  0.00  0.00    +0.001 A 
ENDBRANCH   7  25
ENDBRANCH   1  20
BRANCH   4  28
ATOM     28  C   UNL     1      -0.099  -3.128   4.728  0.00  0.00    -0.043 C 
BRANCH  28  29
ATOM     29  N   UNL     1      -1.349  -3.450   4.027  0.00  0.00    +0.382 N 
ATOM     30  C   UNL     1      -1.850  -2.250   3.346  0.00  0.00    -0.078 C 
ATOM     31  C   UNL     1      -3.108  -2.599   2.548  0.00  0.00    -0.008 C 
ATOM     32  C   UNL     1      -4.181  -3.130   3.503  0.00  0.00    +0.053 C 
ATOM     33  C   UNL     1      -3.622  -4.337   4.262  0.00  0.00    -0.008 C 
ATOM     34  C   UNL     1      -2.344  -3.924   4.997  0.00  0.00    -0.078 C 
ATOM     35  H   UNL     1      -1.175  -4.173   3.345  0.00  0.00    -0.081 HD
BRANCH  32  36
ATOM     36  C   UNL     1      -5.395  -3.549   2.715  0.00  0.00    +0.129 A 
ATOM     37  N   UNL     1      -6.450  -2.813   2.487  0.00  0.00    -0.210 NA
ATOM     38  C   UNL     1      -7.334  -3.503   1.753  0.00  0.00    +0.200 A 
ATOM     39  N   UNL     1      -6.838  -4.696   1.507  0.00  0.00    -0.151 NA
ATOM     40  H   UNL     1      -4.955  -5.488   2.116  0.00  0.00    +0.190 HD
ATOM     41  N   UNL     1      -5.575  -4.742   2.120  0.00  0.00    -0.262 N 
BRANCH  38  42
ATOM     42  C   UNL     1      -8.654  -3.004   1.294  0.00  0.00    +0.110 A 
ATOM     43  C   UNL     1      -9.481  -3.832   0.538  0.00  0.00    +0.031 A 
ATOM     44  C   UNL     1     -10.709  -3.353   0.118  0.00  0.00    +0.004 A 
ATOM     45  C   UNL     1     -11.070  -2.060   0.468  0.00  0.00    +0.020 A 
ATOM     46  C   UNL     1     -10.201  -1.293   1.220  0.00  0.00    +0.111 A 
ATOM     47  N   UNL     1      -9.039  -1.775   1.612  0.00  0.00    -0.252 NA
ENDBRANCH  38  42
ENDBRANCH  32  36
ENDBRANCH  28  29
ENDBRANCH   4  28
TORSDOF 6
