REMARK  Name = CHEMBL203434
REMARK  9 active torsions:
REMARK  status: ('A' for Active; 'I' for Inactive)
REMARK    1  A    between atoms: C_4  and  C_7
REMARK    2  A    between atoms: C_7  and  C_8
REMARK    3  A    between atoms: C_7  and  C_14
REMARK    4  A    between atoms: C_14  and  C_16
REMARK    5  A    between atoms: C_14  and  N_32
REMARK    6  A    between atoms: C_16  and  O_17
REMARK    7  A    between atoms: O_17  and  C_18
REMARK    8  A    between atoms: C_20  and  C_24
REMARK    9  A    between atoms: C_25  and  C_26
REMARK                            x       y       z     vdW  Elec       q    Type
REMARK                         _______ _______ _______ _____ _____    ______ ____
ROOT
ATOM      1  C   UNL     1       3.772  -1.463  -1.380  0.00  0.00    -0.025 C 
ENDROOT
BRANCH   1   2
ATOM      2  N   UNL     1       2.624  -2.373  -1.494  0.00  0.00    +0.383 N 
ATOM      3  H   UNL     1       1.769  -1.852  -1.367  0.00  0.00    -0.089 HD
ATOM      4  H   UNL     1       2.624  -2.801  -2.408  0.00  0.00    -0.089 HD
ATOM      5  H   UNL     1       2.690  -3.088  -0.786  0.00  0.00    -0.089 HD
ENDBRANCH   1   2
BRANCH   1   6
ATOM      6  C   UNL     1       3.810  -0.864   0.027  0.00  0.00    +0.038 C 
BRANCH   6  10
ATOM      7  C   UNL     1       7.000   1.965   0.286  0.00  0.00    +0.000 A 
ATOM      8  C   UNL     1       6.063   2.070  -0.725  0.00  0.00    +0.000 A 
ATOM      9  C   UNL     1       5.031   1.155  -0.809  0.00  0.00    +0.004 A 
ATOM     10  C   UNL     1       4.936   0.134   0.118  0.00  0.00    -0.041 A 
ATOM     11  C   UNL     1       5.873   0.028   1.129  0.00  0.00    +0.004 A 
ATOM     12  C   UNL     1       6.904   0.945   1.214  0.00  0.00    +0.000 A 
ENDBRANCH   6  10
BRANCH   6  13
ATOM     13  C   UNL     1       2.502  -0.173   0.315  0.00  0.00    -0.041 A 
ATOM     14  C   UNL     1       2.005   0.764  -0.573  0.00  0.00    +0.004 A 
ATOM     15  C   UNL     1       0.805   1.397  -0.309  0.00  0.00    +0.000 A 
ATOM     16  C   UNL     1       0.102   1.094   0.842  0.00  0.00    +0.000 A 
ATOM     17  C   UNL     1       0.598   0.157   1.729  0.00  0.00    +0.000 A 
ATOM     18  C   UNL     1       1.796  -0.480   1.463  0.00  0.00    +0.004 A 
ENDBRANCH   6  13
ENDBRANCH   1   6
BRANCH   1  19
ATOM     19  C   UNL     1       5.065  -2.239  -1.639  0.00  0.00    +0.214 C 
BRANCH  19  20
ATOM     20  O   UNL     1       5.081  -2.699  -2.992  0.00  0.00    -0.492 OA
BRANCH  20  21
ATOM     21  C   UNL     1       6.168  -3.412  -3.389  0.00  0.00    +0.139 A 
ATOM     22  C   UNL     1       6.260  -3.888  -4.689  0.00  0.00    +0.056 A 
ATOM     23  C   UNL     1       7.400  -4.617  -5.049  0.00  0.00    -0.003 A 
ATOM     24  C   UNL     1       8.394  -4.833  -4.091  0.00  0.00    +0.118 A 
ATOM     25  N   UNL     1       8.262  -4.361  -2.869  0.00  0.00    -0.259 NA
ATOM     26  C   UNL     1       7.204  -3.666  -2.499  0.00  0.00    +0.156 A 
BRANCH  23  27
ATOM     27  C   UNL     1       7.550  -5.147  -6.416  0.00  0.00    +0.010 C 
ATOM     28  C   UNL     1       8.648  -5.844  -6.749  0.00  0.00    +0.008 C 
BRANCH  28  29
ATOM     29  C   UNL     1       8.798  -6.375  -8.116  0.00  0.00    -0.022 A 
ATOM     30  C   UNL     1       7.809  -6.158  -9.085  0.00  0.00    +0.027 A 
ATOM     31  C   UNL     1       7.990  -6.673 -10.351  0.00  0.00    +0.111 A 
ATOM     32  N   UNL     1       9.075  -7.360 -10.655  0.00  0.00    -0.263 NA
ATOM     33  C   UNL     1      10.031  -7.587  -9.773  0.00  0.00    +0.111 A 
ATOM     34  C   UNL     1       9.936  -7.105  -8.485  0.00  0.00    +0.027 A 
ENDBRANCH  28  29
ENDBRANCH  23  27
ENDBRANCH  20  21
ENDBRANCH  19  20
ENDBRANCH   1  19
TORSDOF 9
