REMARK  Name = CHEMBL1081029
REMARK  7 active torsions:
REMARK  status: ('A' for Active; 'I' for Inactive)
REMARK    1  A    between atoms: C_3  and  C_28
REMARK    2  A    between atoms: C_6  and  C_7
REMARK    3  A    between atoms: C_7  and  C_8
REMARK    4  A    between atoms: C_8  and  C_10
REMARK    5  A    between atoms: C_8  and  N_27
REMARK    6  A    between atoms: C_10  and  N_11
REMARK    7  A    between atoms: C_15  and  C_17
REMARK                            x       y       z     vdW  Elec       q    Type
REMARK                         _______ _______ _______ _____ _____    ______ ____
ROOT
ATOM      1  N   UNL     1      -3.494  -2.062  -2.791  0.00  0.00    -0.325 N 
ATOM      2  C   UNL     1      -4.620  -2.825  -3.037  0.00  0.00    +0.159 A 
ATOM      3  N   UNL     1      -5.365  -3.484  -2.172  0.00  0.00    -0.233 NA
ATOM      4  C   UNL     1      -6.416  -4.173  -2.561  0.00  0.00    +0.129 A 
ATOM      5  C   UNL     1      -6.693  -4.168  -3.904  0.00  0.00    +0.041 A 
ATOM      6  S   UNL     1      -5.372  -3.131  -4.511  0.00  0.00    -0.052 S 
ATOM      7  H   UNL     1      -3.037  -1.621  -3.525  0.00  0.00    +0.148 HD
ENDROOT
BRANCH   5   8
ATOM      8  C   UNL     1      -7.782  -4.832  -4.643  0.00  0.00    -0.009 A 
ATOM      9  C   UNL     1      -8.729  -5.600  -3.955  0.00  0.00    +0.010 A 
ATOM     10  C   UNL     1      -9.738  -6.216  -4.636  0.00  0.00    +0.014 A 
ATOM     11  C   UNL     1      -9.830  -6.080  -6.026  0.00  0.00    +0.041 A 
ATOM     12  C   UNL     1      -8.881  -5.310  -6.710  0.00  0.00    -0.018 A 
ATOM     13  C   UNL     1      -7.876  -4.691  -6.032  0.00  0.00    +0.015 A 
ATOM     14  C   UNL     1      -9.259  -5.366  -8.169  0.00  0.00    +0.140 C 
ATOM     15  N   UNL     1     -10.461  -6.204  -8.249  0.00  0.00    -0.307 N 
ATOM     16  C   UNL     1     -10.786  -6.613  -7.011  0.00  0.00    +0.245 C 
ATOM     17  O   UNL     1     -11.736  -7.324  -6.741  0.00  0.00    -0.270 OA
ATOM     18  H   UNL     1     -10.942  -6.427  -9.061  0.00  0.00    +0.149 HD
ENDBRANCH   5   8
BRANCH   1  19
ATOM     19  C   UNL     1      -2.991  -1.917  -1.423  0.00  0.00    +0.087 C 
BRANCH  19  20
ATOM     20  C   UNL     1      -1.745  -1.028  -1.429  0.00  0.00    -0.053 C 
BRANCH  20  21
ATOM     21  N   UNL     1      -2.060   0.252  -2.076  0.00  0.00    +0.381 N 
ATOM     22  H   UNL     1      -2.799   0.713  -1.567  0.00  0.00    -0.090 HD
ATOM     23  H   UNL     1      -1.238   0.838  -2.079  0.00  0.00    -0.090 HD
ATOM     24  H   UNL     1      -2.358   0.085  -3.025  0.00  0.00    -0.090 HD
ENDBRANCH  20  21
BRANCH  20  25
ATOM     25  C   UNL     1      -1.293  -0.775   0.011  0.00  0.00    +0.020 C 
BRANCH  25  31
ATOM     26  C   UNL     1      -0.017   1.378   0.010  0.00  0.00    +0.004 A 
ATOM     27  C   UNL     1       1.171   2.086   0.002  0.00  0.00    +0.012 A 
ATOM     28  C   UNL     1       2.377   1.411  -0.013  0.00  0.00    +0.055 A 
ATOM     29  C   UNL     1       2.396   0.029  -0.020  0.00  0.00    +0.012 A 
ATOM     30  C   UNL     1       1.208  -0.679  -0.012  0.00  0.00    +0.004 A 
ATOM     31  C   UNL     1       0.002  -0.004   0.002  0.00  0.00    -0.049 A 
BRANCH  28  32
ATOM     32  C   UNL     1       3.672   2.182  -0.022  0.00  0.00    +0.417 C 
ATOM     33  F   UNL     1       4.086   2.414   1.294  0.00  0.00    -0.166 F 
ATOM     34  F   UNL     1       4.651   1.442  -0.695  0.00  0.00    -0.166 F 
ATOM     35  F   UNL     1       3.482   3.405  -0.674  0.00  0.00    -0.166 F 
ENDBRANCH  28  32
ENDBRANCH  25  31
ENDBRANCH  20  25
ENDBRANCH  19  20
ENDBRANCH   1  19
TORSDOF 7
