REMARK  Name = CHEMBL415220
REMARK  12 active torsions:
REMARK  status: ('A' for Active; 'I' for Inactive)
REMARK    1  A    between atoms: C_1  and  C_2
REMARK    2  A    between atoms: C_5  and  C_12
REMARK    3  A    between atoms: C_14  and  O_18
REMARK    4  A    between atoms: O_18  and  C_19
REMARK    5  A    between atoms: C_19  and  C_20
REMARK    6  A    between atoms: C_20  and  C_22
REMARK    7  A    between atoms: C_20  and  N_38
REMARK    8  A    between atoms: C_22  and  C_23
REMARK    9  A    between atoms: C_27  and  O_29
REMARK   10  A    between atoms: O_29  and  C_30
REMARK   11  A    between atoms: C_30  and  C_31
REMARK   12  A    between atoms: C_31  and  N_32
REMARK                            x       y       z     vdW  Elec       q    Type
REMARK                         _______ _______ _______ _____ _____    ______ ____
ROOT
ATOM      1  C   UNL     1       0.453  -4.278 -10.438  0.00  0.00    -0.033 C 
ENDROOT
BRANCH   1   2
ATOM      2  N   UNL     1      -0.790  -5.010 -10.163  0.00  0.00    +0.382 N 
ATOM      3  H   UNL     1      -1.581  -4.408 -10.340  0.00  0.00    -0.089 HD
ATOM      4  H   UNL     1      -0.843  -5.820 -10.763  0.00  0.00    -0.089 HD
ATOM      5  H   UNL     1      -0.801  -5.304  -9.198  0.00  0.00    -0.089 HD
ENDBRANCH   1   2
BRANCH   1   6
ATOM      6  C   UNL     1       0.533  -3.050  -9.529  0.00  0.00    +0.213 C 
BRANCH   6   7
ATOM      7  O   UNL     1       0.635  -3.471  -8.167  0.00  0.00    -0.492 OA
BRANCH   7  10
ATOM      8  C   UNL     1       0.899  -1.786  -4.948  0.00  0.00    +0.004 A 
ATOM      9  C   UNL     1       0.818  -2.825  -5.879  0.00  0.00    +0.057 A 
ATOM     10  C   UNL     1       0.716  -2.495  -7.224  0.00  0.00    +0.139 A 
ATOM     11  C   UNL     1       0.699  -1.157  -7.594  0.00  0.00    +0.156 A 
ATOM     12  N   UNL     1       0.777  -0.202  -6.688  0.00  0.00    -0.259 NA
ATOM     13  C   UNL     1       0.869  -0.469  -5.401  0.00  0.00    +0.119 A 
BRANCH   8  18
ATOM     14  C   UNL     1       1.288   0.995   0.034  0.00  0.00    +0.068 C 
ATOM     15  C   UNL     1       1.278  -0.511  -0.017  0.00  0.00    +0.067 A 
ATOM     16  C   UNL     1       1.184  -1.331  -1.221  0.00  0.00    +0.023 A 
ATOM     17  C   UNL     1       1.082  -1.042  -2.585  0.00  0.00    +0.020 A 
ATOM     18  C   UNL     1       1.008  -2.082  -3.498  0.00  0.00    -0.016 A 
ATOM     19  C   UNL     1       1.036  -3.410  -3.057  0.00  0.00    +0.010 A 
ATOM     20  C   UNL     1       1.136  -3.700  -1.728  0.00  0.00    +0.028 A 
ATOM     21  C   UNL     1       1.211  -2.672  -0.790  0.00  0.00    +0.066 A 
ATOM     22  N   UNL     1       1.314  -2.644   0.576  0.00  0.00    -0.277 N 
ATOM     23  H   UNL     1       1.355  -3.423   1.153  0.00  0.00    +0.189 HD
ATOM     24  N   UNL     1       1.358  -1.314   1.005  0.00  0.00    -0.178 NA
ENDBRANCH   8  18
ENDBRANCH   7  10
ENDBRANCH   6   7
ENDBRANCH   1   6
BRANCH   1  25
ATOM     25  C   UNL     1       0.469  -3.831 -11.901  0.00  0.00    +0.022 C 
BRANCH  25  26
ATOM     26  C   UNL     1       0.514  -5.043 -12.796  0.00  0.00    -0.045 A 
ATOM     27  C   UNL     1       1.732  -5.574 -13.179  0.00  0.00    +0.004 A 
ATOM     28  C   UNL     1       1.777  -6.686 -14.000  0.00  0.00    +0.004 A 
ATOM     29  C   UNL     1       0.604  -7.269 -14.439  0.00  0.00    +0.045 A 
ATOM     30  C   UNL     1      -0.619  -6.739 -14.056  0.00  0.00    +0.121 A 
ATOM     31  C   UNL     1      -0.661  -5.626 -13.227  0.00  0.00    +0.049 A 
BRANCH  30  32
ATOM     32  O   UNL     1      -1.774  -7.310 -14.487  0.00  0.00    -0.494 OA
BRANCH  32  33
ATOM     33  C   UNL     1      -1.655  -8.456 -15.332  0.00  0.00    +0.210 C 
BRANCH  33  34
ATOM     34  C   UNL     1      -3.049  -8.957 -15.713  0.00  0.00    -0.037 C 
BRANCH  34  35
ATOM     35  N   UNL     1      -3.740  -7.930 -16.504  0.00  0.00    +0.385 N 
ATOM     36  C   UNL     1      -5.127  -8.349 -16.747  0.00  0.00    -0.050 C 
ATOM     37  C   UNL     1      -5.844  -7.277 -17.572  0.00  0.00    +0.141 C 
ATOM     38  O   UNL     1      -5.135  -7.072 -18.797  0.00  0.00    -0.383 OA
ATOM     39  C   UNL     1      -3.770  -6.686 -18.613  0.00  0.00    +0.141 C 
ATOM     40  C   UNL     1      -3.049  -7.756 -17.790  0.00  0.00    -0.050 C 
ATOM     41  H   UNL     1      -3.735  -7.056 -15.999  0.00  0.00    -0.081 HD
ENDBRANCH  34  35
ENDBRANCH  33  34
ENDBRANCH  32  33
ENDBRANCH  30  32
ENDBRANCH  25  26
ENDBRANCH   1  25
TORSDOF 11
