REMARK  Name = CHEMBL574764
REMARK  8 active torsions:
REMARK  status: ('A' for Active; 'I' for Inactive)
REMARK    1  A    between atoms: C_4  and  C_7
REMARK    2  A    between atoms: C_10  and  C_17
REMARK    3  A    between atoms: C_19  and  O_23
REMARK    4  A    between atoms: O_23  and  C_24
REMARK    5  A    between atoms: C_24  and  C_25
REMARK    6  A    between atoms: C_25  and  C_27
REMARK    7  A    between atoms: C_25  and  N_38
REMARK    8  A    between atoms: C_27  and  C_28
REMARK                            x       y       z     vdW  Elec       q    Type
REMARK                         _______ _______ _______ _____ _____    ______ ____
ROOT
ATOM      1  C   UNL     1       3.039  -4.930   2.738  0.00  0.00    +0.004 A 
ATOM      2  C   UNL     1       3.622  -6.095   3.241  0.00  0.00    +0.057 A 
ATOM      3  C   UNL     1       2.841  -6.938   4.020  0.00  0.00    +0.139 A 
ATOM      4  C   UNL     1       1.518  -6.597   4.269  0.00  0.00    +0.156 A 
ATOM      5  N   UNL     1       1.000  -5.489   3.777  0.00  0.00    -0.259 NA
ATOM      6  C   UNL     1       1.706  -4.658   3.039  0.00  0.00    +0.119 A 
ENDROOT
BRANCH   1  10
ATOM      7  C   UNL     1       3.698  -0.688  -0.038  0.00  0.00    +0.100 A 
ATOM      8  C   UNL     1       3.990  -1.963   0.626  0.00  0.00    +0.028 A 
ATOM      9  C   UNL     1       3.238  -2.837   1.412  0.00  0.00    +0.020 A 
ATOM     10  C   UNL     1       3.828  -3.993   1.900  0.00  0.00    -0.016 A 
ATOM     11  C   UNL     1       5.167  -4.278   1.606  0.00  0.00    +0.010 A 
ATOM     12  C   UNL     1       5.907  -3.428   0.839  0.00  0.00    +0.028 A 
ATOM     13  C   UNL     1       5.334  -2.260   0.337  0.00  0.00    +0.066 A 
ATOM     14  N   UNL     1       5.810  -1.237  -0.443  0.00  0.00    -0.276 N 
ATOM     15  H   UNL     1       6.711  -1.172  -0.796  0.00  0.00    +0.189 HD
ATOM     16  N   UNL     1       4.790  -0.304  -0.654  0.00  0.00    -0.173 NA
BRANCH   7  20
ATOM     17  C   UNL     1      -0.017   1.379   0.010  0.00  0.00    +0.000 A 
ATOM     18  C   UNL     1       1.169   2.092   0.002  0.00  0.00    +0.001 A 
ATOM     19  C   UNL     1       2.377   1.427  -0.013  0.00  0.00    +0.010 A 
ATOM     20  C   UNL     1       2.403   0.033  -0.021  0.00  0.00    +0.003 A 
ATOM     21  C   UNL     1       1.205  -0.680  -0.013  0.00  0.00    +0.010 A 
ATOM     22  C   UNL     1       0.002  -0.004   0.002  0.00  0.00    +0.001 A 
ENDBRANCH   7  20
ENDBRANCH   1  10
BRANCH   3  23
ATOM     23  O   UNL     1       3.364  -8.083   4.532  0.00  0.00    -0.492 OA
BRANCH  23  24
ATOM     24  C   UNL     1       2.495  -8.897   5.323  0.00  0.00    +0.213 C 
BRANCH  24  25
ATOM     25  C   UNL     1       3.256 -10.133   5.808  0.00  0.00    -0.033 C 
BRANCH  25  26
ATOM     26  N   UNL     1       4.334  -9.719   6.716  0.00  0.00    +0.382 N 
ATOM     27  H   UNL     1       3.939  -9.235   7.508  0.00  0.00    -0.089 HD
ATOM     28  H   UNL     1       4.835 -10.535   7.036  0.00  0.00    -0.089 HD
ATOM     29  H   UNL     1       4.968  -9.105   6.227  0.00  0.00    -0.089 HD
ENDBRANCH  25  26
BRANCH  25  30
ATOM     30  C   UNL     1       2.294 -11.064   6.549  0.00  0.00    +0.024 C 
BRANCH  30  31
ATOM     31  C   UNL     1       3.013 -12.336   6.920  0.00  0.00    -0.024 A 
ATOM     32  C   UNL     1       3.025 -13.480   6.218  0.00  0.00    +0.087 A 
ATOM     33  N   UNL     1       3.783 -14.417   6.865  0.00  0.00    -0.360 N 
ATOM     34  H   UNL     1       3.940 -15.321   6.551  0.00  0.00    +0.165 HD
ATOM     35  C   UNL     1       4.291 -13.885   8.029  0.00  0.00    +0.047 A 
ATOM     36  C   UNL     1       3.836 -12.556   8.111  0.00  0.00    +0.003 A 
ATOM     37  C   UNL     1       4.204 -11.760   9.197  0.00  0.00    +0.010 A 
ATOM     38  C   UNL     1       5.007 -12.276  10.175  0.00  0.00    +0.001 A 
ATOM     39  C   UNL     1       5.462 -13.584  10.097  0.00  0.00    +0.002 A 
ATOM     40  C   UNL     1       5.104 -14.390   9.038  0.00  0.00    +0.026 A 
ENDBRANCH  30  31
ENDBRANCH  25  30
ENDBRANCH  24  25
ENDBRANCH  23  24
ENDBRANCH   3  23
TORSDOF 8
