REMARK  Name = CHEMBL211774
REMARK  12 active torsions:
REMARK  status: ('A' for Active; 'I' for Inactive)
REMARK    1  A    between atoms: C_1  and  C_2
REMARK    2  A    between atoms: C_2  and  C_3
REMARK    3  A    between atoms: C_2  and  C_4
REMARK    4  A    between atoms: C_2  and  C_11
REMARK    5  A    between atoms: C_4  and  C_5
REMARK    6  A    between atoms: C_14  and  C_21
REMARK    7  A    between atoms: C_23  and  O_27
REMARK    8  A    between atoms: O_27  and  C_28
REMARK    9  A    between atoms: C_28  and  C_29
REMARK   10  A    between atoms: C_29  and  C_31
REMARK   11  A    between atoms: C_29  and  N_42
REMARK   12  A    between atoms: C_31  and  C_32
REMARK                            x       y       z     vdW  Elec       q    Type
REMARK                         _______ _______ _______ _____ _____    ______ ____
ROOT
ATOM      1  C   UNL     1       5.347   1.453  -0.823  0.00  0.00    +0.004 A 
ATOM      2  C   UNL     1       6.376   2.245  -1.339  0.00  0.00    +0.057 A 
ATOM      3  C   UNL     1       7.558   2.340  -0.616  0.00  0.00    +0.139 A 
ATOM      4  C   UNL     1       7.676   1.651   0.583  0.00  0.00    +0.156 A 
ATOM      5  N   UNL     1       6.684   0.912   1.041  0.00  0.00    -0.259 NA
ATOM      6  C   UNL     1       5.544   0.798   0.392  0.00  0.00    +0.119 A 
ENDROOT
BRANCH   1  10
ATOM      7  C   UNL     1       0.575  -0.349  -1.426  0.00  0.00    +0.113 C 
ATOM      8  C   UNL     1       1.852   0.407  -1.713  0.00  0.00    -0.013 A 
ATOM      9  C   UNL     1       3.038   0.528  -1.029  0.00  0.00    +0.014 A 
ATOM     10  C   UNL     1       4.064   1.316  -1.553  0.00  0.00    -0.016 A 
ATOM     11  C   UNL     1       3.873   1.974  -2.768  0.00  0.00    +0.010 A 
ATOM     12  C   UNL     1       2.682   1.848  -3.446  0.00  0.00    +0.024 A 
ATOM     13  C   UNL     1       1.655   1.061  -2.924  0.00  0.00    +0.037 A 
ATOM     14  N   UNL     1       0.381   0.784  -3.419  0.00  0.00    -0.285 N 
ATOM     15  C   UNL     1      -0.315  -0.029  -2.608  0.00  0.00    +0.225 C 
ATOM     16  O   UNL     1      -1.445  -0.432  -2.788  0.00  0.00    -0.275 OA
ATOM     17  H   UNL     1       0.036   1.140  -4.253  0.00  0.00    +0.155 HD
BRANCH   7  19
ATOM     18  C   UNL     1      -0.295   1.656  -0.215  0.00  0.00    +0.012 C 
ATOM     19  C   UNL     1      -0.061   0.146  -0.126  0.00  0.00    -0.014 C 
ATOM     20  C   UNL     1       0.874  -0.156   1.047  0.00  0.00    +0.012 C 
BRANCH  19  21
ATOM     21  C   UNL     1      -1.398  -0.565   0.091  0.00  0.00    +0.062 C 
BRANCH  21  22
ATOM     22  C   UNL     1      -2.087   0.018   1.298  0.00  0.00    +0.042 A 
ATOM     23  C   UNL     1      -3.349   0.566   1.166  0.00  0.00    +0.023 A 
ATOM     24  C   UNL     1      -3.974   1.100   2.283  0.00  0.00    +0.003 A 
ATOM     25  C   UNL     1      -3.303   1.061   3.496  0.00  0.00    +0.020 A 
ATOM     26  C   UNL     1      -2.043   0.497   3.551  0.00  0.00    +0.111 A 
ATOM     27  N   UNL     1      -1.481  -0.006   2.469  0.00  0.00    -0.260 NA
ENDBRANCH  21  22
ENDBRANCH  19  21
ENDBRANCH   7  19
ENDBRANCH   1  10
BRANCH   3  28
ATOM     28  O   UNL     1       8.588   3.099  -1.078  0.00  0.00    -0.492 OA
BRANCH  28  29
ATOM     29  C   UNL     1       9.770   3.145  -0.277  0.00  0.00    +0.213 C 
BRANCH  29  30
ATOM     30  C   UNL     1      10.810   4.040  -0.953  0.00  0.00    -0.033 C 
BRANCH  30  31
ATOM     31  N   UNL     1      10.313   5.423  -0.994  0.00  0.00    +0.382 N 
ATOM     32  H   UNL     1      10.999   6.013  -1.439  0.00  0.00    -0.089 HD
ATOM     33  H   UNL     1       9.451   5.455  -1.516  0.00  0.00    -0.089 HD
ATOM     34  H   UNL     1      10.149   5.749  -0.053  0.00  0.00    -0.089 HD
ENDBRANCH  30  31
BRANCH  30  35
ATOM     35  C   UNL     1      12.117   3.991  -0.160  0.00  0.00    +0.024 C 
BRANCH  35  36
ATOM     36  C   UNL     1      13.178   4.774  -0.891  0.00  0.00    -0.024 A 
ATOM     37  C   UNL     1      14.086   4.281  -1.748  0.00  0.00    +0.087 A 
ATOM     38  N   UNL     1      14.883   5.291  -2.215  0.00  0.00    -0.360 N 
ATOM     39  H   UNL     1      15.612   5.179  -2.845  0.00  0.00    +0.165 HD
ATOM     40  C   UNL     1      14.497   6.489  -1.656  0.00  0.00    +0.047 A 
ATOM     41  C   UNL     1      13.407   6.219  -0.808  0.00  0.00    +0.003 A 
ATOM     42  C   UNL     1      12.798   7.259  -0.103  0.00  0.00    +0.010 A 
ATOM     43  C   UNL     1      13.262   8.537  -0.245  0.00  0.00    +0.001 A 
ATOM     44  C   UNL     1      14.334   8.809  -1.084  0.00  0.00    +0.002 A 
ATOM     45  C   UNL     1      14.956   7.796  -1.781  0.00  0.00    +0.026 A 
ENDBRANCH  35  36
ENDBRANCH  30  35
ENDBRANCH  29  30
ENDBRANCH  28  29
ENDBRANCH   3  28
TORSDOF 10
