REMARK  Name = CHEMBL378211
REMARK  9 active torsions:
REMARK  status: ('A' for Active; 'I' for Inactive)
REMARK    1  A    between atoms: C_4  and  C_7
REMARK    2  A    between atoms: C_8  and  C_9
REMARK    3  A    between atoms: C_13  and  C_19
REMARK    4  A    between atoms: C_21  and  O_25
REMARK    5  A    between atoms: O_25  and  C_26
REMARK    6  A    between atoms: C_26  and  C_27
REMARK    7  A    between atoms: C_27  and  C_29
REMARK    8  A    between atoms: C_27  and  N_40
REMARK    9  A    between atoms: C_29  and  C_30
REMARK                            x       y       z     vdW  Elec       q    Type
REMARK                         _______ _______ _______ _____ _____    ______ ____
ROOT
ATOM      1  C   UNL     1      12.048  -1.291  -0.106  0.00  0.00    +0.004 A 
ATOM      2  C   UNL     1      13.236  -2.026  -0.127  0.00  0.00    +0.057 A 
ATOM      3  C   UNL     1      14.439  -1.331  -0.129  0.00  0.00    +0.139 A 
ATOM      4  C   UNL     1      14.419   0.057  -0.110  0.00  0.00    +0.156 A 
ATOM      5  N   UNL     1      13.279   0.719  -0.089  0.00  0.00    -0.259 NA
ATOM      6  C   UNL     1      12.115   0.101  -0.093  0.00  0.00    +0.119 A 
ENDROOT
BRANCH   1  11
ATOM      7  C   UNL     1       5.934  -1.927  -0.066  0.00  0.00    +0.114 A 
ATOM      8  C   UNL     1       7.116  -1.199  -0.069  0.00  0.00    +0.045 A 
ATOM      9  C   UNL     1       8.333  -1.899  -0.085  0.00  0.00    -0.013 A 
ATOM     10  C   UNL     1       9.569  -1.238  -0.087  0.00  0.00    +0.017 A 
ATOM     11  C   UNL     1      10.735  -1.982  -0.103  0.00  0.00    -0.016 A 
ATOM     12  C   UNL     1      10.687  -3.385  -0.116  0.00  0.00    +0.009 A 
ATOM     13  C   UNL     1       9.498  -4.045  -0.114  0.00  0.00    +0.010 A 
ATOM     14  C   UNL     1       8.296  -3.320  -0.098  0.00  0.00    +0.000 A 
ATOM     15  C   UNL     1       7.047  -3.965  -0.094  0.00  0.00    +0.120 A 
ATOM     16  N   UNL     1       5.941  -3.263  -0.074  0.00  0.00    -0.246 NA
BRANCH   7  18
ATOM     17  C   UNL     1       3.656  -0.661  -0.037  0.00  0.00    -0.060 C 
ATOM     18  C   UNL     1       4.682  -1.231  -0.050  0.00  0.00    -0.041 C 
BRANCH  17  22
ATOM     19  C   UNL     1      -0.017   1.380   0.010  0.00  0.00    +0.000 A 
ATOM     20  C   UNL     1       1.168   2.095   0.002  0.00  0.00    +0.001 A 
ATOM     21  C   UNL     1       2.377   1.432  -0.013  0.00  0.00    +0.017 A 
ATOM     22  C   UNL     1       2.404   0.035  -0.021  0.00  0.00    +0.025 A 
ATOM     23  C   UNL     1       1.204  -0.681  -0.013  0.00  0.00    +0.017 A 
ATOM     24  C   UNL     1       0.002  -0.004   0.002  0.00  0.00    +0.001 A 
ENDBRANCH  17  22
ENDBRANCH   7  18
ENDBRANCH   1  11
BRANCH   3  25
ATOM     25  O   UNL     1      15.621  -2.002  -0.149  0.00  0.00    -0.492 OA
BRANCH  25  26
ATOM     26  C   UNL     1      16.814  -1.216  -0.149  0.00  0.00    +0.213 C 
BRANCH  26  27
ATOM     27  C   UNL     1      18.033  -2.139  -0.173  0.00  0.00    -0.033 C 
BRANCH  27  28
ATOM     28  N   UNL     1      18.059  -2.884  -1.439  0.00  0.00    +0.382 N 
ATOM     29  H   UNL     1      18.863  -3.493  -1.455  0.00  0.00    -0.089 HD
ATOM     30  H   UNL     1      17.218  -3.436  -1.522  0.00  0.00    -0.089 HD
ATOM     31  H   UNL     1      18.113  -2.235  -2.210  0.00  0.00    -0.089 HD
ENDBRANCH  27  28
BRANCH  27  32
ATOM     32  C   UNL     1      19.308  -1.302  -0.048  0.00  0.00    +0.024 C 
BRANCH  32  33
ATOM     33  C   UNL     1      20.502  -2.218   0.052  0.00  0.00    -0.024 A 
ATOM     34  C   UNL     1      21.089  -2.643   1.181  0.00  0.00    +0.087 A 
ATOM     35  N   UNL     1      22.144  -3.461   0.879  0.00  0.00    -0.360 N 
ATOM     36  H   UNL     1      22.721  -3.890   1.530  0.00  0.00    +0.165 HD
ATOM     37  C   UNL     1      22.264  -3.585  -0.487  0.00  0.00    +0.047 A 
ATOM     38  C   UNL     1      21.236  -2.817  -1.065  0.00  0.00    +0.003 A 
ATOM     39  C   UNL     1      21.108  -2.758  -2.454  0.00  0.00    +0.010 A 
ATOM     40  C   UNL     1      21.979  -3.452  -3.246  0.00  0.00    +0.001 A 
ATOM     41  C   UNL     1      22.991  -4.215  -2.680  0.00  0.00    +0.002 A 
ATOM     42  C   UNL     1      23.142  -4.279  -1.312  0.00  0.00    +0.026 A 
ENDBRANCH  32  33
ENDBRANCH  27  32
ENDBRANCH  26  27
ENDBRANCH  25  26
ENDBRANCH   3  25
TORSDOF 9
