REMARK  Name = CHEMBL576386
REMARK  8 active torsions:
REMARK  status: ('A' for Active; 'I' for Inactive)
REMARK    1  A    between atoms: C_7  and  C_11
REMARK    2  A    between atoms: C_11  and  C_12
REMARK    3  A    between atoms: C_12  and  C_14
REMARK    4  A    between atoms: C_12  and  N_38
REMARK    5  A    between atoms: C_14  and  O_15
REMARK    6  A    between atoms: O_15  and  C_16
REMARK    7  A    between atoms: C_18  and  C_22
REMARK    8  A    between atoms: C_28  and  C_32
REMARK                            x       y       z     vdW  Elec       q    Type
REMARK                         _______ _______ _______ _____ _____    ______ ____
ROOT
ATOM      1  C   UNL     1      -1.673  -6.334  -3.003  0.00  0.00    +0.139 A 
ATOM      2  C   UNL     1      -2.006  -6.750  -4.286  0.00  0.00    +0.057 A 
ATOM      3  C   UNL     1      -2.783  -7.902  -4.426  0.00  0.00    +0.004 A 
ATOM      4  C   UNL     1      -3.191  -8.586  -3.282  0.00  0.00    +0.119 A 
ATOM      5  N   UNL     1      -2.852  -8.155  -2.085  0.00  0.00    -0.259 NA
ATOM      6  C   UNL     1      -2.115  -7.074  -1.915  0.00  0.00    +0.156 A 
ENDROOT
BRANCH   3   7
ATOM      7  C   UNL     1      -3.168  -8.392  -5.773  0.00  0.00    -0.016 A 
ATOM      8  C   UNL     1      -2.752  -7.706  -6.914  0.00  0.00    +0.010 A 
ATOM      9  C   UNL     1      -3.110  -8.159  -8.164  0.00  0.00    +0.024 A 
ATOM     10  C   UNL     1      -3.891  -9.307  -8.300  0.00  0.00    +0.038 A 
ATOM     11  C   UNL     1      -4.301  -9.986  -7.158  0.00  0.00    -0.009 A 
ATOM     12  C   UNL     1      -3.944  -9.543  -5.906  0.00  0.00    +0.015 A 
ATOM     13  C   UNL     1      -5.117 -11.165  -7.635  0.00  0.00    +0.138 C 
ATOM     14  C   UNL     1      -5.096 -11.041  -9.143  0.00  0.00    +0.229 C 
ATOM     15  O   UNL     1      -5.632 -11.788  -9.935  0.00  0.00    -0.274 OA
ATOM     16  N   UNL     1      -4.371  -9.950  -9.441  0.00  0.00    -0.284 N 
ATOM     17  H   UNL     1      -4.202  -9.643 -10.345  0.00  0.00    +0.155 HD
BRANCH  13  18
ATOM     18  C   UNL     1      -4.477 -12.459  -7.202  0.00  0.00    -0.013 A 
ATOM     19  C   UNL     1      -5.168 -13.348  -6.392  0.00  0.00    +0.007 A 
ATOM     20  C   UNL     1      -4.539 -14.526  -6.019  0.00  0.00    +0.020 A 
ATOM     21  C   UNL     1      -3.254 -14.774  -6.463  0.00  0.00    +0.111 A 
ATOM     22  N   UNL     1      -2.627 -13.906  -7.233  0.00  0.00    -0.263 NA
ATOM     23  C   UNL     1      -3.196 -12.778  -7.612  0.00  0.00    +0.115 A 
ENDBRANCH  13  18
ENDBRANCH   3   7
BRANCH   1  24
ATOM     24  O   UNL     1      -0.919  -5.219  -2.816  0.00  0.00    -0.492 OA
BRANCH  24  25
ATOM     25  C   UNL     1      -0.614  -4.861  -1.466  0.00  0.00    +0.213 C 
BRANCH  25  26
ATOM     26  C   UNL     1       0.236  -3.589  -1.455  0.00  0.00    -0.033 C 
BRANCH  26  27
ATOM     27  N   UNL     1      -0.552  -2.469  -1.986  0.00  0.00    +0.382 N 
ATOM     28  H   UNL     1      -1.370  -2.331  -1.412  0.00  0.00    -0.089 HD
ATOM     29  H   UNL     1       0.009  -1.630  -1.979  0.00  0.00    -0.089 HD
ATOM     30  H   UNL     1      -0.836  -2.676  -2.932  0.00  0.00    -0.089 HD
ENDBRANCH  26  27
BRANCH  26  31
ATOM     31  C   UNL     1       0.666  -3.275  -0.021  0.00  0.00    +0.024 C 
BRANCH  31  38
ATOM     32  C   UNL     1      -0.017   1.362   0.009  0.00  0.00    +0.001 A 
ATOM     33  C   UNL     1       1.170   2.083   0.002  0.00  0.00    +0.002 A 
ATOM     34  C   UNL     1       2.386   1.436  -0.013  0.00  0.00    +0.026 A 
ATOM     35  C   UNL     1       2.428   0.046  -0.021  0.00  0.00    +0.047 A 
ATOM     36  C   UNL     1       1.223  -0.681  -0.013  0.00  0.00    +0.003 A 
ATOM     37  C   UNL     1       0.002  -0.004   0.002  0.00  0.00    +0.010 A 
ATOM     38  C   UNL     1       1.604  -2.095  -0.025  0.00  0.00    -0.024 A 
ATOM     39  C   UNL     1       2.945  -2.141  -0.038  0.00  0.00    +0.087 A 
ATOM     40  N   UNL     1       3.455  -0.871  -0.036  0.00  0.00    -0.360 N 
ATOM     41  H   UNL     1       4.399  -0.650  -0.044  0.00  0.00    +0.165 HD
ENDBRANCH  31  38
ENDBRANCH  26  31
ENDBRANCH  25  26
ENDBRANCH  24  25
ENDBRANCH   1  24
TORSDOF 8
