REMARK  Name = CHEMBL1081830
REMARK  8 active torsions:
REMARK  status: ('A' for Active; 'I' for Inactive)
REMARK    1  A    between atoms: C_3  and  C_28
REMARK    2  A    between atoms: C_6  and  C_7
REMARK    3  A    between atoms: C_7  and  C_8
REMARK    4  A    between atoms: C_8  and  C_10
REMARK    5  A    between atoms: C_8  and  N_27
REMARK    6  A    between atoms: C_10  and  N_11
REMARK    7  A    between atoms: C_15  and  C_17
REMARK    8  A    between atoms: N_23  and  N_26
REMARK                            x       y       z     vdW  Elec       q    Type
REMARK                         _______ _______ _______ _____ _____    ______ ____
ROOT
ATOM      1  N   UNL     1      -3.494  -2.062  -2.791  0.00  0.00    -0.325 N 
ATOM      2  C   UNL     1      -4.621  -2.826  -3.037  0.00  0.00    +0.159 A 
ATOM      3  N   UNL     1      -5.366  -3.485  -2.173  0.00  0.00    -0.233 NA
ATOM      4  C   UNL     1      -6.418  -4.174  -2.563  0.00  0.00    +0.129 A 
ATOM      5  C   UNL     1      -6.693  -4.170  -3.905  0.00  0.00    +0.041 A 
ATOM      6  S   UNL     1      -5.373  -3.132  -4.511  0.00  0.00    -0.052 S 
ATOM      7  H   UNL     1      -3.037  -1.621  -3.525  0.00  0.00    +0.148 HD
ENDROOT
BRANCH   5   8
ATOM      8  C   UNL     1      -7.785  -4.836  -4.645  0.00  0.00    -0.008 A 
ATOM      9  C   UNL     1      -8.732  -5.605  -3.954  0.00  0.00    +0.011 A 
ATOM     10  C   UNL     1      -9.743  -6.224  -4.622  0.00  0.00    +0.030 A 
ATOM     11  C   UNL     1      -9.847  -6.098  -6.015  0.00  0.00    +0.086 A 
ATOM     12  C   UNL     1      -8.900  -5.327  -6.714  0.00  0.00    +0.108 A 
ATOM     13  C   UNL     1      -7.875  -4.694  -6.026  0.00  0.00    +0.040 A 
ATOM     14  N   UNL     1      -9.261  -5.392  -8.040  0.00  0.00    -0.168 N 
ATOM     15  N   UNL     1     -10.409  -6.195  -8.102  0.00  0.00    -0.071 NA
ATOM     16  N   UNL     1     -10.721  -6.587  -6.917  0.00  0.00    -0.257 N 
ATOM     17  H   UNL     1     -11.479  -7.154  -6.703  0.00  0.00    +0.191 HD
BRANCH  14  18
ATOM     18  N   UNL     1      -8.626  -4.791  -9.090  0.00  0.00    -0.281 N 
ATOM     19  H   UNL     1      -7.917  -5.395  -9.477  0.00  0.00    +0.164 HD
ATOM     20  H   UNL     1      -9.287  -4.508  -9.798  0.00  0.00    +0.164 HD
ENDBRANCH  14  18
ENDBRANCH   5   8
BRANCH   1  21
ATOM     21  C   UNL     1      -2.991  -1.917  -1.423  0.00  0.00    +0.087 C 
BRANCH  21  22
ATOM     22  C   UNL     1      -1.745  -1.028  -1.429  0.00  0.00    -0.053 C 
BRANCH  22  23
ATOM     23  N   UNL     1      -2.060   0.252  -2.076  0.00  0.00    +0.381 N 
ATOM     24  H   UNL     1      -2.358   0.085  -3.025  0.00  0.00    -0.090 HD
ATOM     25  H   UNL     1      -2.799   0.713  -1.567  0.00  0.00    -0.090 HD
ATOM     26  H   UNL     1      -1.238   0.838  -2.079  0.00  0.00    -0.090 HD
ENDBRANCH  22  23
BRANCH  22  27
ATOM     27  C   UNL     1      -1.293  -0.775   0.011  0.00  0.00    +0.020 C 
BRANCH  27  33
ATOM     28  C   UNL     1      -0.017   1.378   0.010  0.00  0.00    +0.004 A 
ATOM     29  C   UNL     1       1.171   2.086   0.002  0.00  0.00    +0.012 A 
ATOM     30  C   UNL     1       2.377   1.411  -0.013  0.00  0.00    +0.055 A 
ATOM     31  C   UNL     1       2.396   0.029  -0.020  0.00  0.00    +0.012 A 
ATOM     32  C   UNL     1       1.208  -0.679  -0.012  0.00  0.00    +0.004 A 
ATOM     33  C   UNL     1       0.002  -0.004   0.002  0.00  0.00    -0.049 A 
BRANCH  30  34
ATOM     34  C   UNL     1       3.672   2.182  -0.022  0.00  0.00    +0.417 C 
ATOM     35  F   UNL     1       4.086   2.414   1.294  0.00  0.00    -0.166 F 
ATOM     36  F   UNL     1       4.651   1.442  -0.695  0.00  0.00    -0.166 F 
ATOM     37  F   UNL     1       3.482   3.405  -0.674  0.00  0.00    -0.166 F 
ENDBRANCH  30  34
ENDBRANCH  27  33
ENDBRANCH  22  27
ENDBRANCH  21  22
ENDBRANCH   1  21
TORSDOF 8
