REMARK  Name = CHEMBL270388
REMARK  6 active torsions:
REMARK  status: ('A' for Active; 'I' for Inactive)
REMARK    1  A    between atoms: C_4  and  C_7
REMARK    2  A    between atoms: C_9  and  C_38
REMARK    3  A    between atoms: C_12  and  C_13
REMARK    4  A    between atoms: C_16  and  C_19
REMARK    5  A    between atoms: C_19  and  N_20
REMARK    6  A    between atoms: C_23  and  N_26
REMARK                            x       y       z     vdW  Elec       q    Type
REMARK                         _______ _______ _______ _____ _____    ______ ____
ROOT
ATOM      1  C   UNL     1       2.917  -2.087   1.874  0.00  0.00    +0.001 A 
ATOM      2  C   UNL     1       2.086  -1.106   2.416  0.00  0.00    +0.010 A 
ATOM      3  C   UNL     1       1.123  -1.455   3.340  0.00  0.00    +0.002 A 
ATOM      4  C   UNL     1       0.980  -2.775   3.729  0.00  0.00    -0.064 A 
ATOM      5  C   UNL     1       1.800  -3.753   3.195  0.00  0.00    +0.002 A 
ATOM      6  C   UNL     1       2.763  -3.417   2.266  0.00  0.00    +0.010 A 
ENDROOT
BRANCH   1  12
ATOM      7  C   UNL     1       3.698  -0.688  -0.038  0.00  0.00    +0.009 A 
ATOM      8  C   UNL     1       4.684  -0.349  -0.962  0.00  0.00    +0.032 A 
ATOM      9  C   UNL     1       5.889  -1.059  -0.938  0.00  0.00    +0.089 A 
ATOM     10  C   UNL     1       6.061  -2.078   0.007  0.00  0.00    +0.147 A 
ATOM     11  N   UNL     1       5.107  -2.372   0.866  0.00  0.00    -0.233 NA
ATOM     12  C   UNL     1       3.952  -1.719   0.881  0.00  0.00    +0.080 A 
ATOM     13 CL   UNL     1       7.552  -2.966   0.047  0.00  0.00    -0.061 Cl
BRANCH   7  17
ATOM     14  C   UNL     1      -0.017   1.379   0.010  0.00  0.00    +0.000 A 
ATOM     15  C   UNL     1       1.169   2.092   0.002  0.00  0.00    +0.001 A 
ATOM     16  C   UNL     1       2.377   1.427  -0.013  0.00  0.00    +0.008 A 
ATOM     17  C   UNL     1       2.402   0.033  -0.021  0.00  0.00    -0.016 A 
ATOM     18  C   UNL     1       1.205  -0.680  -0.013  0.00  0.00    +0.008 A 
ATOM     19  C   UNL     1       0.002  -0.004   0.002  0.00  0.00    +0.001 A 
ENDBRANCH   7  17
BRANCH   9  20
ATOM     20  C   UNL     1       6.933  -0.749  -1.867  0.00  0.00    +0.102 C 
ATOM     21  N   UNL     1       7.761  -0.502  -2.604  0.00  0.00    -0.191 NA
ENDBRANCH   9  20
ENDBRANCH   1  12
BRANCH   4  22
ATOM     22  C   UNL     1      -0.074  -3.150   4.739  0.00  0.00    -0.043 C 
BRANCH  22  23
ATOM     23  N   UNL     1      -1.326  -3.474   4.043  0.00  0.00    +0.382 N 
ATOM     24  C   UNL     1      -1.833  -2.275   3.367  0.00  0.00    -0.076 C 
ATOM     25  C   UNL     1      -3.094  -2.626   2.574  0.00  0.00    +0.006 C 
ATOM     26  C   UNL     1      -4.160  -3.163   3.532  0.00  0.00    +0.089 C 
ATOM     27  C   UNL     1      -3.594  -4.370   4.287  0.00  0.00    +0.006 C 
ATOM     28  C   UNL     1      -2.315  -3.953   5.016  0.00  0.00    -0.076 C 
ATOM     29  H   UNL     1      -1.152  -4.196   3.359  0.00  0.00    -0.081 HD
BRANCH  26  30
ATOM     30  N   UNL     1      -5.342  -3.573   2.770  0.00  0.00    -0.289 N 
ATOM     31  C   UNL     1      -6.626  -3.051   2.913  0.00  0.00    +0.070 A 
ATOM     32  C   UNL     1      -7.170  -2.073   3.732  0.00  0.00    +0.028 A 
ATOM     33  C   UNL     1      -8.513  -1.768   3.639  0.00  0.00    +0.002 A 
ATOM     34  C   UNL     1      -9.319  -2.434   2.732  0.00  0.00    +0.002 A 
ATOM     35  C   UNL     1      -8.787  -3.409   1.912  0.00  0.00    +0.028 A 
ATOM     36  C   UNL     1      -7.439  -3.722   1.998  0.00  0.00    +0.067 A 
ATOM     37  N   UNL     1      -6.624  -4.632   1.327  0.00  0.00    -0.306 N 
ATOM     38  H   UNL     1      -6.910  -5.242   0.629  0.00  0.00    +0.170 HD
ATOM     39  C   UNL     1      -5.372  -4.514   1.808  0.00  0.00    +0.328 A 
ATOM     40  O   UNL     1      -4.414  -5.163   1.433  0.00  0.00    -0.247 OA
ENDBRANCH  26  30
ENDBRANCH  22  23
ENDBRANCH   4  22
TORSDOF 6
