REMARK  Name = CHEMBL211774
REMARK  12 active torsions:
REMARK  status: ('A' for Active; 'I' for Inactive)
REMARK    1  A    between atoms: C_1  and  C_2
REMARK    2  A    between atoms: C_2  and  C_3
REMARK    3  A    between atoms: C_2  and  C_4
REMARK    4  A    between atoms: C_2  and  C_11
REMARK    5  A    between atoms: C_4  and  C_5
REMARK    6  A    between atoms: C_14  and  C_21
REMARK    7  A    between atoms: C_23  and  O_27
REMARK    8  A    between atoms: O_27  and  C_28
REMARK    9  A    between atoms: C_28  and  C_29
REMARK   10  A    between atoms: C_29  and  C_31
REMARK   11  A    between atoms: C_29  and  N_42
REMARK   12  A    between atoms: C_31  and  C_32
REMARK                            x       y       z     vdW  Elec       q    Type
REMARK                         _______ _______ _______ _____ _____    ______ ____
ROOT
ATOM      1  C   UNL     1       4.435   3.222  -1.368  0.00  0.00    +0.004 A 
ATOM      2  C   UNL     1       5.808   3.477  -1.363  0.00  0.00    +0.057 A 
ATOM      3  C   UNL     1       6.232   4.799  -1.386  0.00  0.00    +0.139 A 
ATOM      4  C   UNL     1       5.284   5.813  -1.413  0.00  0.00    +0.156 A 
ATOM      5  N   UNL     1       3.995   5.536  -1.417  0.00  0.00    -0.259 NA
ATOM      6  C   UNL     1       3.549   4.297  -1.402  0.00  0.00    +0.119 A 
ENDROOT
BRANCH   1  10
ATOM      7  C   UNL     1       0.704  -0.308  -1.338  0.00  0.00    +0.113 C 
ATOM      8  C   UNL     1       2.093   0.286  -1.333  0.00  0.00    -0.013 A 
ATOM      9  C   UNL     1       2.555   1.580  -1.355  0.00  0.00    +0.014 A 
ATOM     10  C   UNL     1       3.927   1.828  -1.344  0.00  0.00    -0.016 A 
ATOM     11  C   UNL     1       4.819   0.757  -1.311  0.00  0.00    +0.010 A 
ATOM     12  C   UNL     1       4.349  -0.537  -1.289  0.00  0.00    +0.024 A 
ATOM     13  C   UNL     1       2.977  -0.787  -1.300  0.00  0.00    +0.037 A 
ATOM     14  N   UNL     1       2.272  -1.991  -1.284  0.00  0.00    -0.285 N 
ATOM     15  C   UNL     1       0.942  -1.803  -1.304  0.00  0.00    +0.225 C 
ATOM     16  O   UNL     1       0.093  -2.668  -1.296  0.00  0.00    -0.275 OA
ATOM     17  H   UNL     1       2.695  -2.864  -1.260  0.00  0.00    +0.155 HD
BRANCH   7  19
ATOM     18  C   UNL     1      -0.271   1.655  -0.140  0.00  0.00    +0.012 C 
ATOM     19  C   UNL     1      -0.075   0.139  -0.099  0.00  0.00    -0.014 C 
ATOM     20  C   UNL     1       0.708  -0.240   1.159  0.00  0.00    +0.012 C 
BRANCH  19  21
ATOM     21  C   UNL     1      -1.440  -0.552  -0.078  0.00  0.00    +0.062 C 
BRANCH  21  22
ATOM     22  C   UNL     1      -2.261  -0.007   1.062  0.00  0.00    +0.042 A 
ATOM     23  C   UNL     1      -3.494   0.563   0.805  0.00  0.00    +0.023 A 
ATOM     24  C   UNL     1      -4.241   1.062   1.861  0.00  0.00    +0.003 A 
ATOM     25  C   UNL     1      -3.718   0.968   3.142  0.00  0.00    +0.020 A 
ATOM     26  C   UNL     1      -2.478   0.385   3.322  0.00  0.00    +0.111 A 
ATOM     27  N   UNL     1      -1.797  -0.084   2.295  0.00  0.00    -0.260 NA
ENDBRANCH  21  22
ENDBRANCH  19  21
ENDBRANCH   7  19
ENDBRANCH   1  10
BRANCH   3  28
ATOM     28  O   UNL     1       7.558   5.097  -1.381  0.00  0.00    -0.492 OA
BRANCH  28  29
ATOM     29  C   UNL     1       7.912   6.481  -1.406  0.00  0.00    +0.213 C 
BRANCH  29  30
ATOM     30  C   UNL     1       9.436   6.619  -1.397  0.00  0.00    -0.033 C 
BRANCH  30  31
ATOM     31  N   UNL     1       9.986   6.054  -2.636  0.00  0.00    +0.382 N 
ATOM     32  H   UNL     1      10.991   6.145  -2.630  0.00  0.00    -0.089 HD
ATOM     33  H   UNL     1       9.736   5.079  -2.702  0.00  0.00    -0.089 HD
ATOM     34  H   UNL     1       9.608   6.552  -3.429  0.00  0.00    -0.089 HD
ENDBRANCH  30  31
BRANCH  30  35
ATOM     35  C   UNL     1       9.814   8.098  -1.297  0.00  0.00    +0.024 C 
BRANCH  35  36
ATOM     36  C   UNL     1      11.310   8.226  -1.165  0.00  0.00    -0.024 A 
ATOM     37  C   UNL     1      12.004   8.333  -0.020  0.00  0.00    +0.087 A 
ATOM     38  N   UNL     1      13.341   8.430  -0.293  0.00  0.00    -0.360 N 
ATOM     39  H   UNL     1      14.041   8.516   0.373  0.00  0.00    +0.165 HD
ATOM     40  C   UNL     1      13.546   8.386  -1.654  0.00  0.00    +0.047 A 
ATOM     41  C   UNL     1      12.283   8.250  -2.259  0.00  0.00    +0.003 A 
ATOM     42  C   UNL     1      12.182   8.174  -3.649  0.00  0.00    +0.010 A 
ATOM     43  C   UNL     1      13.312   8.228  -4.416  0.00  0.00    +0.001 A 
ATOM     44  C   UNL     1      14.560   8.358  -3.823  0.00  0.00    +0.002 A 
ATOM     45  C   UNL     1      14.682   8.445  -2.454  0.00  0.00    +0.026 A 
ENDBRANCH  35  36
ENDBRANCH  30  35
ENDBRANCH  29  30
ENDBRANCH  28  29
ENDBRANCH   3  28
TORSDOF 10
