REMARK  Name = CHEMBL1099290
REMARK  12 active torsions:
REMARK  status: ('A' for Active; 'I' for Inactive)
REMARK    1  A    between atoms: C_1  and  C_2
REMARK    2  A    between atoms: C_2  and  N_3
REMARK    3  A    between atoms: C_6  and  C_24
REMARK    4  A    between atoms: C_8  and  C_18
REMARK    5  A    between atoms: C_11  and  C_12
REMARK    6  A    between atoms: C_19  and  C_20
REMARK    7  A    between atoms: C_20  and  C_21
REMARK    8  A    between atoms: C_20  and  C_22
REMARK    9  A    between atoms: C_20  and  O_23
REMARK   10  A    between atoms: C_24  and  N_25
REMARK   11  A    between atoms: N_25  and  C_26
REMARK   12  A    between atoms: N_25  and  C_27
REMARK                            x       y       z     vdW  Elec       q    Type
REMARK                         _______ _______ _______ _____ _____    ______ ____
ROOT
ATOM      1  N   UNL     1      -1.372  -0.511   0.012  0.00  0.00    -0.322 N 
ATOM      2  C   UNL     1      -2.130  -0.795   1.124  0.00  0.00    +0.074 A 
ATOM      3  C   UNL     1      -1.927  -0.725   2.498  0.00  0.00    +0.052 A 
ATOM      4  C   UNL     1      -2.946  -1.104   3.347  0.00  0.00    +0.059 A 
ATOM      5  N   UNL     1      -4.107  -1.530   2.883  0.00  0.00    -0.240 NA
ATOM      6  C   UNL     1      -4.361  -1.618   1.584  0.00  0.00    +0.141 A 
ATOM      7  C   UNL     1      -3.375  -1.251   0.647  0.00  0.00    +0.123 A 
ATOM      8  N   UNL     1      -3.321  -1.226  -0.696  0.00  0.00    -0.223 NA
ATOM      9  C   UNL     1      -2.147  -0.787  -1.084  0.00  0.00    +0.167 A 
ENDROOT
BRANCH   9  10
ATOM     10  C   UNL     1      -1.723  -0.617  -2.491  0.00  0.00    +0.190 A 
ATOM     11  C   UNL     1      -2.542  -0.902  -3.676  0.00  0.00    +0.191 A 
ATOM     12  N   UNL     1      -1.833  -0.632  -4.738  0.00  0.00    -0.033 NA
ATOM     13  O   UNL     1      -0.562  -0.175  -4.310  0.00  0.00    -0.240 OA
ATOM     14  N   UNL     1      -0.557  -0.183  -2.893  0.00  0.00    -0.044 NA
ATOM     15  N   UNL     1      -3.846  -1.376  -3.669  0.00  0.00    -0.339 N 
ATOM     16  H   UNL     1      -4.295  -1.548  -2.827  0.00  0.00    +0.144 HD
ATOM     17  H   UNL     1      -4.309  -1.535  -4.507  0.00  0.00    +0.144 HD
ENDBRANCH   9  10
BRANCH   1  19
ATOM     18  C   UNL     1      -0.019   1.526   0.010  0.00  0.00    +0.027 C 
ATOM     19  C   UNL     1       0.002  -0.004   0.002  0.00  0.00    +0.120 C 
ENDBRANCH   1  19
BRANCH   6  20
ATOM     20  C   UNL     1      -5.637  -2.087   1.135  0.00  0.00    -0.041 C 
ATOM     21  C   UNL     1      -6.683  -2.471   0.766  0.00  0.00    -0.061 C 
BRANCH  21  22
ATOM     22  C   UNL     1      -7.995  -2.953   0.304  0.00  0.00    +0.121 C 
ATOM     23  C   UNL     1      -8.027  -2.959  -1.226  0.00  0.00    +0.055 C 
ATOM     24  C   UNL     1      -8.229  -4.373   0.824  0.00  0.00    +0.055 C 
BRANCH  22  25
ATOM     25  O   UNL     1      -9.021  -2.090   0.798  0.00  0.00    -0.377 OA
ATOM     26  H   UNL     1      -8.936  -1.172   0.508  0.00  0.00    +0.211 HD
ENDBRANCH  22  25
ENDBRANCH  21  22
ENDBRANCH   6  20
BRANCH   4  27
ATOM     27  C   UNL     1      -2.730  -1.031   4.837  0.00  0.00    +0.139 C 
BRANCH  27  28
ATOM     28  N   UNL     1      -3.248   0.246   5.344  0.00  0.00    -0.303 NA
ATOM     29  C   UNL     1      -4.708   0.317   5.199  0.00  0.00    +0.105 C 
ATOM     30  C   UNL     1      -2.847   0.459   6.742  0.00  0.00    +0.105 C 
ENDBRANCH  27  28
ENDBRANCH   4  27
TORSDOF 7
