REMARK  Name = CHEMBL226745
REMARK  11 active torsions:
REMARK  status: ('A' for Active; 'I' for Inactive)
REMARK    1  A    between atoms: C_1  and  C_2
REMARK    2  A    between atoms: C_5  and  C_12
REMARK    3  A    between atoms: C_14  and  O_18
REMARK    4  A    between atoms: O_18  and  C_19
REMARK    5  A    between atoms: C_19  and  C_20
REMARK    6  A    between atoms: C_20  and  C_22
REMARK    7  A    between atoms: C_20  and  N_37
REMARK    8  A    between atoms: C_22  and  C_23
REMARK    9  A    between atoms: C_27  and  O_29
REMARK   10  A    between atoms: O_29  and  C_30
REMARK   11  A    between atoms: C_30  and  C_31
REMARK                            x       y       z     vdW  Elec       q    Type
REMARK                         _______ _______ _______ _____ _____    ______ ____
ROOT
ATOM      1  C   UNL     1      -0.014  -4.068 -10.340  0.00  0.00    -0.033 C 
ENDROOT
BRANCH   1   2
ATOM      2  N   UNL     1      -1.260  -4.817 -10.133  0.00  0.00    +0.382 N 
ATOM      3  H   UNL     1      -1.256  -5.644 -10.711  0.00  0.00    -0.089 HD
ATOM      4  H   UNL     1      -1.335  -5.085  -9.163  0.00  0.00    -0.089 HD
ATOM      5  H   UNL     1      -2.047  -4.236 -10.382  0.00  0.00    -0.089 HD
ENDBRANCH   1   2
BRANCH   1   6
ATOM      6  C   UNL     1      -0.020  -2.814  -9.463  0.00  0.00    +0.213 C 
BRANCH   6   7
ATOM      7  O   UNL     1      -0.007  -3.196  -8.086  0.00  0.00    -0.492 OA
BRANCH   7  10
ATOM      8  C   UNL     1      -0.003  -1.420  -4.905  0.00  0.00    +0.004 A 
ATOM      9  C   UNL     1       0.000  -2.485  -5.810  0.00  0.00    +0.057 A 
ATOM     10  C   UNL     1      -0.011  -2.194  -7.168  0.00  0.00    +0.139 A 
ATOM     11  C   UNL     1      -0.026  -0.867  -7.576  0.00  0.00    +0.156 A 
ATOM     12  N   UNL     1      -0.029   0.113  -6.694  0.00  0.00    -0.259 NA
ATOM     13  C   UNL     1      -0.024  -0.117  -5.397  0.00  0.00    +0.119 A 
BRANCH   8  18
ATOM     14  C   UNL     1      -0.018   1.503   0.010  0.00  0.00    +0.068 C 
ATOM     15  C   UNL     1       0.002  -0.004   0.002  0.00  0.00    +0.067 A 
ATOM     16  C   UNL     1       0.008  -0.858  -1.182  0.00  0.00    +0.023 A 
ATOM     17  C   UNL     1      -0.002  -0.608  -2.557  0.00  0.00    +0.020 A 
ATOM     18  C   UNL     1       0.008  -1.674  -3.443  0.00  0.00    -0.016 A 
ATOM     19  C   UNL     1       0.028  -2.989  -2.963  0.00  0.00    +0.010 A 
ATOM     20  C   UNL     1       0.038  -3.241  -1.623  0.00  0.00    +0.028 A 
ATOM     21  C   UNL     1       0.029  -2.186  -0.712  0.00  0.00    +0.066 A 
ATOM     22  N   UNL     1       0.034  -2.119   0.657  0.00  0.00    -0.277 N 
ATOM     23  H   UNL     1       0.047  -2.881   1.257  0.00  0.00    +0.189 HD
ATOM     24  N   UNL     1       0.023  -0.777   1.050  0.00  0.00    -0.178 NA
ENDBRANCH   8  18
ENDBRANCH   7  10
ENDBRANCH   6   7
ENDBRANCH   1   6
BRANCH   1  25
ATOM     25  C   UNL     1       0.099  -3.662 -11.810  0.00  0.00    +0.022 C 
BRANCH  25  26
ATOM     26  C   UNL     1       0.229  -4.896 -12.665  0.00  0.00    -0.045 A 
ATOM     27  C   UNL     1       1.480  -5.413 -12.946  0.00  0.00    +0.004 A 
ATOM     28  C   UNL     1       1.602  -6.546 -13.729  0.00  0.00    +0.004 A 
ATOM     29  C   UNL     1       0.474  -7.164 -14.233  0.00  0.00    +0.045 A 
ATOM     30  C   UNL     1      -0.782  -6.647 -13.953  0.00  0.00    +0.121 A 
ATOM     31  C   UNL     1      -0.903  -5.514 -13.161  0.00  0.00    +0.049 A 
BRANCH  30  32
ATOM     32  O   UNL     1      -1.894  -7.253 -14.447  0.00  0.00    -0.492 OA
BRANCH  32  33
ATOM     33  C   UNL     1      -1.694  -8.419 -15.249  0.00  0.00    +0.232 C 
BRANCH  33  34
ATOM     34  C   UNL     1      -3.049  -8.957 -15.713  0.00  0.00    +0.023 C 
ATOM     35  C   UNL     1      -3.849  -9.443 -14.500  0.00  0.00    -0.012 C 
ATOM     36  C   UNL     1      -5.169 -10.052 -14.977  0.00  0.00    -0.082 C 
ATOM     37  N   UNL     1      -4.895 -11.185 -15.870  0.00  0.00    +0.379 N 
ATOM     38  C   UNL     1      -4.191 -10.714 -17.069  0.00  0.00    -0.082 C 
ATOM     39  C   UNL     1      -2.833 -10.130 -16.672  0.00  0.00    -0.012 C 
ATOM     40  H   UNL     1      -4.321 -11.860 -15.388  0.00  0.00    -0.086 HD
ATOM     41  H   UNL     1      -5.766 -11.617 -16.140  0.00  0.00    -0.086 HD
ENDBRANCH  33  34
ENDBRANCH  32  33
ENDBRANCH  30  32
ENDBRANCH  25  26
ENDBRANCH   1  25
TORSDOF 10
