REMARK  Name = CHEMBL207373
REMARK  6 active torsions:
REMARK  status: ('A' for Active; 'I' for Inactive)
REMARK    1  A    between atoms: C_4  and  C_7
REMARK    2  A    between atoms: C_7  and  C_9
REMARK    3  A    between atoms: C_7  and  N_27
REMARK    4  A    between atoms: C_9  and  O_10
REMARK    5  A    between atoms: O_10  and  C_11
REMARK    6  A    between atoms: C_13  and  C_17
REMARK                            x       y       z     vdW  Elec       q    Type
REMARK                         _______ _______ _______ _____ _____    ______ ____
ROOT
ATOM      1  C   UNL     1       5.803  -2.253   2.571  0.00  0.00    +0.139 A 
ATOM      2  C   UNL     1       7.060  -2.841   2.659  0.00  0.00    +0.057 A 
ATOM      3  C   UNL     1       7.483  -3.315   3.902  0.00  0.00    +0.004 A 
ATOM      4  C   UNL     1       6.634  -3.183   5.000  0.00  0.00    +0.119 A 
ATOM      5  N   UNL     1       5.450  -2.619   4.871  0.00  0.00    -0.259 NA
ATOM      6  C   UNL     1       5.022  -2.155   3.714  0.00  0.00    +0.156 A 
ENDROOT
BRANCH   3   7
ATOM      7  C   UNL     1       8.815  -3.951   4.052  0.00  0.00    -0.016 A 
ATOM      8  C   UNL     1       9.658  -4.071   2.936  0.00  0.00    +0.009 A 
ATOM      9  C   UNL     1      10.883  -4.649   3.044  0.00  0.00    +0.010 A 
ATOM     10  C   UNL     1      11.319  -5.136   4.288  0.00  0.00    +0.000 A 
ATOM     11  C   UNL     1      12.576  -5.739   4.448  0.00  0.00    +0.119 A 
ATOM     12  N   UNL     1      12.945  -6.181   5.628  0.00  0.00    -0.263 NA
ATOM     13  C   UNL     1      12.176  -6.084   6.704  0.00  0.00    +0.111 A 
ATOM     14  C   UNL     1      10.940  -5.516   6.655  0.00  0.00    +0.028 A 
ATOM     15  C   UNL     1      10.474  -5.018   5.423  0.00  0.00    -0.014 A 
ATOM     16  C   UNL     1       9.217  -4.415   5.292  0.00  0.00    +0.017 A 
ENDBRANCH   3   7
BRANCH   1  17
ATOM     17  O   UNL     1       5.348  -1.776   1.383  0.00  0.00    -0.492 OA
BRANCH  17  18
ATOM     18  C   UNL     1       4.049  -1.182   1.377  0.00  0.00    +0.217 C 
BRANCH  18  19
ATOM     19  C   UNL     1       3.711  -0.707  -0.038  0.00  0.00    -0.006 C 
BRANCH  19  23
ATOM     20  C   UNL     1      -0.017   1.378   0.010  0.00  0.00    +0.000 A 
ATOM     21  C   UNL     1       1.171   2.086   0.002  0.00  0.00    +0.000 A 
ATOM     22  C   UNL     1       2.377   1.411  -0.013  0.00  0.00    +0.002 A 
ATOM     23  C   UNL     1       2.396   0.029  -0.020  0.00  0.00    -0.059 A 
ATOM     24  C   UNL     1       1.208  -0.679  -0.012  0.00  0.00    +0.002 A 
ATOM     25  C   UNL     1       0.002  -0.004   0.002  0.00  0.00    +0.000 A 
ENDBRANCH  19  23
BRANCH  19  26
ATOM     26  N   UNL     1       3.611  -1.868  -0.933  0.00  0.00    +0.385 N 
ATOM     27  H   UNL     1       4.492  -2.360  -0.944  0.00  0.00    -0.089 HD
ATOM     28  H   UNL     1       2.885  -2.485  -0.603  0.00  0.00    -0.089 HD
ATOM     29  H   UNL     1       3.389  -1.555  -1.866  0.00  0.00    -0.089 HD
ENDBRANCH  19  26
ENDBRANCH  18  19
ENDBRANCH  17  18
ENDBRANCH   1  17
TORSDOF 6
