REMARK  Name = CHEMBL574476
REMARK  6 active torsions:
REMARK  status: ('A' for Active; 'I' for Inactive)
REMARK    1  A    between atoms: C_4  and  C_7
REMARK    2  A    between atoms: C_8  and  C_22
REMARK    3  A    between atoms: C_13  and  N_17
REMARK    4  A    between atoms: C_25  and  C_28
REMARK    5  A    between atoms: C_28  and  N_29
REMARK    6  A    between atoms: C_32  and  N_35
REMARK                            x       y       z     vdW  Elec       q    Type
REMARK                         _______ _______ _______ _____ _____    ______ ____
ROOT
ATOM      1  C   UNL     1       2.738  -2.360   1.566  0.00  0.00    +0.002 A 
ATOM      2  C   UNL     1       1.802  -1.467   2.089  0.00  0.00    +0.010 A 
ATOM      3  C   UNL     1       0.757  -1.939   2.857  0.00  0.00    +0.002 A 
ATOM      4  C   UNL     1       0.637  -3.294   3.110  0.00  0.00    -0.064 A 
ATOM      5  C   UNL     1       1.563  -4.184   2.594  0.00  0.00    +0.002 A 
ATOM      6  C   UNL     1       2.609  -3.725   1.820  0.00  0.00    +0.010 A 
ENDROOT
BRANCH   1   8
ATOM      7  C   UNL     1       3.618  -0.901  -0.274  0.00  0.00    +0.098 A 
ATOM      8  C   UNL     1       3.862  -1.860   0.740  0.00  0.00    +0.098 A 
ATOM      9  N   UNL     1       5.084  -2.310   0.954  0.00  0.00    -0.243 NA
ATOM     10  C   UNL     1       6.099  -1.859   0.208  0.00  0.00    +0.090 A 
ATOM     11  C   UNL     1       7.409  -2.326   0.419  0.00  0.00    +0.032 A 
ATOM     12  C   UNL     1       8.429  -1.858  -0.348  0.00  0.00    +0.030 A 
ATOM     13  C   UNL     1       8.197  -0.911  -1.352  0.00  0.00    +0.071 A 
ATOM     14  C   UNL     1       6.928  -0.432  -1.586  0.00  0.00    +0.057 A 
ATOM     15  C   UNL     1       5.855  -0.899  -0.808  0.00  0.00    +0.092 A 
ATOM     16  N   UNL     1       4.612  -0.453  -1.019  0.00  0.00    -0.243 NA
BRANCH   7  20
ATOM     17  C   UNL     1      -0.331   0.526  -0.934  0.00  0.00    +0.000 A 
ATOM     18  C   UNL     1       0.726   1.418  -0.889  0.00  0.00    +0.001 A 
ATOM     19  C   UNL     1       2.010   0.961  -0.675  0.00  0.00    +0.010 A 
ATOM     20  C   UNL     1       2.242  -0.404  -0.504  0.00  0.00    +0.002 A 
ATOM     21  C   UNL     1       1.173  -1.298  -0.550  0.00  0.00    +0.010 A 
ATOM     22  C   UNL     1      -0.107  -0.829  -0.764  0.00  0.00    +0.001 A 
ENDBRANCH   7  20
BRANCH  13  23
ATOM     23  N   UNL     1       9.268  -0.446  -2.127  0.00  0.00    -0.200 N 
ATOM     24  C   UNL     1      10.548  -0.876  -2.100  0.00  0.00    +0.250 A 
ATOM     25  N   UNL     1      11.213  -0.174  -2.980  0.00  0.00    -0.116 NA
ATOM     26  N   UNL     1      10.440   0.670  -3.562  0.00  0.00    -0.023 NA
ATOM     27  N   UNL     1       9.239   0.565  -3.104  0.00  0.00    -0.039 NA
ENDBRANCH  13  23
ENDBRANCH   1   8
BRANCH   4  28
ATOM     28  C   UNL     1      -0.506  -3.802   3.950  0.00  0.00    -0.043 C 
BRANCH  28  29
ATOM     29  N   UNL     1      -1.651  -4.111   3.083  0.00  0.00    +0.382 N 
ATOM     30  C   UNL     1      -2.137  -2.875   2.458  0.00  0.00    -0.076 C 
ATOM     31  C   UNL     1      -3.278  -3.202   1.492  0.00  0.00    +0.006 C 
ATOM     32  C   UNL     1      -4.419  -3.868   2.266  0.00  0.00    +0.089 C 
ATOM     33  C   UNL     1      -3.883  -5.115   2.975  0.00  0.00    +0.006 C 
ATOM     34  C   UNL     1      -2.720  -4.717   3.886  0.00  0.00    -0.076 C 
ATOM     35  H   UNL     1      -1.363  -4.758   2.365  0.00  0.00    -0.081 HD
BRANCH  32  36
ATOM     36  N   UNL     1      -5.483  -4.252   1.335  0.00  0.00    -0.289 N 
ATOM     37  C   UNL     1      -6.799  -3.798   1.369  0.00  0.00    +0.070 A 
ATOM     38  C   UNL     1      -7.483  -2.923   2.199  0.00  0.00    +0.028 A 
ATOM     39  C   UNL     1      -8.821  -2.664   1.974  0.00  0.00    +0.002 A 
ATOM     40  C   UNL     1      -9.482  -3.275   0.922  0.00  0.00    +0.002 A 
ATOM     41  C   UNL     1      -8.810  -4.149   0.090  0.00  0.00    +0.028 A 
ATOM     42  C   UNL     1      -7.466  -4.413   0.308  0.00  0.00    +0.067 A 
ATOM     43  N   UNL     1      -6.535  -5.223  -0.337  0.00  0.00    -0.306 N 
ATOM     44  H   UNL     1      -6.706  -5.778  -1.115  0.00  0.00    +0.170 HD
ATOM     45  C   UNL     1      -5.354  -5.101   0.298  0.00  0.00    +0.328 A 
ATOM     46  O   UNL     1      -4.327  -5.673  -0.015  0.00  0.00    -0.247 OA
ENDBRANCH  32  36
ENDBRANCH  28  29
ENDBRANCH   4  28
TORSDOF 6
