REMARK  Name = CHEMBL470409
REMARK  5 active torsions:
REMARK  status: ('A' for Active; 'I' for Inactive)
REMARK    1  A    between atoms: C_7  and  C_11
REMARK    2  A    between atoms: C_14  and  C_16
REMARK    3  A    between atoms: N_18  and  C_19
REMARK    4  A    between atoms: C_19  and  C_20
REMARK    5  A    between atoms: C_20  and  N_21
REMARK                            x       y       z     vdW  Elec       q    Type
REMARK                         _______ _______ _______ _____ _____    ______ ____
ROOT
ATOM      1  C   UNL     1      -2.425  -0.653   0.021  0.00  0.00    +0.035 A 
ATOM      2  C   UNL     1      -3.527  -1.490  -0.061  0.00  0.00    +0.033 A 
ATOM      3  C   UNL     1      -4.777  -0.937  -0.026  0.00  0.00    +0.036 A 
ATOM      4  C   UNL     1      -4.892   0.441   0.091  0.00  0.00    +0.075 A 
ATOM      5  S   UNL     1      -3.184   0.957   0.160  0.00  0.00    -0.083 S 
ATOM      6 BR   UNL     1      -3.307  -3.362  -0.221  0.00  0.00    -0.049 Br
ENDROOT
BRANCH   1  13
ATOM      7  C   UNL     1      -0.201   0.788  -1.774  0.00  0.00    +0.029 A 
ATOM      8  C   UNL     1       1.031   1.017  -2.260  0.00  0.00    +0.085 A 
ATOM      9  N   UNL     1       1.924   0.150  -1.691  0.00  0.00    -0.346 N 
ATOM     10  H   UNL     1       2.874   0.124  -1.885  0.00  0.00    +0.167 HD
ATOM     11  C   UNL     1       1.276  -0.677  -0.804  0.00  0.00    +0.139 A 
ATOM     12  C   UNL     1      -0.082  -0.311  -0.819  0.00  0.00    +0.027 A 
ATOM     13  C   UNL     1      -0.992  -1.003   0.005  0.00  0.00    +0.002 A 
ATOM     14  C   UNL     1      -0.491  -2.032   0.808  0.00  0.00    +0.029 A 
ATOM     15  C   UNL     1       0.859  -2.326   0.762  0.00  0.00    +0.114 A 
ATOM     16  N   UNL     1       1.687  -1.663  -0.018  0.00  0.00    -0.237 NA
ENDBRANCH   1  13
BRANCH   4  17
ATOM     17  C   UNL     1      -6.104   1.262   0.149  0.00  0.00    +0.251 C 
ATOM     18  O   UNL     1      -7.200   0.735   0.093  0.00  0.00    -0.270 OA
ATOM     19  N   UNL     1      -6.007   2.601   0.266  0.00  0.00    -0.313 N 
ATOM     20  H   UNL     1      -5.134   3.022   0.311  0.00  0.00    +0.149 HD
BRANCH  19  21
ATOM     21  C   UNL     1      -7.219   3.422   0.324  0.00  0.00    +0.085 C 
BRANCH  21  22
ATOM     22  C   UNL     1      -6.831   4.896   0.455  0.00  0.00    -0.067 C 
BRANCH  22  23
ATOM     23  N   UNL     1      -8.047   5.719   0.513  0.00  0.00    +0.379 N 
ATOM     24  H   UNL     1      -8.584   5.586  -0.331  0.00  0.00    -0.090 HD
ATOM     25  H   UNL     1      -8.601   5.445   1.311  0.00  0.00    -0.090 HD
ATOM     26  H   UNL     1      -7.791   6.691   0.600  0.00  0.00    -0.090 HD
ENDBRANCH  22  23
ENDBRANCH  21  22
ENDBRANCH  19  21
ENDBRANCH   4  17
TORSDOF 5
