REMARK  Name = CHEMBL252261
REMARK  10 active torsions:
REMARK  status: ('A' for Active; 'I' for Inactive)
REMARK    1  A    between atoms: C_1  and  S_2
REMARK    2  A    between atoms: S_2  and  C_3
REMARK    3  A    between atoms: C_8  and  C_35
REMARK    4  A    between atoms: C_9  and  C_13
REMARK    5  A    between atoms: C_16  and  C_19
REMARK    6  A    between atoms: C_19  and  N_20
REMARK    7  A    between atoms: N_20  and  C_21
REMARK    8  A    between atoms: C_21  and  C_22
REMARK    9  A    between atoms: C_22  and  C_23
REMARK   10  A    between atoms: C_25  and  C_29
REMARK                            x       y       z     vdW  Elec       q    Type
REMARK                         _______ _______ _______ _____ _____    ______ ____
ROOT
ATOM      1  C   UNL     1       2.670  -5.092  -4.655  0.00  0.00    +0.001 A 
ATOM      2  C   UNL     1       2.633  -5.533  -5.978  0.00  0.00    +0.010 A 
ATOM      3  C   UNL     1       2.806  -6.872  -6.262  0.00  0.00    +0.005 A 
ATOM      4  C   UNL     1       3.016  -7.777  -5.237  0.00  0.00    -0.034 A 
ATOM      5  C   UNL     1       3.053  -7.347  -3.923  0.00  0.00    +0.005 A 
ATOM      6  C   UNL     1       2.888  -6.009  -3.627  0.00  0.00    +0.010 A 
ENDROOT
BRANCH   1  13
ATOM      7  C   UNL     1       0.848  -0.411  -1.489  0.00  0.00    +0.190 A 
ATOM      8  N   UNL     1       1.284   0.580  -2.267  0.00  0.00    -0.230 NA
ATOM      9  C   UNL     1       1.923   0.338  -3.392  0.00  0.00    +0.125 A 
ATOM     10  C   UNL     1       2.142  -1.001  -3.766  0.00  0.00    +0.038 A 
ATOM     11  C   UNL     1       2.815  -1.339  -4.949  0.00  0.00    +0.023 A 
ATOM     12  C   UNL     1       2.987  -2.685  -5.239  0.00  0.00    +0.009 A 
ATOM     13  C   UNL     1       2.485  -3.656  -4.344  0.00  0.00    +0.081 A 
ATOM     14  N   UNL     1       1.855  -3.311  -3.237  0.00  0.00    -0.227 NA
ATOM     15  C   UNL     1       1.665  -2.032  -2.913  0.00  0.00    +0.165 A 
ATOM     16  N   UNL     1       1.030  -1.684  -1.786  0.00  0.00    -0.202 NA
BRANCH  12  17
ATOM     17  C   UNL     1       3.690  -3.100  -6.476  0.00  0.00    -0.016 A 
ATOM     18  C   UNL     1       4.718  -4.040  -6.414  0.00  0.00    +0.008 A 
ATOM     19  C   UNL     1       5.369  -4.423  -7.569  0.00  0.00    +0.001 A 
ATOM     20  C   UNL     1       5.004  -3.876  -8.786  0.00  0.00    +0.000 A 
ATOM     21  C   UNL     1       3.984  -2.943  -8.853  0.00  0.00    +0.001 A 
ATOM     22  C   UNL     1       3.322  -2.557  -7.706  0.00  0.00    +0.008 A 
ENDBRANCH  12  17
BRANCH   7  24
ATOM     23  C   UNL     1      -0.022   1.810   0.012  0.00  0.00    +0.093 C 
ATOM     24  S   UNL     1       0.002  -0.004   0.002  0.00  0.00    -0.089 S 
ENDBRANCH   7  24
ENDBRANCH   1  13
BRANCH   4  25
ATOM     25  C   UNL     1       3.204  -9.239  -5.554  0.00  0.00    +0.116 C 
BRANCH  25  26
ATOM     26  N   UNL     1       4.631  -9.515  -5.761  0.00  0.00    -0.312 NA
ATOM     27  H   UNL     1       5.013  -8.922  -6.483  0.00  0.00    +0.122 HD
BRANCH  26  28
ATOM     28  C   UNL     1       4.853 -10.933  -6.073  0.00  0.00    +0.089 C 
BRANCH  28  29
ATOM     29  C   UNL     1       6.348 -11.182  -6.282  0.00  0.00    +0.091 C 
BRANCH  29  30
ATOM     30  C   UNL     1       6.576 -12.637  -6.601  0.00  0.00    +0.127 A 
ATOM     31  N   UNL     1       6.184 -13.650  -5.875  0.00  0.00    -0.211 NA
ATOM     32  C   UNL     1       6.555 -14.797  -6.460  0.00  0.00    +0.181 A 
ATOM     33  N   UNL     1       7.194 -14.515  -7.574  0.00  0.00    -0.152 NA
ATOM     34  H   UNL     1       7.609 -12.595  -8.402  0.00  0.00    +0.190 HD
ATOM     35  N   UNL     1       7.213 -13.115  -7.685  0.00  0.00    -0.262 N 
BRANCH  32  36
ATOM     36  C   UNL     1       6.290 -16.160  -5.936  0.00  0.00    +0.021 A 
ATOM     37  C   UNL     1       5.595 -16.327  -4.740  0.00  0.00    +0.011 A 
ATOM     38  C   UNL     1       5.351 -17.597  -4.258  0.00  0.00    +0.001 A 
ATOM     39  C   UNL     1       5.795 -18.703  -4.960  0.00  0.00    +0.000 A 
ATOM     40  C   UNL     1       6.486 -18.544  -6.147  0.00  0.00    +0.001 A 
ATOM     41  C   UNL     1       6.731 -17.278  -6.641  0.00  0.00    +0.011 A 
ENDBRANCH  32  36
ENDBRANCH  29  30
ENDBRANCH  28  29
ENDBRANCH  26  28
ENDBRANCH  25  26
ENDBRANCH   4  25
TORSDOF 9
