REMARK  Name = CHEMBL469560
REMARK  7 active torsions:
REMARK  status: ('A' for Active; 'I' for Inactive)
REMARK    1  A    between atoms: C_4  and  C_7
REMARK    2  A    between atoms: C_7  and  C_8
REMARK    3  A    between atoms: C_7  and  N_10
REMARK    4  A    between atoms: C_8  and  N_9
REMARK    5  A    between atoms: N_10  and  C_11
REMARK    6  A    between atoms: C_11  and  C_12
REMARK    7  A    between atoms: C_15  and  C_17
REMARK                            x       y       z     vdW  Elec       q    Type
REMARK                         _______ _______ _______ _____ _____    ______ ____
ROOT
ATOM      1  C   UNL     1       5.000  -2.190   1.367  0.00  0.00    +0.124 C 
ENDROOT
BRANCH   1   2
ATOM      2  C   UNL     1       4.889  -3.364   2.305  0.00  0.00    +0.004 A 
ATOM      3  C   UNL     1       5.035  -4.688   2.038  0.00  0.00    +0.013 A 
ATOM      4  C   UNL     1       4.891  -5.599   3.059  0.00  0.00    +0.016 A 
ATOM      5  C   UNL     1       4.604  -5.137   4.318  0.00  0.00    +0.020 A 
ATOM      6  S   UNL     1       4.542  -3.372   4.056  0.00  0.00    -0.092 S 
BRANCH   5   7
ATOM      7  C   UNL     1       4.403  -5.899   5.564  0.00  0.00    +0.001 A 
ATOM      8  C   UNL     1       3.535  -6.995   5.610  0.00  0.00    +0.029 A 
ATOM      9  C   UNL     1       3.378  -7.681   6.799  0.00  0.00    +0.114 A 
ATOM     10  N   UNL     1       4.024  -7.331   7.892  0.00  0.00    -0.237 NA
ATOM     11  C   UNL     1       4.862  -6.302   7.916  0.00  0.00    +0.139 A 
ATOM     12  C   UNL     1       5.085  -5.552   6.748  0.00  0.00    +0.027 A 
ATOM     13  C   UNL     1       6.049  -4.513   7.104  0.00  0.00    +0.029 A 
ATOM     14  C   UNL     1       6.346  -4.686   8.403  0.00  0.00    +0.085 A 
ATOM     15  N   UNL     1       5.639  -5.746   8.905  0.00  0.00    -0.346 N 
ATOM     16  H   UNL     1       5.687  -6.064   9.820  0.00  0.00    +0.167 HD
ENDBRANCH   5   7
ENDBRANCH   1   2
BRANCH   1  17
ATOM     17  N   UNL     1       3.680  -1.897   0.792  0.00  0.00    -0.307 NA
ATOM     18  H   UNL     1       2.984  -1.798   1.516  0.00  0.00    +0.123 HD
BRANCH  17  19
ATOM     19  C   UNL     1       3.729  -0.700  -0.058  0.00  0.00    +0.067 C 
BRANCH  19  23
ATOM     20  C   UNL     1       3.384   2.792   2.378  0.00  0.00    +0.000 A 
ATOM     21  C   UNL     1       4.265   2.777   1.313  0.00  0.00    +0.000 A 
ATOM     22  C   UNL     1       4.377   1.647   0.525  0.00  0.00    +0.005 A 
ATOM     23  C   UNL     1       3.608   0.532   0.802  0.00  0.00    -0.032 A 
ATOM     24  C   UNL     1       2.728   0.547   1.868  0.00  0.00    +0.005 A 
ATOM     25  C   UNL     1       2.615   1.678   2.655  0.00  0.00    +0.000 A 
ENDBRANCH  19  23
BRANCH  19  26
ATOM     26  C   UNL     1       2.574  -0.738  -1.060  0.00  0.00    -0.063 C 
BRANCH  26  27
ATOM     27  N   UNL     1       2.639  -1.984  -1.835  0.00  0.00    +0.379 N 
ATOM     28  H   UNL     1       1.931  -1.970  -2.554  0.00  0.00    -0.090 HD
ATOM     29  H   UNL     1       3.550  -2.069  -2.260  0.00  0.00    -0.090 HD
ATOM     30  H   UNL     1       2.480  -2.770  -1.222  0.00  0.00    -0.090 HD
ENDBRANCH  26  27
ENDBRANCH  19  26
ENDBRANCH  17  19
ENDBRANCH   1  17
TORSDOF 7
