REMARK  Name = CHEMBL512480
REMARK  6 active torsions:
REMARK  status: ('A' for Active; 'I' for Inactive)
REMARK    1  A    between atoms: C_4  and  C_7
REMARK    2  A    between atoms: C_7  and  C_8
REMARK    3  A    between atoms: C_7  and  C_10
REMARK    4  A    between atoms: C_8  and  N_9
REMARK    5  A    between atoms: N_12  and  C_13
REMARK    6  A    between atoms: C_16  and  C_18
REMARK                            x       y       z     vdW  Elec       q    Type
REMARK                         _______ _______ _______ _____ _____    ______ ____
ROOT
ATOM      1  C   UNL     1       3.816  -1.579   1.188  0.00  0.00    +0.223 C 
ATOM      2  O   UNL     1       2.911  -1.600   1.995  0.00  0.00    -0.275 OA
ATOM      3  N   UNL     1       4.914  -2.334   1.385  0.00  0.00    -0.280 N 
ATOM      4  H   UNL     1       5.638  -2.317   0.740  0.00  0.00    +0.155 HD
ENDROOT
BRANCH   3   5
ATOM      5  C   UNL     1       5.011  -3.140   2.519  0.00  0.00    +0.072 A 
ATOM      6  C   UNL     1       6.030  -3.966   2.901  0.00  0.00    +0.032 A 
ATOM      7  C   UNL     1       5.909  -4.675   4.073  0.00  0.00    +0.018 A 
ATOM      8  C   UNL     1       4.767  -4.529   4.819  0.00  0.00    +0.022 A 
ATOM      9  S   UNL     1       3.838  -3.353   3.847  0.00  0.00    -0.073 S 
BRANCH   8  10
ATOM     10  C   UNL     1       4.403  -5.171   6.093  0.00  0.00    +0.001 A 
ATOM     11  C   UNL     1       4.513  -6.556   6.262  0.00  0.00    +0.029 A 
ATOM     12  C   UNL     1       4.161  -7.117   7.474  0.00  0.00    +0.114 A 
ATOM     13  N   UNL     1       3.725  -6.383   8.478  0.00  0.00    -0.237 NA
ATOM     14  C   UNL     1       3.598  -5.064   8.383  0.00  0.00    +0.139 A 
ATOM     15  C   UNL     1       3.938  -4.411   7.186  0.00  0.00    +0.027 A 
ATOM     16  C   UNL     1       3.695  -2.988   7.410  0.00  0.00    +0.029 A 
ATOM     17  C   UNL     1       3.247  -2.863   8.671  0.00  0.00    +0.085 A 
ATOM     18  N   UNL     1       3.176  -4.096   9.263  0.00  0.00    -0.346 N 
ATOM     19  H   UNL     1       2.881  -4.260  10.172  0.00  0.00    +0.167 HD
ENDBRANCH   8  10
ENDBRANCH   3   5
BRANCH   1  20
ATOM     20  C   UNL     1       3.711  -0.707  -0.038  0.00  0.00    +0.088 C 
BRANCH  20  24
ATOM     21  C   UNL     1      -0.017   1.378   0.010  0.00  0.00    +0.000 A 
ATOM     22  C   UNL     1       1.171   2.086   0.002  0.00  0.00    +0.000 A 
ATOM     23  C   UNL     1       2.377   1.411  -0.013  0.00  0.00    +0.004 A 
ATOM     24  C   UNL     1       2.396   0.029  -0.020  0.00  0.00    -0.037 A 
ATOM     25  C   UNL     1       1.208  -0.679  -0.012  0.00  0.00    +0.004 A 
ATOM     26  C   UNL     1       0.002  -0.004   0.002  0.00  0.00    +0.000 A 
ENDBRANCH  20  24
BRANCH  20  27
ATOM     27  C   UNL     1       3.791  -1.579  -1.292  0.00  0.00    -0.069 C 
BRANCH  27  28
ATOM     28  N   UNL     1       3.810  -0.722  -2.485  0.00  0.00    +0.379 N 
ATOM     29  H   UNL     1       4.612  -0.111  -2.447  0.00  0.00    -0.090 HD
ATOM     30  H   UNL     1       3.862  -1.297  -3.312  0.00  0.00    -0.090 HD
ATOM     31  H   UNL     1       2.967  -0.167  -2.513  0.00  0.00    -0.090 HD
ENDBRANCH  27  28
ENDBRANCH  20  27
ENDBRANCH   1  20
TORSDOF 6
