REMARK  Name = CHEMBL381703
REMARK  8 active torsions:
REMARK  status: ('A' for Active; 'I' for Inactive)
REMARK    1  A    between atoms: C_7  and  C_10
REMARK    2  A    between atoms: C_10  and  C_11
REMARK    3  A    between atoms: C_11  and  C_13
REMARK    4  A    between atoms: C_11  and  N_30
REMARK    5  A    between atoms: C_13  and  N_14
REMARK    6  A    between atoms: N_14  and  C_15
REMARK    7  A    between atoms: C_17  and  C_22
REMARK    8  A    between atoms: C_23  and  C_24
REMARK                            x       y       z     vdW  Elec       q    Type
REMARK                         _______ _______ _______ _____ _____    ______ ____
ROOT
ATOM      1  C   UNL     1       0.611  -4.861  -2.405  0.00  0.00    +0.085 C 
ENDROOT
BRANCH   1   2
ATOM      2  N   UNL     1       0.947  -6.282  -2.526  0.00  0.00    -0.344 N 
ATOM      3  H   UNL     1       1.444  -6.724  -1.821  0.00  0.00    +0.146 HD
BRANCH   2   4
ATOM      4  C   UNL     1       0.550  -6.999  -3.659  0.00  0.00    +0.046 A 
ATOM      5  C   UNL     1       0.860  -8.349  -3.780  0.00  0.00    +0.035 A 
ATOM      6  C   UNL     1       0.441  -9.023  -4.933  0.00  0.00    +0.014 A 
ATOM      7  C   UNL     1      -0.268  -8.316  -5.911  0.00  0.00    +0.136 A 
ATOM      8  N   UNL     1      -0.537  -7.036  -5.751  0.00  0.00    -0.241 NA
ATOM      9  C   UNL     1      -0.162  -6.373  -4.674  0.00  0.00    +0.135 A 
ATOM     10 CL   UNL     1      -0.797  -9.132  -7.348  0.00  0.00    -0.061 Cl
BRANCH   6  11
ATOM     11  C   UNL     1       0.741 -10.454  -5.115  0.00  0.00    +0.011 C 
ATOM     12  C   UNL     1       1.422 -11.123  -4.170  0.00  0.00    +0.009 C 
BRANCH  12  13
ATOM     13  C   UNL     1       1.723 -12.553  -4.351  0.00  0.00    -0.022 A 
ATOM     14  C   UNL     1       1.312 -13.236  -5.505  0.00  0.00    +0.027 A 
ATOM     15  C   UNL     1       1.615 -14.574  -5.633  0.00  0.00    +0.111 A 
ATOM     16  N   UNL     1       2.281 -15.212  -4.689  0.00  0.00    -0.263 NA
ATOM     17  C   UNL     1       2.686 -14.609  -3.587  0.00  0.00    +0.111 A 
ATOM     18  C   UNL     1       2.432 -13.270  -3.378  0.00  0.00    +0.027 A 
ENDBRANCH  12  13
ENDBRANCH   6  11
ENDBRANCH   2   4
ENDBRANCH   1   2
BRANCH   1  19
ATOM     19  C   UNL     1       1.157  -4.319  -1.082  0.00  0.00    -0.057 C 
BRANCH  19  20
ATOM     20  N   UNL     1       2.599  -4.589  -1.000  0.00  0.00    +0.381 N 
ATOM     21  H   UNL     1       2.977  -4.152  -0.173  0.00  0.00    -0.090 HD
ATOM     22  H   UNL     1       2.752  -5.586  -0.954  0.00  0.00    -0.090 HD
ATOM     23  H   UNL     1       3.058  -4.216  -1.817  0.00  0.00    -0.090 HD
ENDBRANCH  19  20
BRANCH  19  24
ATOM     24  C   UNL     1       0.916  -2.810  -1.011  0.00  0.00    -0.005 C 
BRANCH  24  31
ATOM     25  C   UNL     1      -0.922   1.205  -1.828  0.00  0.00    +0.000 A 
ATOM     26  C   UNL     1      -1.564   1.600  -0.669  0.00  0.00    +0.002 A 
ATOM     27  C   UNL     1      -1.852   0.678   0.314  0.00  0.00    +0.023 A 
ATOM     28  C   UNL     1      -1.499  -0.663   0.147  0.00  0.00    +0.031 A 
ATOM     29  C   UNL     1      -0.856  -1.049  -1.019  0.00  0.00    -0.022 A 
ATOM     30  C   UNL     1      -0.569  -0.120  -2.001  0.00  0.00    +0.006 A 
ATOM     31  C   UNL     1      -0.588  -2.535  -0.951  0.00  0.00    +0.036 C 
ATOM     32  C   UNL     1      -1.158  -2.969   0.409  0.00  0.00    +0.109 C 
ATOM     33  N   UNL     1      -1.696  -1.744   1.007  0.00  0.00    -0.343 N 
ATOM     34  H   UNL     1      -2.127  -1.692   1.875  0.00  0.00    +0.146 HD
ENDBRANCH  24  31
ENDBRANCH  19  24
ENDBRANCH   1  19
TORSDOF 8
