REMARK  Name = CHEMBL206208
REMARK  8 active torsions:
REMARK  status: ('A' for Active; 'I' for Inactive)
REMARK    1  A    between atoms: C_7  and  C_11
REMARK    2  A    between atoms: C_11  and  C_12
REMARK    3  A    between atoms: C_12  and  C_14
REMARK    4  A    between atoms: C_12  and  N_30
REMARK    5  A    between atoms: C_14  and  O_15
REMARK    6  A    between atoms: O_15  and  C_16
REMARK    7  A    between atoms: C_18  and  C_22
REMARK    8  A    between atoms: C_23  and  C_24
REMARK                            x       y       z     vdW  Elec       q    Type
REMARK                         _______ _______ _______ _____ _____    ______ ____
ROOT
ATOM      1  C   UNL     1       0.236  -3.589  -1.455  0.00  0.00    -0.033 C 
ENDROOT
BRANCH   1   2
ATOM      2  N   UNL     1      -0.552  -2.469  -1.986  0.00  0.00    +0.382 N 
ATOM      3  H   UNL     1      -0.836  -2.676  -2.932  0.00  0.00    -0.089 HD
ATOM      4  H   UNL     1      -1.370  -2.331  -1.412  0.00  0.00    -0.089 HD
ATOM      5  H   UNL     1       0.009  -1.630  -1.979  0.00  0.00    -0.089 HD
ENDBRANCH   1   2
BRANCH   1   6
ATOM      6  C   UNL     1       0.666  -3.275  -0.021  0.00  0.00    +0.024 C 
BRANCH   6  13
ATOM      7  C   UNL     1      -0.017   1.362   0.009  0.00  0.00    +0.001 A 
ATOM      8  C   UNL     1       1.170   2.083   0.002  0.00  0.00    +0.002 A 
ATOM      9  C   UNL     1       2.386   1.436  -0.013  0.00  0.00    +0.026 A 
ATOM     10  C   UNL     1       2.428   0.046  -0.021  0.00  0.00    +0.047 A 
ATOM     11  C   UNL     1       1.223  -0.681  -0.013  0.00  0.00    +0.003 A 
ATOM     12  C   UNL     1       0.002  -0.004   0.002  0.00  0.00    +0.010 A 
ATOM     13  C   UNL     1       1.604  -2.095  -0.025  0.00  0.00    -0.024 A 
ATOM     14  C   UNL     1       2.945  -2.141  -0.038  0.00  0.00    +0.087 A 
ATOM     15  N   UNL     1       3.455  -0.871  -0.036  0.00  0.00    -0.360 N 
ATOM     16  H   UNL     1       4.399  -0.650  -0.044  0.00  0.00    +0.165 HD
ENDBRANCH   6  13
ENDBRANCH   1   6
BRANCH   1  17
ATOM     17  C   UNL     1      -0.614  -4.861  -1.466  0.00  0.00    +0.213 C 
BRANCH  17  18
ATOM     18  O   UNL     1      -0.919  -5.219  -2.816  0.00  0.00    -0.492 OA
BRANCH  18  19
ATOM     19  C   UNL     1      -1.673  -6.334  -3.003  0.00  0.00    +0.140 A 
ATOM     20  C   UNL     1      -2.006  -6.750  -4.285  0.00  0.00    +0.065 A 
ATOM     21  C   UNL     1      -2.785  -7.905  -4.426  0.00  0.00    +0.047 A 
ATOM     22  C   UNL     1      -3.193  -8.588  -3.277  0.00  0.00    +0.127 A 
ATOM     23  N   UNL     1      -2.853  -8.155  -2.082  0.00  0.00    -0.258 NA
ATOM     24  C   UNL     1      -2.115  -7.074  -1.915  0.00  0.00    +0.156 A 
BRANCH  21  25
ATOM     25  C   UNL     1      -3.158  -8.378  -5.725  0.00  0.00    -0.059 C 
ATOM     26  C   UNL     1      -3.463  -8.766  -6.790  0.00  0.00    -0.061 C 
BRANCH  26  27
ATOM     27  C   UNL     1      -3.836  -9.239  -8.089  0.00  0.00    +0.028 A 
ATOM     28  C   UNL     1      -3.426  -8.563  -9.247  0.00  0.00    +0.036 A 
ATOM     29  C   UNL     1      -3.808  -9.054 -10.478  0.00  0.00    +0.112 A 
ATOM     30  N   UNL     1      -4.547 -10.143 -10.573  0.00  0.00    -0.263 NA
ATOM     31  C   UNL     1      -4.955 -10.810  -9.510  0.00  0.00    +0.112 A 
ATOM     32  C   UNL     1      -4.615 -10.394  -8.240  0.00  0.00    +0.036 A 
ENDBRANCH  26  27
ENDBRANCH  21  25
ENDBRANCH  18  19
ENDBRANCH  17  18
ENDBRANCH   1  17
TORSDOF 8
