REMARK  Name = CHEMBL523586
REMARK  7 active torsions:
REMARK  status: ('A' for Active; 'I' for Inactive)
REMARK    1  A    between atoms: C_3  and  C_8
REMARK    2  A    between atoms: C_8  and  C_9
REMARK    3  A    between atoms: C_9  and  C_11
REMARK    4  A    between atoms: C_9  and  N_13
REMARK    5  A    between atoms: C_11  and  N_12
REMARK    6  A    between atoms: C_14  and  C_16
REMARK    7  A    between atoms: C_19  and  C_21
REMARK                            x       y       z     vdW  Elec       q    Type
REMARK                         _______ _______ _______ _____ _____    ______ ____
ROOT
ATOM      1  N   UNL     1       3.366   3.526   2.131  0.00  0.00    -0.310 N 
ATOM      2  C   UNL     1       3.124   3.372   3.447  0.00  0.00    +0.251 C 
ATOM      3  O   UNL     1       3.749   2.548   4.089  0.00  0.00    -0.270 OA
ATOM      4  H   UNL     1       2.868   4.182   1.619  0.00  0.00    +0.149 HD
ENDROOT
BRANCH   2   5
ATOM      5  C   UNL     1       2.108   4.197   4.107  0.00  0.00    +0.075 A 
ATOM      6  C   UNL     1       1.717   4.199   5.438  0.00  0.00    +0.036 A 
ATOM      7  C   UNL     1       0.737   5.066   5.833  0.00  0.00    +0.033 A 
ATOM      8  C   UNL     1       0.174   5.911   4.888  0.00  0.00    +0.035 A 
ATOM      9  S   UNL     1       1.064   5.464   3.406  0.00  0.00    -0.083 S 
ATOM     10 BR   UNL     1       0.161   5.115   7.634  0.00  0.00    -0.049 Br
BRANCH   8  11
ATOM     11  C   UNL     1      -0.884   6.923   5.063  0.00  0.00    +0.002 A 
ATOM     12  C   UNL     1      -0.834   7.848   6.110  0.00  0.00    +0.029 A 
ATOM     13  C   UNL     1      -1.847   8.779   6.237  0.00  0.00    +0.114 A 
ATOM     14  N   UNL     1      -2.861   8.819   5.397  0.00  0.00    -0.237 NA
ATOM     15  C   UNL     1      -2.969   7.972   4.383  0.00  0.00    +0.139 A 
ATOM     16  C   UNL     1      -1.977   6.995   4.176  0.00  0.00    +0.027 A 
ATOM     17  C   UNL     1      -2.383   6.242   2.993  0.00  0.00    +0.029 A 
ATOM     18  C   UNL     1      -3.538   6.780   2.564  0.00  0.00    +0.085 A 
ATOM     19  N   UNL     1      -3.905   7.809   3.390  0.00  0.00    -0.346 N 
ATOM     20  H   UNL     1      -4.703   8.350   3.282  0.00  0.00    +0.167 HD
ENDBRANCH   8  11
ENDBRANCH   2   5
BRANCH   1  21
ATOM     21  C   UNL     1       4.381   2.701   1.471  0.00  0.00    +0.060 C 
BRANCH  21  22
ATOM     22  C   UNL     1       4.059   2.591  -0.021  0.00  0.00    +0.055 C 
BRANCH  22  25
ATOM     23  C   UNL     1       0.374   1.856  -0.395  0.00  0.00    +0.003 A 
ATOM     24  C   UNL     1       1.565   2.538  -0.230  0.00  0.00    +0.004 A 
ATOM     25  C   UNL     1       2.761   1.846  -0.201  0.00  0.00    -0.043 A 
ATOM     26  C   UNL     1       2.768   0.470  -0.337  0.00  0.00    +0.042 A 
ATOM     27  C   UNL     1       1.575  -0.213  -0.503  0.00  0.00    +0.124 A 
ATOM     28  C   UNL     1       0.378   0.481  -0.531  0.00  0.00    +0.038 A 
ATOM     29  F   UNL     1       1.580  -1.558  -0.637  0.00  0.00    -0.205 F 
ENDBRANCH  22  25
ENDBRANCH  21  22
BRANCH  21  30
ATOM     30  C   UNL     1       5.757   3.346   1.649  0.00  0.00    -0.064 C 
BRANCH  30  31
ATOM     31  N   UNL     1       6.016   3.561   3.079  0.00  0.00    +0.379 N 
ATOM     32  H   UNL     1       5.994   2.675   3.562  0.00  0.00    -0.090 HD
ATOM     33  H   UNL     1       6.923   3.986   3.197  0.00  0.00    -0.090 HD
ATOM     34  H   UNL     1       5.307   4.169   3.462  0.00  0.00    -0.090 HD
ENDBRANCH  30  31
ENDBRANCH  21  30
ENDBRANCH   1  21
TORSDOF 7
