REMARK  Name = CHEMBL252056
REMARK  9 active torsions:
REMARK  status: ('A' for Active; 'I' for Inactive)
REMARK    1  A    between atoms: C_1  and  S_2
REMARK    2  A    between atoms: S_2  and  C_3
REMARK    3  A    between atoms: C_8  and  C_28
REMARK    4  A    between atoms: C_9  and  C_13
REMARK    5  A    between atoms: C_16  and  C_19
REMARK    6  A    between atoms: C_19  and  N_20
REMARK    7  A    between atoms: N_20  and  C_21
REMARK    8  A    between atoms: C_21  and  C_22
REMARK    9  A    between atoms: C_22  and  C_23
REMARK                            x       y       z     vdW  Elec       q    Type
REMARK                         _______ _______ _______ _____ _____    ______ ____
ROOT
ATOM      1  C   UNL     1       0.848  -0.411  -1.489  0.00  0.00    +0.190 A 
ATOM      2  N   UNL     1       1.284   0.580  -2.267  0.00  0.00    -0.230 NA
ATOM      3  C   UNL     1       1.923   0.338  -3.392  0.00  0.00    +0.125 A 
ATOM      4  C   UNL     1       2.142  -1.001  -3.766  0.00  0.00    +0.038 A 
ATOM      5  C   UNL     1       2.815  -1.339  -4.949  0.00  0.00    +0.023 A 
ATOM      6  C   UNL     1       2.987  -2.685  -5.239  0.00  0.00    +0.009 A 
ATOM      7  C   UNL     1       2.485  -3.656  -4.344  0.00  0.00    +0.081 A 
ATOM      8  N   UNL     1       1.855  -3.311  -3.237  0.00  0.00    -0.227 NA
ATOM      9  C   UNL     1       1.665  -2.032  -2.913  0.00  0.00    +0.165 A 
ATOM     10  N   UNL     1       1.030  -1.684  -1.786  0.00  0.00    -0.202 NA
ENDROOT
BRANCH   7  11
ATOM     11  C   UNL     1       2.670  -5.092  -4.655  0.00  0.00    +0.001 A 
ATOM     12  C   UNL     1       2.633  -5.533  -5.978  0.00  0.00    +0.010 A 
ATOM     13  C   UNL     1       2.806  -6.872  -6.262  0.00  0.00    +0.005 A 
ATOM     14  C   UNL     1       3.016  -7.777  -5.237  0.00  0.00    -0.034 A 
ATOM     15  C   UNL     1       3.053  -7.347  -3.923  0.00  0.00    +0.005 A 
ATOM     16  C   UNL     1       2.888  -6.009  -3.627  0.00  0.00    +0.010 A 
BRANCH  14  17
ATOM     17  C   UNL     1       3.204  -9.239  -5.554  0.00  0.00    +0.116 C 
BRANCH  17  18
ATOM     18  N   UNL     1       4.631  -9.515  -5.761  0.00  0.00    -0.312 NA
ATOM     19  H   UNL     1       5.013  -8.922  -6.483  0.00  0.00    +0.122 HD
BRANCH  18  20
ATOM     20  C   UNL     1       4.853 -10.933  -6.073  0.00  0.00    +0.088 C 
BRANCH  20  21
ATOM     21  C   UNL     1       6.348 -11.182  -6.282  0.00  0.00    +0.078 C 
BRANCH  21  22
ATOM     22  C   UNL     1       6.576 -12.637  -6.601  0.00  0.00    +0.079 A 
ATOM     23  N   UNL     1       6.599 -13.218  -7.774  0.00  0.00    -0.252 NA
ATOM     24  C   UNL     1       6.812 -14.514  -7.894  0.00  0.00    +0.119 A 
ATOM     25  C   UNL     1       7.007 -15.214  -6.747  0.00  0.00    +0.066 A 
ATOM     26  S   UNL     1       6.870 -13.908  -5.537  0.00  0.00    -0.081 S 
ENDBRANCH  21  22
ENDBRANCH  20  21
ENDBRANCH  18  20
ENDBRANCH  17  18
ENDBRANCH  14  17
ENDBRANCH   7  11
BRANCH   6  27
ATOM     27  C   UNL     1       3.690  -3.100  -6.476  0.00  0.00    -0.016 A 
ATOM     28  C   UNL     1       4.718  -4.040  -6.414  0.00  0.00    +0.008 A 
ATOM     29  C   UNL     1       5.369  -4.423  -7.569  0.00  0.00    +0.001 A 
ATOM     30  C   UNL     1       5.004  -3.876  -8.786  0.00  0.00    +0.000 A 
ATOM     31  C   UNL     1       3.984  -2.943  -8.853  0.00  0.00    +0.001 A 
ATOM     32  C   UNL     1       3.322  -2.557  -7.706  0.00  0.00    +0.008 A 
ENDBRANCH   6  27
BRANCH   1  34
ATOM     33  C   UNL     1      -0.022   1.810   0.012  0.00  0.00    +0.093 C 
ATOM     34  S   UNL     1       0.002  -0.004   0.002  0.00  0.00    -0.089 S 
ENDBRANCH   1  34
TORSDOF 8
