REMARK  Name = CHEMBL203275
REMARK  9 active torsions:
REMARK  status: ('A' for Active; 'I' for Inactive)
REMARK    1  A    between atoms: C_7  and  C_11
REMARK    2  A    between atoms: C_11  and  C_12
REMARK    3  A    between atoms: C_12  and  C_14
REMARK    4  A    between atoms: C_12  and  N_34
REMARK    5  A    between atoms: C_14  and  O_15
REMARK    6  A    between atoms: O_15  and  C_16
REMARK    7  A    between atoms: C_18  and  C_22
REMARK    8  A    between atoms: C_23  and  C_24
REMARK    9  A    between atoms: N_30  and  C_31
REMARK                            x       y       z     vdW  Elec       q    Type
REMARK                         _______ _______ _______ _____ _____    ______ ____
ROOT
ATOM      1  C   UNL     1      -1.619  -6.368  -3.009  0.00  0.00    +0.139 A 
ATOM      2  C   UNL     1      -1.960  -6.779  -4.290  0.00  0.00    +0.056 A 
ATOM      3  C   UNL     1      -2.744  -7.930  -4.430  0.00  0.00    -0.003 A 
ATOM      4  C   UNL     1      -3.150  -8.615  -3.281  0.00  0.00    +0.118 A 
ATOM      5  N   UNL     1      -2.802  -8.186  -2.086  0.00  0.00    -0.259 NA
ATOM      6  C   UNL     1      -2.059  -7.109  -1.920  0.00  0.00    +0.156 A 
ENDROOT
BRANCH   3   7
ATOM      7  C   UNL     1      -3.136  -8.412  -5.767  0.00  0.00    +0.010 C 
ATOM      8  C   UNL     1      -3.888  -9.517  -5.888  0.00  0.00    +0.009 C 
BRANCH   8   9
ATOM      9  C   UNL     1      -4.280  -9.999  -7.225  0.00  0.00    -0.020 A 
ATOM     10  C   UNL     1      -3.872  -9.320  -8.384  0.00  0.00    +0.028 A 
ATOM     11  C   UNL     1      -4.259  -9.803  -9.614  0.00  0.00    +0.113 A 
ATOM     12  N   UNL     1      -5.004 -10.888  -9.716  0.00  0.00    -0.240 NA
ATOM     13  C   UNL     1      -5.413 -11.562  -8.651  0.00  0.00    +0.119 A 
ATOM     14  C   UNL     1      -5.064 -11.148  -7.373  0.00  0.00    +0.051 A 
ATOM     15  N   UNL     1      -6.196 -12.699  -8.816  0.00  0.00    -0.326 N 
ATOM     16  H   UNL     1      -6.502 -12.953  -9.700  0.00  0.00    +0.148 HD
BRANCH  15  17
ATOM     17  C   UNL     1      -6.558 -13.513  -7.653  0.00  0.00    +0.072 C 
ATOM     18  C   UNL     1      -6.341 -15.024  -7.754  0.00  0.00    +0.024 C 
ATOM     19  C   UNL     1      -7.759 -14.451  -7.794  0.00  0.00    +0.024 C 
ENDBRANCH  15  17
ENDBRANCH   8   9
ENDBRANCH   3   7
BRANCH   1  20
ATOM     20  O   UNL     1      -0.859  -5.256  -2.822  0.00  0.00    -0.492 OA
BRANCH  20  21
ATOM     21  C   UNL     1      -0.547  -4.903  -1.473  0.00  0.00    +0.213 C 
BRANCH  21  22
ATOM     22  C   UNL     1       0.309  -3.635  -1.463  0.00  0.00    -0.033 C 
BRANCH  22  23
ATOM     23  N   UNL     1      -0.477  -2.510  -1.988  0.00  0.00    +0.382 N 
ATOM     24  H   UNL     1      -0.766  -2.713  -2.933  0.00  0.00    -0.089 HD
ATOM     25  H   UNL     1      -1.292  -2.370  -1.409  0.00  0.00    -0.089 HD
ATOM     26  H   UNL     1       0.088  -1.673  -1.981  0.00  0.00    -0.089 HD
ENDBRANCH  22  23
BRANCH  22  27
ATOM     27  C   UNL     1       0.748  -3.326  -0.030  0.00  0.00    +0.024 C 
BRANCH  27  34
ATOM     28  C   UNL     1       0.084   1.314   0.015  0.00  0.00    +0.001 A 
ATOM     29  C   UNL     1       1.273   2.030   0.004  0.00  0.00    +0.002 A 
ATOM     30  C   UNL     1       2.486   1.378  -0.019  0.00  0.00    +0.026 A 
ATOM     31  C   UNL     1       2.523  -0.013  -0.030  0.00  0.00    +0.047 A 
ATOM     32  C   UNL     1       1.315  -0.734  -0.018  0.00  0.00    +0.003 A 
ATOM     33  C   UNL     1       0.097  -0.052   0.004  0.00  0.00    +0.010 A 
ATOM     34  C   UNL     1       1.690  -2.150  -0.035  0.00  0.00    -0.024 A 
ATOM     35  C   UNL     1       3.031  -2.201  -0.055  0.00  0.00    +0.087 A 
ATOM     36  N   UNL     1       3.546  -0.934  -0.053  0.00  0.00    -0.360 N 
ATOM     37  H   UNL     1       4.491  -0.717  -0.065  0.00  0.00    +0.165 HD
ENDBRANCH  27  34
ENDBRANCH  22  27
ENDBRANCH  21  22
ENDBRANCH  20  21
ENDBRANCH   1  20
TORSDOF 9
