REMARK  Name = CHEMBL470410
REMARK  7 active torsions:
REMARK  status: ('A' for Active; 'I' for Inactive)
REMARK    1  A    between atoms: C_1  and  N_2
REMARK    2  A    between atoms: N_2  and  C_3
REMARK    3  A    between atoms: C_3  and  C_4
REMARK    4  A    between atoms: C_4  and  C_5
REMARK    5  A    between atoms: C_4  and  N_11
REMARK    6  A    between atoms: C_12  and  C_14
REMARK    7  A    between atoms: C_17  and  C_19
REMARK                            x       y       z     vdW  Elec       q    Type
REMARK                         _______ _______ _______ _____ _____    ______ ____
ROOT
ATOM      1  N   UNL     1      -0.494  -2.242   1.220  0.00  0.00    -0.306 N 
ATOM      2  C   UNL     1       0.813  -2.514   1.034  0.00  0.00    +0.251 C 
ATOM      3  O   UNL     1       1.330  -2.307  -0.049  0.00  0.00    -0.270 OA
ATOM      4  H   UNL     1      -0.906  -2.407   2.082  0.00  0.00    +0.150 HD
ENDROOT
BRANCH   2   5
ATOM      5  C   UNL     1       1.611  -3.061   2.134  0.00  0.00    +0.075 A 
ATOM      6  C   UNL     1       2.957  -3.401   2.150  0.00  0.00    +0.036 A 
ATOM      7  C   UNL     1       3.494  -3.898   3.304  0.00  0.00    +0.033 A 
ATOM      8  C   UNL     1       2.674  -4.044   4.413  0.00  0.00    +0.035 A 
ATOM      9  S   UNL     1       1.105  -3.453   3.800  0.00  0.00    -0.083 S 
ATOM     10 BR   UNL     1       5.321  -4.379   3.387  0.00  0.00    -0.049 Br
BRANCH   8  11
ATOM     11  C   UNL     1       3.012  -4.551   5.756  0.00  0.00    +0.002 A 
ATOM     12  C   UNL     1       4.143  -4.092   6.438  0.00  0.00    +0.029 A 
ATOM     13  C   UNL     1       4.423  -4.595   7.695  0.00  0.00    +0.114 A 
ATOM     14  N   UNL     1       3.653  -5.497   8.268  0.00  0.00    -0.237 NA
ATOM     15  C   UNL     1       2.566  -5.974   7.676  0.00  0.00    +0.139 A 
ATOM     16  C   UNL     1       2.204  -5.511   6.397  0.00  0.00    +0.027 A 
ATOM     17  C   UNL     1       0.976  -6.216   6.038  0.00  0.00    +0.029 A 
ATOM     18  C   UNL     1       0.673  -7.023   7.070  0.00  0.00    +0.085 A 
ATOM     19  N   UNL     1       1.619  -6.896   8.052  0.00  0.00    -0.346 N 
ATOM     20  H   UNL     1       1.614  -7.378   8.894  0.00  0.00    +0.167 HD
ENDBRANCH   8  11
ENDBRANCH   2   5
BRANCH   1  21
ATOM     21  C   UNL     1      -1.292  -1.696   0.119  0.00  0.00    +0.086 C 
BRANCH  21  22
ATOM     22  C   UNL     1      -2.743  -2.042   0.331  0.00  0.00    -0.029 A 
ATOM     23  C   UNL     1      -3.291  -1.979   1.599  0.00  0.00    +0.005 A 
ATOM     24  C   UNL     1      -4.622  -2.297   1.794  0.00  0.00    +0.000 A 
ATOM     25  C   UNL     1      -5.406  -2.676   0.721  0.00  0.00    +0.000 A 
ATOM     26  C   UNL     1      -4.859  -2.738  -0.547  0.00  0.00    +0.000 A 
ATOM     27  C   UNL     1      -3.529  -2.416  -0.743  0.00  0.00    +0.005 A 
ENDBRANCH  21  22
BRANCH  21  28
ATOM     28  C   UNL     1      -1.131  -0.175   0.078  0.00  0.00    -0.056 C 
BRANCH  28  30
ATOM     29  C   UNL     1       0.450   1.625  -0.047  0.00  0.00    -0.100 C 
ATOM     30  N   UNL     1       0.295   0.165  -0.008  0.00  0.00    +0.379 N 
ATOM     31  H   UNL     1       0.687  -0.237  -0.847  0.00  0.00    -0.086 HD
ATOM     32  H   UNL     1       0.778  -0.203   0.798  0.00  0.00    -0.086 HD
ENDBRANCH  28  30
ENDBRANCH  21  28
ENDBRANCH   1  21
TORSDOF 6
