REMARK  Name = CHEMBL209826
REMARK  12 active torsions:
REMARK  status: ('A' for Active; 'I' for Inactive)
REMARK    1  A    between atoms: C_1  and  C_2
REMARK    2  A    between atoms: C_2  and  C_3
REMARK    3  A    between atoms: C_2  and  C_4
REMARK    4  A    between atoms: C_2  and  C_10
REMARK    5  A    between atoms: C_4  and  C_5
REMARK    6  A    between atoms: C_13  and  C_20
REMARK    7  A    between atoms: C_22  and  O_26
REMARK    8  A    between atoms: O_26  and  C_27
REMARK    9  A    between atoms: C_27  and  C_28
REMARK   10  A    between atoms: C_28  and  C_30
REMARK   11  A    between atoms: C_28  and  N_41
REMARK   12  A    between atoms: C_30  and  C_31
REMARK                            x       y       z     vdW  Elec       q    Type
REMARK                         _______ _______ _______ _____ _____    ______ ____
ROOT
ATOM      1  C   UNL     1       4.831   2.580  -1.206  0.00  0.00    +0.004 A 
ATOM      2  C   UNL     1       6.225   2.675  -1.204  0.00  0.00    +0.057 A 
ATOM      3  C   UNL     1       6.798   3.940  -1.189  0.00  0.00    +0.139 A 
ATOM      4  C   UNL     1       5.972   5.056  -1.176  0.00  0.00    +0.156 A 
ATOM      5  N   UNL     1       4.660   4.930  -1.178  0.00  0.00    -0.259 NA
ATOM      6  C   UNL     1       4.074   3.750  -1.199  0.00  0.00    +0.119 A 
ENDROOT
BRANCH   1  10
ATOM      7  C   UNL     1       0.718  -0.497  -1.257  0.00  0.00    +0.113 C 
ATOM      8  C   UNL     1       2.167  -0.067  -1.245  0.00  0.00    -0.013 A 
ATOM      9  C   UNL     1       2.774   1.166  -1.230  0.00  0.00    +0.014 A 
ATOM     10  C   UNL     1       4.167   1.253  -1.222  0.00  0.00    -0.016 A 
ATOM     11  C   UNL     1       4.930   0.087  -1.229  0.00  0.00    +0.010 A 
ATOM     12  C   UNL     1       4.314  -1.145  -1.244  0.00  0.00    +0.024 A 
ATOM     13  C   UNL     1       2.922  -1.235  -1.252  0.00  0.00    +0.037 A 
ATOM     14  N   UNL     1       2.083  -2.350  -1.268  0.00  0.00    -0.285 N 
ATOM     15  C   UNL     1       0.784  -2.010  -1.272  0.00  0.00    +0.225 C 
ATOM     16  O   UNL     1      -0.160  -2.772  -1.284  0.00  0.00    -0.275 OA
ATOM     17  H   UNL     1       2.402  -3.266  -1.276  0.00  0.00    +0.155 HD
BRANCH   7  19
ATOM     18  C   UNL     1      -0.019   1.526   0.010  0.00  0.00    +0.012 C 
ATOM     19  C   UNL     1       0.002  -0.004   0.002  0.00  0.00    -0.015 C 
ATOM     20  C   UNL     1       0.742  -0.511   1.242  0.00  0.00    +0.012 C 
BRANCH  19  21
ATOM     21  C   UNL     1      -1.433  -0.534   0.013  0.00  0.00    +0.049 C 
BRANCH  21  22
ATOM     22  C   UNL     1      -2.139  -0.048   1.253  0.00  0.00    -0.010 A 
ATOM     23  C   UNL     1      -2.863   1.083   1.435  0.00  0.00    +0.011 A 
ATOM     24  C   UNL     1      -3.427   1.326   2.673  0.00  0.00    +0.008 A 
ATOM     25  C   UNL     1      -3.238   0.427   3.669  0.00  0.00    +0.045 A 
ATOM     26  S   UNL     1      -2.243  -0.816   2.861  0.00  0.00    -0.102 S 
ENDBRANCH  21  22
ENDBRANCH  19  21
ENDBRANCH   7  19
ENDBRANCH   1  10
BRANCH   3  27
ATOM     27  O   UNL     1       8.149   4.083  -1.185  0.00  0.00    -0.492 OA
BRANCH  27  28
ATOM     28  C   UNL     1       8.660   5.418  -1.170  0.00  0.00    +0.213 C 
BRANCH  28  29
ATOM     29  C   UNL     1      10.190   5.378  -1.168  0.00  0.00    -0.033 C 
BRANCH  29  30
ATOM     30  N   UNL     1      10.665   4.795  -2.430  0.00  0.00    +0.382 N 
ATOM     31  H   UNL     1      11.674   4.769  -2.429  0.00  0.00    -0.089 HD
ATOM     32  H   UNL     1      10.305   3.857  -2.524  0.00  0.00    -0.089 HD
ATOM     33  H   UNL     1      10.344   5.358  -3.203  0.00  0.00    -0.089 HD
ENDBRANCH  29  30
BRANCH  29  34
ATOM     34  C   UNL     1      10.736   6.800  -1.026  0.00  0.00    +0.024 C 
BRANCH  34  35
ATOM     35  C   UNL     1      12.237   6.751  -0.901  0.00  0.00    -0.024 A 
ATOM     36  C   UNL     1      12.944   6.741   0.240  0.00  0.00    +0.087 A 
ATOM     37  N   UNL     1      14.282   6.692  -0.040  0.00  0.00    -0.360 N 
ATOM     38  H   UNL     1      14.990   6.676   0.623  0.00  0.00    +0.165 HD
ATOM     39  C   UNL     1      14.475   6.670  -1.403  0.00  0.00    +0.047 A 
ATOM     40  C   UNL     1      13.202   6.699  -2.002  0.00  0.00    +0.003 A 
ATOM     41  C   UNL     1      13.086   6.679  -3.393  0.00  0.00    +0.010 A 
ATOM     42  C   UNL     1      14.211   6.628  -4.167  0.00  0.00    +0.001 A 
ATOM     43  C   UNL     1      15.469   6.595  -3.581  0.00  0.00    +0.002 A 
ATOM     44  C   UNL     1      15.607   6.623  -2.210  0.00  0.00    +0.026 A 
ENDBRANCH  34  35
ENDBRANCH  29  34
ENDBRANCH  28  29
ENDBRANCH  27  28
ENDBRANCH   3  27
TORSDOF 10
