REMARK  Name = CHEMBL381785
REMARK  9 active torsions:
REMARK  status: ('A' for Active; 'I' for Inactive)
REMARK    1  A    between atoms: C_1  and  C_2
REMARK    2  A    between atoms: N_4  and  C_5
REMARK    3  A    between atoms: C_8  and  C_11
REMARK    4  A    between atoms: C_13  and  O_17
REMARK    5  A    between atoms: O_17  and  C_18
REMARK    6  A    between atoms: C_18  and  C_19
REMARK    7  A    between atoms: C_19  and  C_21
REMARK    8  A    between atoms: C_19  and  N_32
REMARK    9  A    between atoms: C_21  and  C_22
REMARK                            x       y       z     vdW  Elec       q    Type
REMARK                         _______ _______ _______ _____ _____    ______ ____
ROOT
ATOM      1  O   UNL     1       0.754  -9.009  -3.841  0.00  0.00    -0.492 OA
ENDROOT
BRANCH   1   4
ATOM      2  C   UNL     1       0.439  -6.301  -1.425  0.00  0.00    +0.004 A 
ATOM      3  C   UNL     1       0.544  -6.949  -2.658  0.00  0.00    +0.057 A 
ATOM      4  C   UNL     1       0.650  -8.334  -2.666  0.00  0.00    +0.139 A 
ATOM      5  C   UNL     1       0.648  -9.020  -1.460  0.00  0.00    +0.156 A 
ATOM      6  N   UNL     1       0.547  -8.376  -0.313  0.00  0.00    -0.259 NA
ATOM      7  C   UNL     1       0.451  -7.064  -0.258  0.00  0.00    +0.119 A 
BRANCH   2  11
ATOM      8  C   UNL     1       0.109  -2.064  -1.232  0.00  0.00    +0.033 A 
ATOM      9  C   UNL     1       0.118  -2.813  -0.062  0.00  0.00    +0.024 A 
ATOM     10  C   UNL     1       0.225  -4.186  -0.121  0.00  0.00    +0.010 A 
ATOM     11  C   UNL     1       0.323  -4.824  -1.357  0.00  0.00    -0.016 A 
ATOM     12  C   UNL     1       0.313  -4.070  -2.530  0.00  0.00    +0.010 A 
ATOM     13  C   UNL     1       0.201  -2.698  -2.466  0.00  0.00    +0.024 A 
BRANCH   8  17
ATOM     14  C   UNL     1       0.558   1.512  -0.148  0.00  0.00    +0.109 C 
ATOM     15  C   UNL     1       0.586   0.005  -0.161  0.00  0.00    +0.214 C 
ATOM     16  O   UNL     1       1.135  -0.599   0.736  0.00  0.00    -0.276 OA
ATOM     17  N   UNL     1       0.000  -0.672  -1.169  0.00  0.00    -0.286 N 
ATOM     18  H   UNL     1      -0.497  -0.192  -1.850  0.00  0.00    +0.155 HD
ENDBRANCH   8  17
ENDBRANCH   2  11
ENDBRANCH   1   4
BRANCH   1  19
ATOM     19  C   UNL     1       0.859 -10.432  -3.765  0.00  0.00    +0.213 C 
BRANCH  19  20
ATOM     20  C   UNL     1       0.966 -11.012  -5.177  0.00  0.00    -0.033 C 
BRANCH  20  21
ATOM     21  N   UNL     1       2.220 -10.562  -5.797  0.00  0.00    +0.382 N 
ATOM     22  H   UNL     1       2.290 -10.944  -6.728  0.00  0.00    -0.089 HD
ATOM     23  H   UNL     1       2.228  -9.554  -5.846  0.00  0.00    -0.089 HD
ATOM     24  H   UNL     1       3.001 -10.879  -5.243  0.00  0.00    -0.089 HD
ENDBRANCH  20  21
BRANCH  20  25
ATOM     25  C   UNL     1       0.953 -12.540  -5.103  0.00  0.00    +0.024 C 
BRANCH  25  26
ATOM     26  C   UNL     1       0.935 -13.110  -6.498  0.00  0.00    -0.024 A 
ATOM     27  C   UNL     1      -0.151 -13.484  -7.193  0.00  0.00    +0.087 A 
ATOM     28  N   UNL     1       0.222 -13.954  -8.423  0.00  0.00    -0.360 N 
ATOM     29  H   UNL     1      -0.387 -14.283  -9.103  0.00  0.00    +0.165 HD
ATOM     30  C   UNL     1       1.592 -13.893  -8.552  0.00  0.00    +0.047 A 
ATOM     31  C   UNL     1       2.098 -13.355  -7.354  0.00  0.00    +0.003 A 
ATOM     32  C   UNL     1       3.473 -13.170  -7.200  0.00  0.00    +0.010 A 
ATOM     33  C   UNL     1       4.321 -13.509  -8.216  0.00  0.00    +0.001 A 
ATOM     34  C   UNL     1       3.827 -14.036  -9.402  0.00  0.00    +0.002 A 
ATOM     35  C   UNL     1       2.474 -14.236  -9.571  0.00  0.00    +0.026 A 
ENDBRANCH  25  26
ENDBRANCH  20  25
ENDBRANCH  19  20
ENDBRANCH   1  19
TORSDOF 8
