REMARK  Name = CHEMBL263664
REMARK  3 active torsions:
REMARK  status: ('A' for Active; 'I' for Inactive)
REMARK    1  A    between atoms: C_6  and  C_7
REMARK    2  A    between atoms: C_7  and  C_8
REMARK    3  A    between atoms: C_8  and  N_24
REMARK                            x       y       z     vdW  Elec       q    Type
REMARK                         _______ _______ _______ _____ _____    ______ ____
ROOT
ATOM      1  C   UNL     1      -1.704  -0.946  -1.452  0.00  0.00    -0.064 C 
ATOM      2  C   UNL     1      -1.925   0.439  -2.065  0.00  0.00    +0.006 C 
ATOM      3  C   UNL     1      -3.017   1.172  -1.279  0.00  0.00    +0.105 C 
ATOM      4  N   UNL     1      -4.220   0.329  -1.243  0.00  0.00    -0.315 N 
ATOM      5  C   UNL     1      -4.100  -1.052  -0.756  0.00  0.00    +0.105 C 
ATOM      6  C   UNL     1      -2.996  -1.760  -1.548  0.00  0.00    +0.006 C 
ATOM      7  C   UNL     1      -5.442   0.826  -1.659  0.00  0.00    +0.134 A 
ATOM      8  C   UNL     1      -6.306   1.461  -0.753  0.00  0.00    +0.059 A 
ATOM      9  C   UNL     1      -6.261   1.777   0.673  0.00  0.00    +0.032 A 
ATOM     10  C   UNL     1      -7.410   2.408   0.967  0.00  0.00    +0.085 A 
ATOM     11  N   UNL     1      -8.182   2.517  -0.160  0.00  0.00    -0.346 N 
ATOM     12  H   UNL     1      -9.056   2.936  -0.198  0.00  0.00    +0.167 HD
ATOM     13  C   UNL     1      -7.538   1.950  -1.226  0.00  0.00    +0.143 A 
ATOM     14  N   UNL     1      -7.835   1.790  -2.514  0.00  0.00    -0.218 NA
ATOM     15  C   UNL     1      -6.994   1.187  -3.327  0.00  0.00    +0.225 A 
ATOM     16  N   UNL     1      -5.826   0.719  -2.927  0.00  0.00    -0.220 NA
ENDROOT
BRANCH   1  17
ATOM     17  N   UNL     1      -0.634  -1.639  -2.183  0.00  0.00    +0.382 N 
ATOM     18  H   UNL     1      -0.487  -2.551  -1.779  0.00  0.00    -0.089 HD
ATOM     19  H   UNL     1      -0.898  -1.738  -3.152  0.00  0.00    -0.089 HD
ATOM     20  H   UNL     1       0.218  -1.102  -2.120  0.00  0.00    -0.089 HD
ENDBRANCH   1  17
BRANCH   1  21
ATOM     21  C   UNL     1      -1.303  -0.795   0.017  0.00  0.00    +0.022 C 
BRANCH  21  27
ATOM     22  C   UNL     1      -0.088   1.383   0.225  0.00  0.00    +0.005 A 
ATOM     23  C   UNL     1       1.079   2.119   0.312  0.00  0.00    +0.020 A 
ATOM     24  C   UNL     1       2.304   1.477   0.284  0.00  0.00    +0.041 A 
ATOM     25  C   UNL     1       2.361   0.100   0.169  0.00  0.00    +0.020 A 
ATOM     26  C   UNL     1       1.194  -0.635   0.083  0.00  0.00    +0.005 A 
ATOM     27  C   UNL     1      -0.031   0.006   0.111  0.00  0.00    -0.049 A 
ATOM     28 CL   UNL     1       3.770   2.401   0.392  0.00  0.00    -0.084 Cl
ENDBRANCH  21  27
ENDBRANCH   1  21
TORSDOF 3
