REMARK  Name = CHEMBL368010
REMARK  6 active torsions:
REMARK  status: ('A' for Active; 'I' for Inactive)
REMARK    1  A    between atoms: C_4  and  C_7
REMARK    2  A    between atoms: C_9  and  C_37
REMARK    3  A    between atoms: C_12  and  C_13
REMARK    4  A    between atoms: C_16  and  C_19
REMARK    5  A    between atoms: C_19  and  N_20
REMARK    6  A    between atoms: C_23  and  C_26
REMARK                            x       y       z     vdW  Elec       q    Type
REMARK                         _______ _______ _______ _____ _____    ______ ____
ROOT
ATOM      1  C   UNL     1       2.917  -2.088   1.874  0.00  0.00    +0.001 A 
ATOM      2  C   UNL     1       2.086  -1.107   2.417  0.00  0.00    +0.010 A 
ATOM      3  C   UNL     1       1.123  -1.457   3.341  0.00  0.00    +0.002 A 
ATOM      4  C   UNL     1       0.980  -2.777   3.729  0.00  0.00    -0.064 A 
ATOM      5  C   UNL     1       1.801  -3.754   3.195  0.00  0.00    +0.002 A 
ATOM      6  C   UNL     1       2.764  -3.418   2.266  0.00  0.00    +0.010 A 
ENDROOT
BRANCH   1  12
ATOM      7  C   UNL     1       3.698  -0.688  -0.037  0.00  0.00    +0.009 A 
ATOM      8  C   UNL     1       4.684  -0.349  -0.961  0.00  0.00    +0.031 A 
ATOM      9  C   UNL     1       5.889  -1.060  -0.934  0.00  0.00    +0.070 A 
ATOM     10  C   UNL     1       6.061  -2.077   0.010  0.00  0.00    +0.130 A 
ATOM     11  N   UNL     1       5.108  -2.371   0.867  0.00  0.00    -0.253 NA
ATOM     12  C   UNL     1       3.952  -1.720   0.882  0.00  0.00    +0.079 A 
BRANCH   7  16
ATOM     13  C   UNL     1      -0.017   1.379   0.010  0.00  0.00    +0.000 A 
ATOM     14  C   UNL     1       1.169   2.092   0.002  0.00  0.00    +0.001 A 
ATOM     15  C   UNL     1       2.377   1.427  -0.013  0.00  0.00    +0.008 A 
ATOM     16  C   UNL     1       2.402   0.033  -0.021  0.00  0.00    -0.016 A 
ATOM     17  C   UNL     1       1.205  -0.680  -0.013  0.00  0.00    +0.008 A 
ATOM     18  C   UNL     1       0.002  -0.004   0.002  0.00  0.00    +0.001 A 
ENDBRANCH   7  16
BRANCH   9  19
ATOM     19  C   UNL     1       6.934  -0.750  -1.863  0.00  0.00    +0.101 C 
ATOM     20  N   UNL     1       7.763  -0.504  -2.600  0.00  0.00    -0.191 NA
ENDBRANCH   9  19
ENDBRANCH   1  12
BRANCH   4  21
ATOM     21  C   UNL     1      -0.074  -3.152   4.739  0.00  0.00    -0.043 C 
BRANCH  21  22
ATOM     22  N   UNL     1      -1.326  -3.477   4.043  0.00  0.00    +0.382 N 
ATOM     23  C   UNL     1      -1.834  -2.277   3.366  0.00  0.00    -0.078 C 
ATOM     24  C   UNL     1      -3.094  -2.630   2.573  0.00  0.00    -0.008 C 
ATOM     25  C   UNL     1      -4.160  -3.167   3.531  0.00  0.00    +0.052 C 
ATOM     26  C   UNL     1      -3.594  -4.373   4.285  0.00  0.00    -0.008 C 
ATOM     27  C   UNL     1      -2.315  -3.957   5.016  0.00  0.00    -0.078 C 
ATOM     28  H   UNL     1      -1.151  -4.198   3.359  0.00  0.00    -0.081 HD
BRANCH  25  29
ATOM     29  C   UNL     1      -5.376  -3.589   2.747  0.00  0.00    +0.111 A 
ATOM     30  N   UNL     1      -5.541  -4.804   2.160  0.00  0.00    -0.342 N 
ATOM     31  H   UNL     1      -4.908  -5.540   2.172  0.00  0.00    +0.167 HD
ATOM     32  C   UNL     1      -6.777  -4.798   1.543  0.00  0.00    +0.066 A 
ATOM     33  C   UNL     1      -7.489  -5.729   0.799  0.00  0.00    +0.030 A 
ATOM     34  C   UNL     1      -8.736  -5.406   0.307  0.00  0.00    +0.040 A 
ATOM     35  C   UNL     1      -9.286  -4.154   0.551  0.00  0.00    +0.126 A 
ATOM     36  C   UNL     1      -8.593  -3.217   1.288  0.00  0.00    +0.068 A 
ATOM     37  C   UNL     1      -7.328  -3.530   1.793  0.00  0.00    +0.092 A 
ATOM     38  N   UNL     1      -6.423  -2.845   2.538  0.00  0.00    -0.232 NA
ATOM     39  F   UNL     1     -10.508  -3.851   0.062  0.00  0.00    -0.205 F 
ENDBRANCH  25  29
ENDBRANCH  21  22
ENDBRANCH   4  21
TORSDOF 6
