REMARK  Name = CHEMBL359864
REMARK  5 active torsions:
REMARK  status: ('A' for Active; 'I' for Inactive)
REMARK    1  A    between atoms: C_4  and  C_7
REMARK    2  A    between atoms: C_16  and  C_17
REMARK    3  A    between atoms: C_20  and  C_23
REMARK    4  A    between atoms: C_23  and  N_24
REMARK    5  A    between atoms: C_27  and  N_30
REMARK                            x       y       z     vdW  Elec       q    Type
REMARK                         _______ _______ _______ _____ _____    ______ ____
ROOT
ATOM      1  C   UNL     1       2.905  -2.084   1.877  0.00  0.00    +0.001 A 
ATOM      2  C   UNL     1       2.078  -1.096   2.411  0.00  0.00    +0.010 A 
ATOM      3  C   UNL     1       1.107  -1.436   3.331  0.00  0.00    +0.002 A 
ATOM      4  C   UNL     1       0.954  -2.754   3.724  0.00  0.00    -0.064 A 
ATOM      5  C   UNL     1       1.771  -3.738   3.197  0.00  0.00    +0.002 A 
ATOM      6  C   UNL     1       2.742  -3.411   2.272  0.00  0.00    +0.010 A 
ENDROOT
BRANCH   1  16
ATOM      7  C   UNL     1       3.698  -0.688  -0.038  0.00  0.00    +0.009 A 
ATOM      8  C   UNL     1       4.675  -0.347  -0.959  0.00  0.00    +0.020 A 
ATOM      9  C   UNL     1       5.886  -1.060  -0.935  0.00  0.00    +0.001 A 
ATOM     10  C   UNL     1       6.920  -0.767  -1.840  0.00  0.00    +0.010 A 
ATOM     11  C   UNL     1       8.081  -1.476  -1.790  0.00  0.00    +0.001 A 
ATOM     12  C   UNL     1       8.259  -2.491  -0.852  0.00  0.00    +0.002 A 
ATOM     13  C   UNL     1       7.279  -2.803   0.040  0.00  0.00    +0.028 A 
ATOM     14  C   UNL     1       6.065  -2.093   0.021  0.00  0.00    +0.072 A 
ATOM     15  N   UNL     1       5.090  -2.383   0.887  0.00  0.00    -0.246 NA
ATOM     16  C   UNL     1       3.949  -1.725   0.889  0.00  0.00    +0.079 A 
BRANCH   7  20
ATOM     17  C   UNL     1      -0.017   1.379   0.010  0.00  0.00    +0.000 A 
ATOM     18  C   UNL     1       1.169   2.092   0.002  0.00  0.00    +0.001 A 
ATOM     19  C   UNL     1       2.377   1.427  -0.013  0.00  0.00    +0.008 A 
ATOM     20  C   UNL     1       2.403   0.033  -0.021  0.00  0.00    -0.016 A 
ATOM     21  C   UNL     1       1.205  -0.680  -0.013  0.00  0.00    +0.008 A 
ATOM     22  C   UNL     1       0.002  -0.004   0.002  0.00  0.00    +0.001 A 
ENDBRANCH   7  20
ENDBRANCH   1  16
BRANCH   4  23
ATOM     23  C   UNL     1      -0.108  -3.119   4.729  0.00  0.00    -0.043 C 
BRANCH  23  24
ATOM     24  N   UNL     1      -1.358  -3.438   4.027  0.00  0.00    +0.382 N 
ATOM     25  C   UNL     1      -1.854  -2.237   3.344  0.00  0.00    -0.076 C 
ATOM     26  C   UNL     1      -3.112  -2.584   2.545  0.00  0.00    +0.006 C 
ATOM     27  C   UNL     1      -4.188  -3.111   3.499  0.00  0.00    +0.089 C 
ATOM     28  C   UNL     1      -3.633  -4.319   4.261  0.00  0.00    +0.006 C 
ATOM     29  C   UNL     1      -2.355  -3.908   4.996  0.00  0.00    -0.076 C 
ATOM     30  H   UNL     1      -1.185  -4.162   3.346  0.00  0.00    -0.081 HD
BRANCH  27  31
ATOM     31  N   UNL     1      -5.368  -3.516   2.732  0.00  0.00    -0.289 N 
ATOM     32  C   UNL     1      -6.649  -2.985   2.866  0.00  0.00    +0.070 A 
ATOM     33  C   UNL     1      -7.191  -2.002   3.679  0.00  0.00    +0.028 A 
ATOM     34  C   UNL     1      -8.532  -1.689   3.578  0.00  0.00    +0.002 A 
ATOM     35  C   UNL     1      -9.338  -2.353   2.669  0.00  0.00    +0.002 A 
ATOM     36  C   UNL     1      -8.807  -3.334   1.855  0.00  0.00    +0.028 A 
ATOM     37  C   UNL     1      -7.461  -3.655   1.948  0.00  0.00    +0.067 A 
ATOM     38  N   UNL     1      -6.649  -4.571   1.285  0.00  0.00    -0.306 N 
ATOM     39  C   UNL     1      -5.398  -4.460   1.773  0.00  0.00    +0.328 A 
ATOM     40  O   UNL     1      -4.442  -5.116   1.405  0.00  0.00    -0.247 OA
ATOM     41  H   UNL     1      -6.934  -5.182   0.588  0.00  0.00    +0.170 HD
ENDBRANCH  27  31
ENDBRANCH  23  24
ENDBRANCH   4  23
TORSDOF 5
