REMARK  Name = CHEMBL494060
REMARK  18 active torsions:
REMARK  status: ('A' for Active; 'I' for Inactive)
REMARK    1  A    between atoms: C_1  and  C_2
REMARK    2  A    between atoms: C_2  and  N_3
REMARK    3  A    between atoms: C_5  and  O_24
REMARK    4  A    between atoms: C_8  and  C_18
REMARK    5  A    between atoms: C_11  and  C_12
REMARK    6  A    between atoms: C_19  and  C_20
REMARK    7  A    between atoms: C_20  and  C_21
REMARK    8  A    between atoms: C_20  and  C_22
REMARK    9  A    between atoms: C_20  and  O_23
REMARK   10  A    between atoms: O_24  and  C_25
REMARK   11  A    between atoms: C_25  and  C_26
REMARK   12  A    between atoms: C_26  and  C_27
REMARK   13  A    between atoms: C_27  and  N_28
REMARK   14  A    between atoms: N_28  and  C_29
REMARK   15  A    between atoms: C_29  and  C_30
REMARK   16  A    between atoms: C_30  and  C_31
REMARK   17  A    between atoms: C_34  and  O_37
REMARK   18  A    between atoms: O_37  and  C_38
REMARK                            x       y       z     vdW  Elec       q    Type
REMARK                         _______ _______ _______ _____ _____    ______ ____
ROOT
ATOM      1  N   UNL     1       0.688  -0.476  -1.203  0.00  0.00    -0.319 N 
ATOM      2  C   UNL     1       0.108  -0.745  -2.422  0.00  0.00    +0.116 A 
ATOM      3  C   UNL     1      -1.188  -0.685  -2.933  0.00  0.00    +0.164 A 
ATOM      4  C   UNL     1      -1.407  -1.042  -4.253  0.00  0.00    +0.160 A 
ATOM      5  N   UNL     1      -0.416  -1.437  -5.031  0.00  0.00    -0.241 NA
ATOM      6  C   UNL     1       0.836  -1.514  -4.600  0.00  0.00    +0.141 A 
ATOM      7  C   UNL     1       1.149  -1.169  -3.269  0.00  0.00    +0.127 A 
ATOM      8  N   UNL     1       2.285  -1.140  -2.550  0.00  0.00    -0.223 NA
ATOM      9  C   UNL     1       2.028  -0.729  -1.332  0.00  0.00    +0.167 A 
ENDROOT
BRANCH   9  10
ATOM     10  C   UNL     1       3.032  -0.566  -0.258  0.00  0.00    +0.190 A 
ATOM     11  C   UNL     1       4.472  -0.825  -0.380  0.00  0.00    +0.191 A 
ATOM     12  N   UNL     1       5.034  -0.571   0.770  0.00  0.00    -0.033 NA
ATOM     13  O   UNL     1       4.021  -0.147   1.665  0.00  0.00    -0.240 OA
ATOM     14  N   UNL     1       2.792  -0.159   0.962  0.00  0.00    -0.044 NA
ATOM     15  N   UNL     1       5.125  -1.267  -1.524  0.00  0.00    -0.339 N 
ATOM     16  H   UNL     1       4.622  -1.431  -2.337  0.00  0.00    +0.144 HD
ATOM     17  H   UNL     1       6.084  -1.412  -1.509  0.00  0.00    +0.144 HD
ENDBRANCH   9  10
BRANCH   1  19
ATOM     18  C   UNL     1      -0.019   1.526   0.010  0.00  0.00    +0.027 C 
ATOM     19  C   UNL     1       0.002  -0.004   0.002  0.00  0.00    +0.120 C 
ENDBRANCH   1  19
BRANCH   6  20
ATOM     20  C   UNL     1       1.872  -1.950  -5.488  0.00  0.00    -0.041 C 
ATOM     21  C   UNL     1       2.721  -2.307  -6.216  0.00  0.00    -0.061 C 
BRANCH  21  22
ATOM     22  C   UNL     1       3.786  -2.755  -7.128  0.00  0.00    +0.121 C 
ATOM     23  C   UNL     1       5.125  -2.754  -6.389  0.00  0.00    +0.055 C 
ATOM     24  C   UNL     1       3.475  -4.170  -7.619  0.00  0.00    +0.055 C 
BRANCH  22  25
ATOM     25  O   UNL     1       3.858  -1.868  -8.247  0.00  0.00    -0.377 OA
ATOM     26  H   UNL     1       4.053  -0.951  -8.010  0.00  0.00    +0.211 HD
ENDBRANCH  22  25
ENDBRANCH  21  22
ENDBRANCH   6  20
BRANCH   3  27
ATOM     27  O   UNL     1      -2.222  -0.281  -2.148  0.00  0.00    -0.488 OA
BRANCH  27  28
ATOM     28  C   UNL     1      -3.518  -0.247  -2.748  0.00  0.00    +0.227 C 
BRANCH  28  29
ATOM     29  C   UNL     1      -4.545   0.228  -1.718  0.00  0.00    +0.022 C 
BRANCH  29  30
ATOM     30  C   UNL     1      -5.933   0.264  -2.360  0.00  0.00    -0.079 C 
BRANCH  30  31
ATOM     31  N   UNL     1      -6.919   0.720  -1.371  0.00  0.00    +0.379 N 
ATOM     32  H   UNL     1      -6.928   0.084  -0.587  0.00  0.00    -0.086 HD
ATOM     33  H   UNL     1      -6.672   1.645  -1.052  0.00  0.00    -0.086 HD
BRANCH  31  34
ATOM     34  C   UNL     1      -8.252   0.755  -1.988  0.00  0.00    -0.078 C 
BRANCH  34  35
ATOM     35  C   UNL     1      -9.278   1.230  -0.958  0.00  0.00    +0.016 C 
BRANCH  35  36
ATOM     36  C   UNL     1     -10.645   1.265  -1.591  0.00  0.00    -0.049 A 
ATOM     37  C   UNL     1     -11.083   2.414  -2.223  0.00  0.00    +0.007 A 
ATOM     38  C   UNL     1     -12.336   2.450  -2.804  0.00  0.00    +0.046 A 
ATOM     39  C   UNL     1     -13.155   1.331  -2.752  0.00  0.00    +0.120 A 
ATOM     40  C   UNL     1     -12.713   0.179  -2.118  0.00  0.00    +0.046 A 
ATOM     41  C   UNL     1     -11.457   0.147  -1.543  0.00  0.00    +0.007 A 
BRANCH  39  42
ATOM     42  O   UNL     1     -14.389   1.364  -3.322  0.00  0.00    -0.495 OA
ATOM     43  C   UNL     1     -15.177   0.175  -3.231  0.00  0.00    +0.277 C 
ENDBRANCH  39  42
ENDBRANCH  35  36
ENDBRANCH  34  35
ENDBRANCH  31  34
ENDBRANCH  30  31
ENDBRANCH  29  30
ENDBRANCH  28  29
ENDBRANCH  27  28
ENDBRANCH   3  27
TORSDOF 14
