REMARK  Name = CHEMBL181730
REMARK  6 active torsions:
REMARK  status: ('A' for Active; 'I' for Inactive)
REMARK    1  A    between atoms: C_4  and  C_7
REMARK    2  A    between atoms: C_9  and  C_37
REMARK    3  A    between atoms: C_12  and  C_13
REMARK    4  A    between atoms: C_16  and  C_19
REMARK    5  A    between atoms: C_19  and  N_20
REMARK    6  A    between atoms: C_23  and  C_26
REMARK                            x       y       z     vdW  Elec       q    Type
REMARK                         _______ _______ _______ _____ _____    ______ ____
ROOT
ATOM      1  C   UNL     1       2.918  -2.088   1.874  0.00  0.00    +0.001 A 
ATOM      2  C   UNL     1       2.088  -1.107   2.417  0.00  0.00    +0.010 A 
ATOM      3  C   UNL     1       1.126  -1.457   3.343  0.00  0.00    +0.002 A 
ATOM      4  C   UNL     1       0.984  -2.777   3.731  0.00  0.00    -0.064 A 
ATOM      5  C   UNL     1       1.804  -3.754   3.196  0.00  0.00    +0.002 A 
ATOM      6  C   UNL     1       2.765  -3.418   2.265  0.00  0.00    +0.010 A 
ENDROOT
BRANCH   1  12
ATOM      7  C   UNL     1       3.698  -0.688  -0.038  0.00  0.00    +0.009 A 
ATOM      8  C   UNL     1       4.684  -0.349  -0.963  0.00  0.00    +0.023 A 
ATOM      9  C   UNL     1       5.888  -1.059  -0.937  0.00  0.00    +0.041 A 
ATOM     10  C   UNL     1       6.060  -2.075   0.005  0.00  0.00    +0.123 A 
ATOM     11  N   UNL     1       5.108  -2.371   0.864  0.00  0.00    -0.254 NA
ATOM     12  C   UNL     1       3.953  -1.719   0.880  0.00  0.00    +0.079 A 
BRANCH   7  16
ATOM     13  C   UNL     1      -0.017   1.379   0.010  0.00  0.00    +0.000 A 
ATOM     14  C   UNL     1       1.169   2.092   0.002  0.00  0.00    +0.001 A 
ATOM     15  C   UNL     1       2.377   1.427  -0.013  0.00  0.00    +0.008 A 
ATOM     16  C   UNL     1       2.402   0.033  -0.021  0.00  0.00    -0.016 A 
ATOM     17  C   UNL     1       1.205  -0.680  -0.013  0.00  0.00    +0.008 A 
ATOM     18  C   UNL     1       0.002  -0.004   0.002  0.00  0.00    +0.001 A 
ENDBRANCH   7  16
BRANCH   9  19
ATOM     19  C   UNL     1       6.966  -0.738  -1.898  0.00  0.00    +0.208 A 
ATOM     20  N   UNL     1       8.159  -1.331  -1.987  0.00  0.00    -0.106 NA
ATOM     21  N   UNL     1       8.803  -0.762  -2.948  0.00  0.00    -0.021 NA
ATOM     22  N   UNL     1       8.068   0.159  -3.465  0.00  0.00    -0.021 NA
ATOM     23  N   UNL     1       6.936   0.197  -2.849  0.00  0.00    -0.106 NA
ENDBRANCH   9  19
ENDBRANCH   1  12
BRANCH   4  24
ATOM     24  C   UNL     1      -0.069  -3.152   4.742  0.00  0.00    -0.043 C 
BRANCH  24  25
ATOM     25  N   UNL     1      -1.322  -3.477   4.047  0.00  0.00    +0.382 N 
ATOM     26  C   UNL     1      -1.830  -2.278   3.372  0.00  0.00    -0.078 C 
ATOM     27  C   UNL     1      -3.091  -2.630   2.579  0.00  0.00    -0.008 C 
ATOM     28  C   UNL     1      -4.157  -3.167   3.539  0.00  0.00    +0.052 C 
ATOM     29  C   UNL     1      -3.589  -4.374   4.292  0.00  0.00    -0.008 C 
ATOM     30  C   UNL     1      -2.310  -3.957   5.021  0.00  0.00    -0.078 C 
ATOM     31  H   UNL     1      -1.148  -4.198   3.363  0.00  0.00    -0.081 HD
BRANCH  28  32
ATOM     32  C   UNL     1      -5.373  -3.589   2.756  0.00  0.00    +0.111 A 
ATOM     33  N   UNL     1      -5.539  -4.804   2.168  0.00  0.00    -0.342 N 
ATOM     34  H   UNL     1      -4.906  -5.540   2.180  0.00  0.00    +0.167 HD
ATOM     35  C   UNL     1      -6.776  -4.798   1.553  0.00  0.00    +0.066 A 
ATOM     36  C   UNL     1      -7.489  -5.729   0.809  0.00  0.00    +0.030 A 
ATOM     37  C   UNL     1      -8.736  -5.406   0.319  0.00  0.00    +0.040 A 
ATOM     38  C   UNL     1      -9.286  -4.153   0.564  0.00  0.00    +0.126 A 
ATOM     39  C   UNL     1      -8.592  -3.217   1.300  0.00  0.00    +0.068 A 
ATOM     40  C   UNL     1      -7.327  -3.530   1.804  0.00  0.00    +0.092 A 
ATOM     41  N   UNL     1      -6.421  -2.845   2.548  0.00  0.00    -0.232 NA
ATOM     42  F   UNL     1     -10.509  -3.851   0.076  0.00  0.00    -0.205 F 
ENDBRANCH  28  32
ENDBRANCH  24  25
ENDBRANCH   4  24
TORSDOF 6
