REMARK  Name = CHEMBL1081425
REMARK  8 active torsions:
REMARK  status: ('A' for Active; 'I' for Inactive)
REMARK    1  A    between atoms: C_3  and  C_28
REMARK    2  A    between atoms: C_6  and  C_7
REMARK    3  A    between atoms: C_7  and  C_8
REMARK    4  A    between atoms: C_8  and  C_10
REMARK    5  A    between atoms: C_8  and  N_27
REMARK    6  A    between atoms: C_10  and  N_11
REMARK    7  A    between atoms: N_11  and  C_12
REMARK    8  A    between atoms: C_15  and  C_17
REMARK                            x       y       z     vdW  Elec       q    Type
REMARK                         _______ _______ _______ _____ _____    ______ ____
ROOT
ATOM      1  C   UNL     1      -2.991  -1.917  -1.423  0.00  0.00    +0.086 C 
ENDROOT
BRANCH   1   2
ATOM      2  N   UNL     1      -3.494  -2.062  -2.791  0.00  0.00    -0.339 N 
ATOM      3  H   UNL     1      -3.037  -1.621  -3.525  0.00  0.00    +0.147 HD
BRANCH   2   4
ATOM      4  C   UNL     1      -4.629  -2.831  -3.039  0.00  0.00    +0.086 A 
ATOM      5  C   UNL     1      -5.260  -3.103  -4.223  0.00  0.00    +0.142 A 
ATOM      6  N   UNL     1      -6.329  -3.863  -4.228  0.00  0.00    -0.245 NA
ATOM      7  C   UNL     1      -6.816  -4.376  -3.108  0.00  0.00    +0.110 A 
ATOM      8  S   UNL     1      -5.660  -3.745  -1.899  0.00  0.00    -0.053 S 
BRANCH   7   9
ATOM      9  C   UNL     1      -7.995  -5.244  -2.911  0.00  0.00    +0.008 A 
ATOM     10  C   UNL     1      -8.338  -5.673  -1.616  0.00  0.00    +0.011 A 
ATOM     11  C   UNL     1      -9.416  -6.470  -1.407  0.00  0.00    +0.010 A 
ATOM     12  C   UNL     1     -10.207  -6.877  -2.495  0.00  0.00    +0.000 A 
ATOM     13  C   UNL     1     -11.332  -7.701  -2.326  0.00  0.00    +0.119 A 
ATOM     14  N   UNL     1     -12.045  -8.058  -3.369  0.00  0.00    -0.263 NA
ATOM     15  C   UNL     1     -11.754  -7.674  -4.604  0.00  0.00    +0.111 A 
ATOM     16  C   UNL     1     -10.685  -6.876  -4.875  0.00  0.00    +0.028 A 
ATOM     17  C   UNL     1      -9.871  -6.450  -3.808  0.00  0.00    -0.014 A 
ATOM     18  C   UNL     1      -8.759  -5.624  -4.004  0.00  0.00    +0.019 A 
ENDBRANCH   7   9
ENDBRANCH   2   4
ENDBRANCH   1   2
BRANCH   1  19
ATOM     19  C   UNL     1      -1.745  -1.028  -1.429  0.00  0.00    -0.053 C 
BRANCH  19  20
ATOM     20  N   UNL     1      -2.060   0.252  -2.076  0.00  0.00    +0.381 N 
ATOM     21  H   UNL     1      -2.799   0.713  -1.567  0.00  0.00    -0.090 HD
ATOM     22  H   UNL     1      -1.238   0.838  -2.079  0.00  0.00    -0.090 HD
ATOM     23  H   UNL     1      -2.358   0.085  -3.025  0.00  0.00    -0.090 HD
ENDBRANCH  19  20
BRANCH  19  24
ATOM     24  C   UNL     1      -1.293  -0.775   0.011  0.00  0.00    +0.020 C 
BRANCH  24  30
ATOM     25  C   UNL     1      -0.017   1.378   0.010  0.00  0.00    +0.004 A 
ATOM     26  C   UNL     1       1.171   2.086   0.002  0.00  0.00    +0.012 A 
ATOM     27  C   UNL     1       2.377   1.411  -0.013  0.00  0.00    +0.055 A 
ATOM     28  C   UNL     1       2.396   0.029  -0.020  0.00  0.00    +0.012 A 
ATOM     29  C   UNL     1       1.208  -0.679  -0.012  0.00  0.00    +0.004 A 
ATOM     30  C   UNL     1       0.002  -0.004   0.002  0.00  0.00    -0.049 A 
BRANCH  27  31
ATOM     31  C   UNL     1       3.672   2.182  -0.022  0.00  0.00    +0.417 C 
ATOM     32  F   UNL     1       4.086   2.414   1.294  0.00  0.00    -0.166 F 
ATOM     33  F   UNL     1       4.651   1.442  -0.695  0.00  0.00    -0.166 F 
ATOM     34  F   UNL     1       3.482   3.405  -0.674  0.00  0.00    -0.166 F 
ENDBRANCH  27  31
ENDBRANCH  24  30
ENDBRANCH  19  24
ENDBRANCH   1  19
TORSDOF 8
