REMARK  Name = CHEMBL581848
REMARK  7 active torsions:
REMARK  status: ('A' for Active; 'I' for Inactive)
REMARK    1  A    between atoms: C_7  and  C_11
REMARK    2  A    between atoms: C_11  and  C_12
REMARK    3  A    between atoms: C_12  and  C_14
REMARK    4  A    between atoms: C_12  and  N_32
REMARK    5  A    between atoms: C_14  and  O_15
REMARK    6  A    between atoms: O_15  and  C_16
REMARK    7  A    between atoms: C_18  and  C_22
REMARK                            x       y       z     vdW  Elec       q    Type
REMARK                         _______ _______ _______ _____ _____    ______ ____
ROOT
ATOM      1  C   UNL     1      -0.614  -4.861  -1.466  0.00  0.00    +0.213 C 
ENDROOT
BRANCH   1   2
ATOM      2  C   UNL     1       0.236  -3.589  -1.455  0.00  0.00    -0.033 C 
BRANCH   2   3
ATOM      3  N   UNL     1      -0.552  -2.469  -1.986  0.00  0.00    +0.382 N 
ATOM      4  H   UNL     1       0.009  -1.630  -1.979  0.00  0.00    -0.089 HD
ATOM      5  H   UNL     1      -0.836  -2.676  -2.932  0.00  0.00    -0.089 HD
ATOM      6  H   UNL     1      -1.370  -2.331  -1.412  0.00  0.00    -0.089 HD
ENDBRANCH   2   3
BRANCH   2   7
ATOM      7  C   UNL     1       0.666  -3.275  -0.021  0.00  0.00    +0.024 C 
BRANCH   7  14
ATOM      8  C   UNL     1      -0.017   1.362   0.009  0.00  0.00    +0.001 A 
ATOM      9  C   UNL     1       1.170   2.083   0.002  0.00  0.00    +0.002 A 
ATOM     10  C   UNL     1       2.386   1.436  -0.013  0.00  0.00    +0.026 A 
ATOM     11  C   UNL     1       2.428   0.046  -0.021  0.00  0.00    +0.047 A 
ATOM     12  C   UNL     1       1.223  -0.681  -0.013  0.00  0.00    +0.003 A 
ATOM     13  C   UNL     1       0.002  -0.004   0.002  0.00  0.00    +0.010 A 
ATOM     14  C   UNL     1       1.604  -2.095  -0.025  0.00  0.00    -0.024 A 
ATOM     15  C   UNL     1       2.945  -2.141  -0.038  0.00  0.00    +0.087 A 
ATOM     16  N   UNL     1       3.455  -0.871  -0.036  0.00  0.00    -0.360 N 
ATOM     17  H   UNL     1       4.399  -0.650  -0.044  0.00  0.00    +0.165 HD
ENDBRANCH   7  14
ENDBRANCH   2   7
ENDBRANCH   1   2
BRANCH   1  18
ATOM     18  O   UNL     1      -0.919  -5.219  -2.816  0.00  0.00    -0.492 OA
BRANCH  18  19
ATOM     19  C   UNL     1      -1.673  -6.334  -3.003  0.00  0.00    +0.139 A 
ATOM     20  C   UNL     1      -2.006  -6.750  -4.286  0.00  0.00    +0.057 A 
ATOM     21  C   UNL     1      -2.783  -7.903  -4.426  0.00  0.00    +0.004 A 
ATOM     22  C   UNL     1      -3.191  -8.587  -3.281  0.00  0.00    +0.119 A 
ATOM     23  N   UNL     1      -2.852  -8.155  -2.084  0.00  0.00    -0.259 NA
ATOM     24  C   UNL     1      -2.115  -7.074  -1.915  0.00  0.00    +0.156 A 
BRANCH  21  25
ATOM     25  C   UNL     1      -3.168  -8.392  -5.771  0.00  0.00    -0.009 A 
ATOM     26  C   UNL     1      -3.727  -7.528  -6.698  0.00  0.00    +0.009 A 
ATOM     27  C   UNL     1      -4.091  -7.980  -7.961  0.00  0.00    +0.001 A 
ATOM     28  C   UNL     1      -3.909  -9.281  -8.325  0.00  0.00    +0.010 A 
ATOM     29  C   UNL     1      -3.346 -10.190  -7.417  0.00  0.00    +0.001 A 
ATOM     30  C   UNL     1      -2.964  -9.743  -6.126  0.00  0.00    -0.007 A 
ATOM     31  C   UNL     1      -2.398 -10.673  -5.240  0.00  0.00    +0.029 A 
ATOM     32  C   UNL     1      -2.235 -11.960  -5.657  0.00  0.00    +0.111 A 
ATOM     33  N   UNL     1      -2.594 -12.352  -6.872  0.00  0.00    -0.263 NA
ATOM     34  C   UNL     1      -3.139 -11.540  -7.747  0.00  0.00    +0.119 A 
ENDBRANCH  21  25
ENDBRANCH  18  19
ENDBRANCH   1  18
TORSDOF 7
