REMARK  Name = CHEMBL206819
REMARK  7 active torsions:
REMARK  status: ('A' for Active; 'I' for Inactive)
REMARK    1  A    between atoms: C_7  and  C_11
REMARK    2  A    between atoms: C_11  and  C_12
REMARK    3  A    between atoms: C_12  and  C_14
REMARK    4  A    between atoms: C_12  and  N_32
REMARK    5  A    between atoms: C_14  and  O_15
REMARK    6  A    between atoms: O_15  and  C_16
REMARK    7  A    between atoms: C_20  and  C_26
REMARK                            x       y       z     vdW  Elec       q    Type
REMARK                         _______ _______ _______ _____ _____    ______ ____
ROOT
ATOM      1  C   UNL     1      -0.614  -4.861  -1.466  0.00  0.00    +0.213 C 
ENDROOT
BRANCH   1   2
ATOM      2  C   UNL     1       0.236  -3.589  -1.455  0.00  0.00    -0.033 C 
BRANCH   2   3
ATOM      3  N   UNL     1      -0.552  -2.469  -1.986  0.00  0.00    +0.382 N 
ATOM      4  H   UNL     1      -0.836  -2.676  -2.932  0.00  0.00    -0.089 HD
ATOM      5  H   UNL     1      -1.370  -2.331  -1.412  0.00  0.00    -0.089 HD
ATOM      6  H   UNL     1       0.009  -1.630  -1.979  0.00  0.00    -0.089 HD
ENDBRANCH   2   3
BRANCH   2   7
ATOM      7  C   UNL     1       0.666  -3.275  -0.021  0.00  0.00    +0.024 C 
BRANCH   7  14
ATOM      8  C   UNL     1      -0.017   1.362   0.009  0.00  0.00    +0.001 A 
ATOM      9  C   UNL     1       1.170   2.083   0.002  0.00  0.00    +0.002 A 
ATOM     10  C   UNL     1       2.386   1.436  -0.013  0.00  0.00    +0.026 A 
ATOM     11  C   UNL     1       2.428   0.046  -0.021  0.00  0.00    +0.047 A 
ATOM     12  C   UNL     1       1.223  -0.681  -0.013  0.00  0.00    +0.003 A 
ATOM     13  C   UNL     1       0.002  -0.004   0.002  0.00  0.00    +0.010 A 
ATOM     14  C   UNL     1       1.604  -2.095  -0.025  0.00  0.00    -0.024 A 
ATOM     15  C   UNL     1       2.945  -2.141  -0.038  0.00  0.00    +0.087 A 
ATOM     16  N   UNL     1       3.455  -0.871  -0.036  0.00  0.00    -0.360 N 
ATOM     17  H   UNL     1       4.399  -0.650  -0.044  0.00  0.00    +0.165 HD
ENDBRANCH   7  14
ENDBRANCH   2   7
ENDBRANCH   1   2
BRANCH   1  18
ATOM     18  O   UNL     1      -0.919  -5.219  -2.816  0.00  0.00    -0.492 OA
BRANCH  18  19
ATOM     19  C   UNL     1      -1.673  -6.334  -3.003  0.00  0.00    +0.139 A 
ATOM     20  C   UNL     1      -1.998  -6.739  -4.271  0.00  0.00    +0.057 A 
ATOM     21  C   UNL     1      -2.780  -7.900  -4.417  0.00  0.00    +0.004 A 
ATOM     22  C   UNL     1      -3.150  -8.372  -5.686  0.00  0.00    +0.018 A 
ATOM     23  C   UNL     1      -3.919  -9.516  -5.787  0.00  0.00    -0.017 A 
ATOM     24  C   UNL     1      -4.329 -10.203  -4.632  0.00  0.00    +0.010 A 
ATOM     25  C   UNL     1      -3.981  -9.760  -3.396  0.00  0.00    +0.029 A 
ATOM     26  C   UNL     1      -3.199  -8.599  -3.257  0.00  0.00    +0.071 A 
ATOM     27  N   UNL     1      -2.848  -8.152  -2.047  0.00  0.00    -0.251 NA
ATOM     28  C   UNL     1      -2.115  -7.075  -1.903  0.00  0.00    +0.157 A 
BRANCH  23  29
ATOM     29  C   UNL     1      -4.314 -10.022  -7.124  0.00  0.00    -0.015 A 
ATOM     30  C   UNL     1      -3.915  -9.361  -8.289  0.00  0.00    +0.028 A 
ATOM     31  C   UNL     1      -4.305  -9.865  -9.512  0.00  0.00    +0.111 A 
ATOM     32  N   UNL     1      -5.044 -10.956  -9.591  0.00  0.00    -0.263 NA
ATOM     33  C   UNL     1      -5.442 -11.610  -8.516  0.00  0.00    +0.111 A 
ATOM     34  C   UNL     1      -5.092 -11.177  -7.253  0.00  0.00    +0.028 A 
ENDBRANCH  23  29
ENDBRANCH  18  19
ENDBRANCH   1  18
TORSDOF 7
