REMARK  4 active torsions:
REMARK  status: ('A' for Active; 'I' for Inactive)
REMARK    1  A    between atoms: C18_1  and  N4_2 
REMARK    2  A    between atoms: C12_5  and  C1_18 
REMARK    3  A    between atoms: C6_17  and  C2_21 
REMARK    4  A    between atoms: N27_30  and  O28_32 
ROOT
HETATM    1  N4  SM5 A   1      86.167   7.295  -7.637  1.00 46.28    -0.318 N 
HETATM    2  N3  SM5 A   1      85.721   8.580  -8.012  1.00 43.29    -0.301 N 
ATOM      3  H3  SM5 A   1      86.271   9.392  -8.293  1.00  0.00     0.187 HD
HETATM    4  C5  SM5 A   1      85.143   6.404  -7.306  1.00 46.52     0.184 A 
HETATM    5  C1  SM5 A   1      83.734   7.164  -7.461  1.00 44.21    -0.004 A 
HETATM    6  C2  SM5 A   1      84.057   8.433  -7.878  1.00 43.82     0.063 A 
ENDROOT
BRANCH   5   7
HETATM    7  C12 SM5 A   1      82.544   6.422  -7.184  1.00 44.26    -0.044 A 
HETATM    8  C17 SM5 A   1      81.194   6.488  -7.952  1.00 46.48     0.074 A 
HETATM    9  C16 SM5 A   1      80.159   5.586  -7.535  1.00 47.41    -0.063 A 
HETATM   10  C24 SM5 A   1      78.745   5.356  -8.039  1.00 48.11     0.041 A 
HETATM   11  C15 SM5 A   1      80.438   4.684  -6.441  1.00 48.17    -0.009 A 
HETATM   12  C25 SM5 A   1      78.178   4.123  -7.048  1.00 46.47     0.064 A 
HETATM   13  C26 SM5 A   1      79.362   3.842  -6.114  1.00 49.87     0.042 A 
HETATM   14  N27 SM5 A   1      79.441   3.046  -5.183  1.00 51.55    -0.273 N 
ATOM     15  H27 SM5 A   1      80.269   2.912  -4.602  1.00  0.00     0.194 HD
HETATM   16  C14 SM5 A   1      81.653   4.649  -5.764  1.00 43.46     0.014 A 
HETATM   17  C13 SM5 A   1      82.700   5.510  -6.141  1.00 43.69     0.009 A 
BRANCH  14  18
HETATM   18  O28 SM5 A   1      78.230   2.344  -5.028  1.00 56.53    -0.290 OA
ATOM     19  H28 SM5 A   1      78.291   1.728  -4.307  1.00  0.00     0.244 HD
ENDBRANCH  14  18
ENDBRANCH   5   7
BRANCH   6  20
HETATM   20  C6  SM5 A   1      83.212   9.405  -8.144  1.00 44.08    -0.023 A 
HETATM   21  C11 SM5 A   1      81.833   9.324  -7.586  1.00 43.89     0.085 A 
HETATM   22  C10 SM5 A   1      80.914  10.389  -7.865  1.00 45.80     0.065 A 
HETATM   23  N9  SM5 A   1      81.227  11.493  -8.619  1.00 46.93    -0.379 N 
HETATM   24  C8  SM5 A   1      82.503  11.555  -9.134  1.00 46.77     0.088 A 
ATOM     25  H9  SM5 A   1      80.546  12.233  -8.790  1.00  0.00     0.164 HD
HETATM   26  C7  SM5 A   1      83.576  10.479  -8.910  1.00 44.54     0.027 A 
ENDBRANCH   6  20
BRANCH   1  27
HETATM   27  C18 SM5 A   1      87.586   6.922  -7.593  1.00 43.29     0.105 C 
HETATM   28  C19 SM5 A   1      87.774   5.460  -8.012  1.00 43.46     0.046 C 
HETATM   29  C20 SM5 A   1      89.232   4.946  -7.725  1.00 41.54     0.115 C 
HETATM   30  N21 SM5 A   1      90.210   5.955  -8.209  1.00 44.88    -0.421 N 
HETATM   31  C22 SM5 A   1      89.870   7.405  -7.860  1.00 45.43     0.115 C 
ATOM     32  H21 SM5 A   1      91.046   5.700  -8.735  1.00  0.00     0.153 HD
HETATM   33  C23 SM5 A   1      88.415   7.728  -8.282  1.00 43.28     0.046 C 
ENDBRANCH   1  27
TORSDOF 4
