REMARK  1 active torsions:
REMARK  status: ('A' for Active; 'I' for Inactive)
REMARK    1  A    between atoms: C3_3  and  C12_8 
ROOT
HETATM    1  C12 L8I A   1      37.513   5.277  13.769  1.00 25.53     0.046 A 
HETATM    2  N13 L8I A   1      38.582   5.604  13.020  1.00 23.62    -0.365 N 
ATOM      3  H13 L8I A   1      38.564   5.411  12.019  1.00  0.00     0.165 HD
HETATM    4  C14 L8I A   1      39.667   6.175  13.552  1.00 26.47     0.096 A 
HETATM    5  C16 L8I A   1      39.714   6.453  14.918  1.00 25.66    -0.030 A 
HETATM    6  C17 L8I A   1      38.612   6.118  15.706  1.00 21.61     0.001 A 
HETATM    7  C18 L8I A   1      37.480   5.544  15.140  1.00 23.46     0.044 A 
HETATM    8  C20 L8I A   1      38.680   6.431  17.155  1.00 18.94     0.051 A 
HETATM    9  N21 L8I A   1      37.917   6.022  18.117  1.00 20.34    -0.357 N 
ATOM     10  H21 L8I A   1      37.127   5.388  17.997  1.00  0.00     0.166 HD
HETATM   11  C23 L8I A   1      38.293   6.531  19.268  1.00 30.02     0.040 A 
HETATM   12  C24 L8I A   1      39.369   7.324  19.081  1.00 24.37     0.064 A 
HETATM   13  C25 L8I A   1      39.618   7.252  17.636  1.00 23.04    -0.013 A 
HETATM   14  C26 L8I A   1      40.659   7.936  16.800  1.00 20.31     0.047 C 
HETATM   15  C29 L8I A   1      40.967   7.094  15.533  1.00 23.88     0.045 C 
HETATM   16  C32 L8I A   1      40.007   8.083  20.168  1.00 26.73     0.254 C 
HETATM   17  N33 L8I A   1      39.413   8.079  21.376  1.00 31.52    -0.356 N 
ATOM     18  H33 L8I A   1      39.847   8.616  22.127  1.00  0.00     0.162 HD
HETATM   19  C35 L8I A   1      38.182   7.349  21.674  1.00 31.63     0.142 C 
HETATM   20  C38 L8I A   1      37.702   6.302  20.639  1.00 32.93     0.072 C 
HETATM   21  C39 L8I A   1      37.985   4.839  21.054  1.00 40.58     0.291 C 
HETATM   22  N42 L8I A   1      36.571   4.678  21.464  1.00 43.85     0.086 N 
HETATM   23  C43 L8I A   1      36.204   5.981  20.830  1.00 36.81     0.291 C 
HETATM   24  C46 L8I A   1      36.346   4.523  22.932  1.00 46.27     0.310 C 
HETATM   25  O50 L8I A   1      41.014   8.755  19.985  1.00 26.18    -0.268 OA
ENDROOT
BRANCH   1  26
HETATM   26  C3  L8I A   1      36.370   4.690  13.054  1.00 24.01     0.029 A 
HETATM   27  C2  L8I A   1      35.468   3.825  13.674  1.00 28.37     0.128 A 
HETATM   28  F1  L8I A   1      35.606   3.456  14.952  1.00 32.43    -0.205 F 
HETATM   29  C10 L8I A   1      34.392   3.318  12.955  1.00 26.20     0.043 A 
HETATM   30  C8  L8I A   1      34.231   3.672  11.626  1.00 26.79     0.003 A 
HETATM   31  C6  L8I A   1      35.128   4.551  11.011  1.00 32.11     0.001 A 
HETATM   32  C4  L8I A   1      36.208   5.054  11.728  1.00 28.65     0.017 A 
ENDBRANCH   1  26
TORSDOF 1
