REMARK  Name = CHEMBL492809
REMARK  7 active torsions:
REMARK  status: ('A' for Active; 'I' for Inactive)
REMARK    1  A    between atoms: C_1  and  N_2
REMARK    2  A    between atoms: C_5  and  C_8
REMARK    3  A    between atoms: C_11  and  N_14
REMARK    4  A    between atoms: C_21  and  C_35
REMARK    5  A    between atoms: N_23  and  C_26
REMARK    6  A    between atoms: N_37  and  O_38
REMARK    7  A    between atoms: O_38  and  C_39
REMARK                            x       y       z     vdW  Elec       q    Type
REMARK                         _______ _______ _______ _____ _____    ______ ____
ROOT
ATOM      1  N   UNL     1      -0.488  -8.237   0.287  0.00  0.00    -0.284 N 
ATOM      2  C   UNL     1      -0.884  -8.983   1.380  0.00  0.00    +0.221 A 
ATOM      3  N   UNL     1      -1.470  -8.363   2.398  0.00  0.00    -0.222 NA
ATOM      4  C   UNL     1      -1.867  -9.032   3.466  0.00  0.00    +0.129 A 
ATOM      5  C   UNL     1      -1.657 -10.412   3.502  0.00  0.00    +0.083 A 
ATOM      6  C   UNL     1      -2.067 -11.233   4.650  0.00  0.00    +0.205 A 
ATOM      7  O   UNL     1      -2.612 -10.741   5.623  0.00  0.00    -0.286 OA
ATOM      8  C   UNL     1      -1.792 -12.679   4.572  0.00  0.00    +0.102 A 
ATOM      9  C   UNL     1      -1.174 -13.179   3.447  0.00  0.00    +0.110 A 
ATOM     10  N   UNL     1      -0.813 -12.394   2.416  0.00  0.00    -0.300 N 
ATOM     11  C   UNL     1      -1.032 -11.039   2.406  0.00  0.00    +0.154 A 
ATOM     12  N   UNL     1      -0.669 -10.289   1.370  0.00  0.00    -0.196 NA
ATOM     13  H   UNL     1      -0.130  -8.679  -0.499  0.00  0.00    +0.155 HD
ENDROOT
BRANCH  10  14
ATOM     14  C   UNL     1      -0.190 -12.983   1.310  0.00  0.00    +0.048 A 
ATOM     15  C   UNL     1      -0.846 -13.967   0.582  0.00  0.00    +0.026 A 
ATOM     16  C   UNL     1      -0.227 -14.544  -0.508  0.00  0.00    +0.006 A 
ATOM     17  C   UNL     1       1.047 -14.145  -0.880  0.00  0.00    -0.044 A 
ATOM     18  C   UNL     1       1.703 -13.165  -0.158  0.00  0.00    -0.042 A 
ATOM     19  C   UNL     1       1.083 -12.580   0.933  0.00  0.00    +0.030 A 
ATOM     20  C   UNL     1       3.068 -12.912  -0.762  0.00  0.00    +0.036 C 
ATOM     21  C   UNL     1       3.349 -14.139  -1.654  0.00  0.00    +0.009 C 
ATOM     22  C   UNL     1       1.927 -14.617  -2.018  0.00  0.00    +0.036 C 
ENDBRANCH  10  14
BRANCH   1  26
ATOM     23  C   UNL     1      -0.832  -4.087   0.362  0.00  0.00    -0.044 A 
ATOM     24  C   UNL     1      -0.536  -4.776   1.524  0.00  0.00    +0.006 A 
ATOM     25  C   UNL     1      -0.421  -6.152   1.503  0.00  0.00    +0.023 A 
ATOM     26  C   UNL     1      -0.604  -6.844   0.312  0.00  0.00    +0.034 A 
ATOM     27  C   UNL     1      -0.901  -6.148  -0.853  0.00  0.00    +0.023 A 
ATOM     28  C   UNL     1      -1.019  -4.773  -0.823  0.00  0.00    +0.006 A 
BRANCH  23  33
ATOM     29  C   UNL     1      -0.939   1.329   2.075  0.00  0.00    -0.096 C 
ATOM     30  N   UNL     1      -0.845  -0.129   1.922  0.00  0.00    +0.378 N 
ATOM     31  C   UNL     1       0.210  -0.451   0.954  0.00  0.00    -0.079 C 
ATOM     32  C   UNL     1       0.368  -1.970   0.852  0.00  0.00    -0.011 C 
ATOM     33  C   UNL     1      -0.956  -2.585   0.390  0.00  0.00    +0.016 C 
ATOM     34  C   UNL     1      -2.064  -2.181   1.367  0.00  0.00    -0.011 C 
ATOM     35  C   UNL     1      -2.131  -0.654   1.450  0.00  0.00    -0.079 C 
ATOM     36  H   UNL     1      -0.619  -0.545   2.813  0.00  0.00    -0.082 HD
ENDBRANCH  23  33
ENDBRANCH   1  26
BRANCH   8  37
ATOM     37  C   UNL     1      -2.170 -13.573   5.678  0.00  0.00    +0.272 C 
ATOM     38  O   UNL     1      -1.845 -14.745   5.650  0.00  0.00    -0.268 OA
ATOM     39  N   UNL     1      -2.876 -13.093   6.721  0.00  0.00    -0.191 N 
ATOM     40  H   UNL     1      -3.202 -12.180   6.707  0.00  0.00    +0.183 HD
BRANCH  39  41
ATOM     41  O   UNL     1      -3.140 -13.922   7.838  0.00  0.00    -0.283 OA
ATOM     42  C   UNL     1      -3.897 -13.285   8.869  0.00  0.00    +0.226 C 
ENDBRANCH  39  41
ENDBRANCH   8  37
TORSDOF 5
