REMARK  Name = CHEMBL247797
REMARK  9 active torsions:
REMARK  status: ('A' for Active; 'I' for Inactive)
REMARK    1  A    between atoms: C_1  and  N_2
REMARK    2  A    between atoms: C_9  and  C_12
REMARK    3  A    between atoms: C_12  and  N_13
REMARK    4  A    between atoms: N_13  and  C_14
REMARK    5  A    between atoms: C_15  and  C_20
REMARK    6  A    between atoms: N_18  and  C_19
REMARK    7  A    between atoms: N_22  and  C_23
REMARK    8  A    between atoms: C_26  and  S_29
REMARK    9  A    between atoms: S_29  and  C_30
REMARK                            x       y       z     vdW  Elec       q    Type
REMARK                         _______ _______ _______ _____ _____    ______ ____
ROOT
ATOM      1  C   UNL     1       5.670  -5.613  -5.420  0.00  0.00    +0.127 A 
ATOM      2  C   UNL     1       7.023  -5.859  -5.199  0.00  0.00    +0.094 A 
ATOM      3  C   UNL     1       7.475  -6.669  -6.268  0.00  0.00    +0.118 A 
ATOM      4  N   UNL     1       6.468  -6.890  -7.065  0.00  0.00    -0.303 N 
ATOM      5  N   UNL     1       5.332  -6.250  -6.559  0.00  0.00    -0.276 N 
ATOM      6  C   UNL     1       3.999  -6.267  -7.167  0.00  0.00    +0.172 C 
ATOM      7  H   UNL     1       6.501  -7.417  -7.878  0.00  0.00    +0.186 HD
ENDROOT
BRANCH   2   8
ATOM      8  C   UNL     1       7.828  -5.370  -4.073  0.00  0.00    +0.253 C 
ATOM      9  O   UNL     1       7.315  -4.676  -3.215  0.00  0.00    -0.270 OA
ATOM     10  N   UNL     1       9.134  -5.690  -3.989  0.00  0.00    -0.281 N 
ATOM     11  H   UNL     1       9.555  -6.200  -4.699  0.00  0.00    +0.155 HD
BRANCH  10  12
ATOM     12  C   UNL     1       9.884  -5.286  -2.877  0.00  0.00    +0.034 A 
ATOM     13  C   UNL     1      11.237  -5.005  -3.017  0.00  0.00    +0.024 A 
ATOM     14  C   UNL     1      11.976  -4.607  -1.921  0.00  0.00    +0.017 A 
ATOM     15  C   UNL     1      11.367  -4.488  -0.678  0.00  0.00    +0.016 A 
ATOM     16  C   UNL     1      10.014  -4.769  -0.539  0.00  0.00    +0.017 A 
ATOM     17  C   UNL     1       9.274  -5.162  -1.636  0.00  0.00    +0.024 A 
BRANCH  15  18
ATOM     18  S   UNL     1      12.311  -3.980   0.721  0.00  0.00    -0.016 S 
BRANCH  18  19
ATOM     19  C   UNL     1      11.110  -3.972   2.080  0.00  0.00    +0.448 C 
ATOM     20  F   UNL     1      10.578  -5.256   2.240  0.00  0.00    -0.160 F 
ATOM     21  F   UNL     1      11.747  -3.580   3.263  0.00  0.00    -0.160 F 
ATOM     22  F   UNL     1      10.079  -3.074   1.786  0.00  0.00    -0.160 F 
ENDBRANCH  18  19
ENDBRANCH  15  18
ENDBRANCH  10  12
ENDBRANCH   2   8
BRANCH   1  23
ATOM     23  N   UNL     1       4.832  -4.863  -4.620  0.00  0.00    -0.325 N 
ATOM     24  H   UNL     1       5.189  -4.390  -3.853  0.00  0.00    +0.148 HD
BRANCH  23  25
ATOM     25  C   UNL     1       3.402  -4.783  -4.929  0.00  0.00    +0.139 C 
BRANCH  25  34
ATOM     26  C   UNL     1      -0.430  -1.325   2.067  0.00  0.00    +0.129 C 
ATOM     27  N   UNL     1       0.002  -0.830   0.757  0.00  0.00    -0.302 N 
ATOM     28  C   UNL     1       0.511  -1.685  -0.152  0.00  0.00    +0.305 C 
ATOM     29  O   UNL     1       0.612  -2.867   0.114  0.00  0.00    -0.252 OA
ATOM     30  N   UNL     1       0.907  -1.229  -1.357  0.00  0.00    -0.254 N 
ATOM     31  C   UNL     1       1.530  -2.092  -2.258  0.00  0.00    +0.126 A 
ATOM     32  C   UNL     1       2.035  -1.593  -3.454  0.00  0.00    +0.044 A 
ATOM     33  C   UNL     1       2.650  -2.460  -4.338  0.00  0.00    +0.010 A 
ATOM     34  C   UNL     1       2.740  -3.802  -3.996  0.00  0.00    -0.012 A 
ATOM     35  C   UNL     1       2.217  -4.229  -2.792  0.00  0.00    +0.118 A 
ATOM     36  N   UNL     1       1.640  -3.378  -1.965  0.00  0.00    -0.240 NA
ATOM     37  H   UNL     1      -0.079   0.113   0.544  0.00  0.00    +0.150 HD
ATOM     38  H   UNL     1       0.760  -0.301  -1.598  0.00  0.00    +0.158 HD
ENDBRANCH  25  34
ENDBRANCH  23  25
ENDBRANCH   1  23
TORSDOF 7
