REMARK  Name = CHEMBL212084
REMARK  3 active torsions:
REMARK  status: ('A' for Active; 'I' for Inactive)
REMARK    1  A    between atoms: C_6  and  C_7
REMARK    2  A    between atoms: C_7  and  N_8
REMARK    3  A    between atoms: C_15  and  C_19
REMARK                            x       y       z     vdW  Elec       q    Type
REMARK                         _______ _______ _______ _____ _____    ______ ____
ROOT
ATOM      1  C   UNL     1      -0.017   1.379   0.010  0.00  0.00    +0.006 A 
ATOM      2  C   UNL     1       1.171   2.090   0.002  0.00  0.00    +0.005 A 
ATOM      3  C   UNL     1       2.374   1.420  -0.013  0.00  0.00    -0.034 A 
ATOM      4  C   UNL     1       2.405   0.026  -0.021  0.00  0.00    +0.004 A 
ATOM      5  C   UNL     1       1.202  -0.684  -0.013  0.00  0.00    +0.015 A 
ATOM      6  C   UNL     1       0.002  -0.004   0.002  0.00  0.00    -0.027 A 
ATOM      7  C   UNL     1       3.812  -0.431  -0.037  0.00  0.00    +0.070 A 
ATOM      8  C   UNL     1       4.652   0.641  -0.039  0.00  0.00    +0.010 A 
ATOM      9  C   UNL     1       5.971   0.162  -0.054  0.00  0.00    +0.097 A 
ATOM     10  N   UNL     1       5.931  -1.154  -0.060  0.00  0.00    -0.173 NA
ATOM     11  N   UNL     1       4.589  -1.556  -0.050  0.00  0.00    -0.276 N 
ATOM     12  H   UNL     1       4.268  -2.471  -0.051  0.00  0.00    +0.189 HD
ATOM     13  C   UNL     1       3.807   1.893  -0.024  0.00  0.00    +0.075 C 
ENDROOT
BRANCH   9  14
ATOM     14  C   UNL     1       7.200   0.995  -0.062  0.00  0.00    +0.009 A 
ATOM     15  C   UNL     1       8.347   0.578   0.607  0.00  0.00    +0.017 A 
ATOM     16  C   UNL     1       9.447   1.364   0.577  0.00  0.00    +0.046 A 
ATOM     17  S   UNL     1       8.897   2.744  -0.412  0.00  0.00    -0.104 S 
ATOM     18  C   UNL     1       7.232   2.186  -0.731  0.00  0.00    +0.055 A 
ENDBRANCH   9  14
BRANCH   6  19
ATOM     19  C   UNL     1      -1.295  -0.772   0.010  0.00  0.00    +0.157 C 
BRANCH  19  20
ATOM     20  N   UNL     1      -1.728  -1.013  -1.368  0.00  0.00    -0.332 N 
ATOM     21  C   UNL     1      -2.525  -0.196  -2.124  0.00  0.00    +0.107 A 
ATOM     22  C   UNL     1      -2.672  -0.794  -3.322  0.00  0.00    +0.130 A 
ATOM     23  N   UNL     1      -1.983  -1.945  -3.298  0.00  0.00    -0.244 NA
ATOM     24  C   UNL     1      -1.411  -2.080  -2.133  0.00  0.00    +0.199 A 
ENDBRANCH  19  20
ENDBRANCH   6  19
TORSDOF 3
