REMARK  Name = CHEMBL511337
REMARK  3 active torsions:
REMARK  status: ('A' for Active; 'I' for Inactive)
REMARK    1  A    between atoms: C_6  and  C_7
REMARK    2  A    between atoms: N_13  and  C_14
REMARK    3  A    between atoms: C_17  and  C_20
REMARK                            x       y       z     vdW  Elec       q    Type
REMARK                         _______ _______ _______ _____ _____    ______ ____
ROOT
ATOM      1  C   UNL     1      -1.301  -0.769  -0.387  0.00  0.00    +0.068 A 
ATOM      2  C   UNL     1      -1.425  -2.128  -0.334  0.00  0.00    +0.073 A 
ATOM      3  C   UNL     1      -2.774  -2.426  -0.101  0.00  0.00    +0.145 A 
ATOM      4  N   UNL     1      -3.440  -1.297  -0.018  0.00  0.00    -0.158 NA
ATOM      5  N   UNL     1      -2.540  -0.237  -0.187  0.00  0.00    -0.275 N 
ATOM      6  H   UNL     1      -2.760   0.707  -0.169  0.00  0.00    +0.189 HD
ATOM      7  N   UNL     1      -3.320  -3.709   0.021  0.00  0.00    -0.298 N 
ATOM      8  H   UNL     1      -2.738  -4.486   0.025  0.00  0.00    +0.154 HD
ENDROOT
BRANCH   1  14
ATOM      9  C   UNL     1      -0.070   1.382  -0.639  0.00  0.00    +0.013 A 
ATOM     10  C   UNL     1       1.099   2.083  -0.852  0.00  0.00    +0.039 A 
ATOM     11  C   UNL     1       2.292   1.404  -1.040  0.00  0.00    +0.123 A 
ATOM     12  C   UNL     1       2.318   0.019  -1.017  0.00  0.00    +0.039 A 
ATOM     13  C   UNL     1       1.154  -0.691  -0.805  0.00  0.00    +0.013 A 
ATOM     14  C   UNL     1      -0.050  -0.013  -0.615  0.00  0.00    +0.000 A 
ATOM     15  F   UNL     1       3.434   2.095  -1.248  0.00  0.00    -0.205 F 
ENDBRANCH   1  14
BRANCH   7  16
ATOM     16  C   UNL     1      -4.696  -3.872   0.135  0.00  0.00    +0.032 A 
ATOM     17  C   UNL     1      -5.556  -2.950  -0.456  0.00  0.00    +0.024 A 
ATOM     18  C   UNL     1      -6.918  -3.108  -0.344  0.00  0.00    +0.015 A 
ATOM     19  C   UNL     1      -7.439  -4.195   0.364  0.00  0.00    +0.037 A 
ATOM     20  C   UNL     1      -6.573  -5.119   0.956  0.00  0.00    +0.015 A 
ATOM     21  C   UNL     1      -5.212  -4.959   0.836  0.00  0.00    +0.024 A 
BRANCH  19  22
ATOM     22  C   UNL     1      -8.899  -4.367   0.486  0.00  0.00    +0.242 C 
ATOM     23  O   UNL     1      -9.651  -3.562  -0.029  0.00  0.00    -0.270 OA
ATOM     24  N   UNL     1      -9.399  -5.415   1.169  0.00  0.00    -0.325 N 
ATOM     25  H   UNL     1      -8.800  -6.057   1.580  0.00  0.00    +0.145 HD
ATOM     26  H   UNL     1     -10.359  -5.528   1.249  0.00  0.00    +0.145 HD
ENDBRANCH  19  22
ENDBRANCH   7  16
TORSDOF 3
