REMARK  Name = CHEMBL425935
REMARK  10 active torsions:
REMARK  status: ('A' for Active; 'I' for Inactive)
REMARK    1  A    between atoms: C_1  and  O_2
REMARK    2  A    between atoms: O_2  and  C_3
REMARK    3  A    between atoms: C_6  and  O_15
REMARK    4  A    between atoms: C_12  and  O_13
REMARK    5  A    between atoms: O_13  and  C_14
REMARK    6  A    between atoms: O_15  and  C_16
REMARK    7  A    between atoms: C_19  and  N_22
REMARK    8  A    between atoms: N_25  and  C_26
REMARK    9  A    between atoms: C_26  and  C_27
REMARK   10  A    between atoms: C_27  and  C_28
REMARK                            x       y       z     vdW  Elec       q    Type
REMARK                         _______ _______ _______ _____ _____    ______ ____
ROOT
ATOM      1  C   UNL     1       2.966   2.378  -5.114  0.00  0.00    +0.129 A 
ATOM      2  C   UNL     1       3.550   1.768  -6.215  0.00  0.00    +0.048 A 
ATOM      3  C   UNL     1       4.135   2.537  -7.202  0.00  0.00    +0.027 A 
ATOM      4  C   UNL     1       4.137   3.921  -7.093  0.00  0.00    +0.035 A 
ATOM      5  C   UNL     1       3.552   4.531  -5.991  0.00  0.00    +0.027 A 
ATOM      6  C   UNL     1       2.963   3.761  -5.007  0.00  0.00    +0.048 A 
ENDROOT
BRANCH   4   7
ATOM      7  N   UNL     1       4.730   4.702  -8.094  0.00  0.00    -0.269 N 
ATOM      8  C   UNL     1       4.661   4.312  -9.382  0.00  0.00    +0.304 C 
ATOM      9  O   UNL     1       4.154   3.245  -9.668  0.00  0.00    -0.253 OA
ATOM     10  N   UNL     1       5.153   5.106 -10.353  0.00  0.00    -0.299 N 
ATOM     11  H   UNL     1       5.191   5.522  -7.859  0.00  0.00    +0.156 HD
ATOM     12  H   UNL     1       5.557   5.958 -10.125  0.00  0.00    +0.150 HD
BRANCH  10  13
ATOM     13  C   UNL     1       5.077   4.683 -11.754  0.00  0.00    +0.106 C 
BRANCH  13  14
ATOM     14  C   UNL     1       5.702   5.758 -12.646  0.00  0.00    +0.022 C 
BRANCH  14  15
ATOM     15  C   UNL     1       5.622   5.316 -14.109  0.00  0.00    -0.010 C 
ATOM     16  C   UNL     1       6.485   4.069 -14.312  0.00  0.00    +0.003 C 
ATOM     17  C   UNL     1       6.406   3.627 -15.775  0.00  0.00    +0.000 C 
ATOM     18  C   UNL     1       6.916   4.753 -16.676  0.00  0.00    +0.000 C 
ATOM     19  C   UNL     1       6.053   6.000 -16.473  0.00  0.00    +0.000 C 
ATOM     20  C   UNL     1       6.133   6.442 -15.010  0.00  0.00    +0.003 C 
ENDBRANCH  14  15
ENDBRANCH  13  14
ENDBRANCH  10  13
ENDBRANCH   4   7
BRANCH   1  21
ATOM     21  O   UNL     1       2.390   1.621  -4.143  0.00  0.00    -0.455 OA
BRANCH  21  25
ATOM     22  C   UNL     1       0.819  -0.526  -0.888  0.00  0.00    +0.162 A 
ATOM     23  C   UNL     1       1.294   0.180  -1.955  0.00  0.00    +0.063 A 
ATOM     24  C   UNL     1       2.677   0.252  -2.180  0.00  0.00    +0.044 A 
ATOM     25  C   UNL     1       3.205   0.974  -3.273  0.00  0.00    +0.139 A 
ATOM     26  C   UNL     1       4.580   1.000  -3.430  0.00  0.00    +0.064 A 
ATOM     27  C   UNL     1       5.389   0.328  -2.523  0.00  0.00    +0.086 A 
ATOM     28  N   UNL     1       4.888  -0.340  -1.511  0.00  0.00    -0.360 N 
ATOM     29  C   UNL     1       3.568  -0.407  -1.299  0.00  0.00    +0.054 A 
ATOM     30  C   UNL     1       3.049  -1.126  -0.210  0.00  0.00    +0.075 A 
ATOM     31  C   UNL     1       1.699  -1.175  -0.011  0.00  0.00    +0.163 A 
ATOM     32  H   UNL     1       5.489  -0.796  -0.901  0.00  0.00    +0.165 HD
BRANCH  22  34
ATOM     33  C   UNL     1      -1.367   0.086  -1.599  0.00  0.00    +0.277 C 
ATOM     34  O   UNL     1      -0.522  -0.596  -0.670  0.00  0.00    -0.491 OA
ENDBRANCH  22  34
BRANCH  31  35
ATOM     35  O   UNL     1       1.202  -1.867   1.048  0.00  0.00    -0.491 OA
ATOM     36  C   UNL     1       2.148  -2.507   1.907  0.00  0.00    +0.277 C 
ENDBRANCH  31  35
ENDBRANCH  21  25
ENDBRANCH   1  21
TORSDOF 8
