REMARK  Name = CHEMBL564829
REMARK  8 active torsions:
REMARK  status: ('A' for Active; 'I' for Inactive)
REMARK    1  A    between atoms: C_1  and  C_2
REMARK    2  A    between atoms: C_2  and  C_34
REMARK    3  A    between atoms: C_12  and  C_16
REMARK    4  A    between atoms: N_14  and  C_15
REMARK    5  A    between atoms: N_18  and  C_19
REMARK    6  A    between atoms: N_20  and  C_21
REMARK    7  A    between atoms: C_24  and  N_27
REMARK    8  A    between atoms: N_30  and  C_33
REMARK                            x       y       z     vdW  Elec       q    Type
REMARK                         _______ _______ _______ _____ _____    ______ ____
ROOT
ATOM      1  C   UNL     1      -0.715   1.062   2.305  0.00  0.00    +0.016 C 
ATOM      2  C   UNL     1      -0.575  -0.413   1.921  0.00  0.00    -0.001 C 
ATOM      3  C   UNL     1      -0.318  -0.524   0.417  0.00  0.00    +0.050 C 
ATOM      4  C   UNL     1       0.168  -1.887   0.019  0.00  0.00    -0.001 A 
ATOM      5  C   UNL     1      -0.196  -2.442  -1.194  0.00  0.00    +0.120 A 
ATOM      6  N   UNL     1       0.273  -3.636  -1.522  0.00  0.00    -0.222 NA
ATOM      7  C   UNL     1       1.085  -4.306  -0.716  0.00  0.00    +0.220 A 
ATOM      8  N   UNL     1       1.453  -3.818   0.461  0.00  0.00    -0.212 NA
ATOM      9  C   UNL     1       1.006  -2.636   0.858  0.00  0.00    +0.097 A 
ATOM     10  C   UNL     1       1.313  -2.071   2.184  0.00  0.00    +0.092 A 
ATOM     11  C   UNL     1       0.571  -1.019   2.677  0.00  0.00    +0.018 A 
ATOM     12  C   UNL     1       1.121  -0.723   3.925  0.00  0.00    +0.151 A 
ATOM     13  N   UNL     1       2.105  -1.585   4.131  0.00  0.00    -0.166 NA
ATOM     14  N   UNL     1       2.220  -2.389   3.127  0.00  0.00    -0.264 N 
ATOM     15  C   UNL     1       3.192  -3.481   3.028  0.00  0.00    +0.173 C 
ATOM     16  N   UNL     1       1.561  -5.545  -1.113  0.00  0.00    -0.284 N 
ATOM     17  C   UNL     1      -1.866  -1.155   2.271  0.00  0.00    +0.016 C 
ATOM     18  H   UNL     1       2.092  -6.079  -0.501  0.00  0.00    +0.155 HD
ENDROOT
BRANCH  16  19
ATOM     19  C   UNL     1       1.276  -6.026  -2.397  0.00  0.00    +0.034 A 
ATOM     20  C   UNL     1       1.145  -5.139  -3.458  0.00  0.00    +0.025 A 
ATOM     21  C   UNL     1       0.864  -5.614  -4.724  0.00  0.00    +0.025 A 
ATOM     22  C   UNL     1       0.712  -6.978  -4.936  0.00  0.00    +0.030 A 
ATOM     23  C   UNL     1       0.844  -7.865  -3.876  0.00  0.00    +0.025 A 
ATOM     24  C   UNL     1       1.131  -7.390  -2.611  0.00  0.00    +0.025 A 
BRANCH  22  25
ATOM     25  N   UNL     1       0.427  -7.459  -6.219  0.00  0.00    -0.327 N 
ATOM     26  C   UNL     1       0.137  -8.883  -6.444  0.00  0.00    +0.120 C 
ATOM     27  C   UNL     1      -1.169  -8.995  -7.237  0.00  0.00    +0.103 C 
ATOM     28  N   UNL     1      -1.071  -8.181  -8.456  0.00  0.00    -0.302 NA
ATOM     29  C   UNL     1      -0.909  -6.757  -8.134  0.00  0.00    +0.103 C 
ATOM     30  C   UNL     1       0.402  -6.552  -7.377  0.00  0.00    +0.120 C 
ATOM     31  C   UNL     1      -2.233  -8.395  -9.328  0.00  0.00    +0.105 C 
ENDBRANCH  22  25
ENDBRANCH  16  19
BRANCH  12  32
ATOM     32  C   UNL     1       0.687   0.350   4.843  0.00  0.00    +0.264 C 
ATOM     33  O   UNL     1      -0.345   0.229   5.474  0.00  0.00    -0.268 OA
ATOM     34  N   UNL     1       1.435   1.462   4.981  0.00  0.00    -0.313 N 
ATOM     35  C   UNL     1       1.005   2.526   5.892  0.00  0.00    +0.128 C 
ATOM     36  H   UNL     1       2.259   1.558   4.477  0.00  0.00    +0.149 HD
ENDBRANCH  12  32
TORSDOF 3
