REMARK  Name = CHEMBL214161
REMARK  8 active torsions:
REMARK  status: ('A' for Active; 'I' for Inactive)
REMARK    1  A    between atoms: C_1  and  C_2
REMARK    2  A    between atoms: C_6  and  N_8
REMARK    3  A    between atoms: N_11  and  C_12
REMARK    4  A    between atoms: C_12  and  C_13
REMARK    5  A    between atoms: C_16  and  C_18
REMARK    6  A    between atoms: C_26  and  C_31
REMARK    7  A    between atoms: C_31  and  N_32
REMARK    8  A    between atoms: N_35  and  C_38
REMARK                            x       y       z     vdW  Elec       q    Type
REMARK                         _______ _______ _______ _____ _____    ______ ____
ROOT
ATOM      1  C   UNL     1       0.453  -8.197   8.795  0.00  0.00    +0.076 A 
ATOM      2  C   UNL     1       1.399  -9.150   9.035  0.00  0.00    +0.010 A 
ATOM      3  C   UNL     1       1.502  -9.323  10.424  0.00  0.00    +0.097 A 
ATOM      4  N   UNL     1       0.646  -8.501  11.003  0.00  0.00    -0.173 NA
ATOM      5  H   UNL     1      -0.702  -7.103  10.150  0.00  0.00    +0.189 HD
ATOM      6  N   UNL     1      -0.022  -7.779  10.006  0.00  0.00    -0.276 N 
ATOM      7  C   UNL     1       2.526 -10.358  10.714  0.00  0.00    +0.006 A 
ATOM      8  C   UNL     1       2.988 -10.879  11.924  0.00  0.00    +0.015 A 
ATOM      9  C   UNL     1       3.966 -11.852  11.927  0.00  0.00    -0.033 A 
ATOM     10  C   UNL     1       4.492 -12.315  10.734  0.00  0.00    +0.005 A 
ATOM     11  C   UNL     1       4.039 -11.803   9.531  0.00  0.00    +0.005 A 
ATOM     12  C   UNL     1       3.061 -10.830   9.519  0.00  0.00    -0.034 A 
ATOM     13  C   UNL     1       2.381 -10.095   8.389  0.00  0.00    +0.075 C 
ENDROOT
BRANCH   1  17
ATOM     14  C   UNL     1      -0.296  -6.786   4.958  0.00  0.00    +0.008 A 
ATOM     15  C   UNL     1      -1.398  -7.012   5.718  0.00  0.00    +0.013 A 
ATOM     16  C   UNL     1      -1.243  -7.481   7.003  0.00  0.00    +0.018 A 
ATOM     17  C   UNL     1       0.025  -7.704   7.474  0.00  0.00    +0.038 A 
ATOM     18  S   UNL     1       1.025  -7.249   6.066  0.00  0.00    -0.090 S 
BRANCH  14  19
ATOM     19  C   UNL     1      -0.210  -6.281   3.541  0.00  0.00    +0.148 C 
BRANCH  19  23
ATOM     20  N   UNL     1       0.051  -2.797   2.393  0.00  0.00    -0.269 N 
ATOM     21  C   UNL     1      -0.032  -4.143   2.386  0.00  0.00    +0.304 C 
ATOM     22  O   UNL     1      -0.029  -4.746   1.330  0.00  0.00    -0.252 OA
ATOM     23  N   UNL     1      -0.119  -4.819   3.548  0.00  0.00    -0.295 N 
ATOM     24  H   UNL     1       0.127  -2.321   3.234  0.00  0.00    +0.156 HD
ATOM     25  H   UNL     1      -0.121  -4.337   4.390  0.00  0.00    +0.151 HD
BRANCH  20  31
ATOM     26  C   UNL     1      -1.548  -2.371  -2.237  0.00  0.00    +0.044 C 
ATOM     27  C   UNL     1      -0.737  -1.859  -1.074  0.00  0.00    -0.049 A 
ATOM     28  C   UNL     1      -0.014  -0.687  -1.199  0.00  0.00    +0.003 A 
ATOM     29  C   UNL     1       0.731  -0.214  -0.134  0.00  0.00    +0.002 A 
ATOM     30  C   UNL     1       0.754  -0.911   1.058  0.00  0.00    +0.023 A 
ATOM     31  C   UNL     1       0.029  -2.088   1.186  0.00  0.00    +0.035 A 
ATOM     32  C   UNL     1      -0.722  -2.558   0.117  0.00  0.00    +0.026 A 
ENDBRANCH  20  31
ENDBRANCH  19  23
ENDBRANCH  14  19
ENDBRANCH   1  17
BRANCH   9  33
ATOM     33  C   UNL     1       4.463 -12.414  13.234  0.00  0.00    +0.119 C 
BRANCH  33  34
ATOM     34  N   UNL     1       3.648 -13.577  13.609  0.00  0.00    -0.302 NA
ATOM     35  C   UNL     1       2.265 -13.177  13.909  0.00  0.00    +0.066 C 
ATOM     36  C   UNL     1       1.437 -14.422  14.236  0.00  0.00    -0.064 C 
ATOM     37  N   UNL     1       2.027 -15.113  15.390  0.00  0.00    +0.379 N 
ATOM     38  C   UNL     1       3.398 -15.528  15.067  0.00  0.00    -0.064 C 
ATOM     39  C   UNL     1       4.243 -14.292  14.747  0.00  0.00    +0.066 C 
ATOM     40  C   UNL     1       1.221 -16.297  15.715  0.00  0.00    -0.096 C 
ATOM     41  H   UNL     1       2.042 -14.489  16.183  0.00  0.00    -0.082 HD
ENDBRANCH  33  34
ENDBRANCH   9  33
TORSDOF 6
