REMARK  Name = CHEMBL184227
REMARK  10 active torsions:
REMARK  status: ('A' for Active; 'I' for Inactive)
REMARK    1  A    between atoms: C_1  and  O_2
REMARK    2  A    between atoms: O_2  and  C_3
REMARK    3  A    between atoms: C_8  and  O_9
REMARK    4  A    between atoms: O_9  and  C_10
REMARK    5  A    between atoms: C_10  and  C_11
REMARK    6  A    between atoms: C_11  and  N_12
REMARK    7  A    between atoms: N_25  and  C_28
REMARK    8  A    between atoms: C_28  and  N_29
REMARK    9  A    between atoms: N_29  and  C_30
REMARK   10  A    between atoms: C_30  and  C_31
REMARK                            x       y       z     vdW  Elec       q    Type
REMARK                         _______ _______ _______ _____ _____    ______ ____
ROOT
ATOM      1  C   UNL     1       0.798  -0.345  -1.450  0.00  0.00    +0.162 A 
ATOM      2  C   UNL     1       1.387   0.247  -2.531  0.00  0.00    +0.062 A 
ATOM      3  C   UNL     1       1.915  -0.547  -3.555  0.00  0.00    +0.044 A 
ATOM      4  C   UNL     1       1.837  -1.959  -3.466  0.00  0.00    +0.080 A 
ATOM      5  C   UNL     1       1.230  -2.546  -2.349  0.00  0.00    +0.078 A 
ATOM      6  C   UNL     1       0.722  -1.742  -1.352  0.00  0.00    +0.164 A 
ATOM      7  N   UNL     1       2.351  -2.697  -4.462  0.00  0.00    -0.235 NA
ATOM      8  C   UNL     1       2.914  -2.119  -5.496  0.00  0.00    +0.223 A 
ATOM      9  N   UNL     1       3.010  -0.805  -5.622  0.00  0.00    -0.220 NA
ATOM     10  C   UNL     1       2.534   0.017  -4.696  0.00  0.00    +0.132 A 
ATOM     11  N   UNL     1       2.641   1.385  -4.841  0.00  0.00    -0.312 N 
ATOM     12  C   UNL     1       3.863   2.088  -4.428  0.00  0.00    +0.125 C 
ATOM     13  C   UNL     1       4.394   2.891  -5.622  0.00  0.00    +0.125 C 
ATOM     14  N   UNL     1       3.287   3.671  -6.193  0.00  0.00    -0.310 N 
ATOM     15  C   UNL     1       2.065   2.967  -6.606  0.00  0.00    +0.125 C 
ATOM     16  C   UNL     1       1.536   2.164  -5.418  0.00  0.00    +0.125 C 
ENDROOT
BRANCH   1  18
ATOM     17  C   UNL     1       0.393   1.843  -0.613  0.00  0.00    +0.277 C 
ATOM     18  O   UNL     1       0.285   0.427  -0.456  0.00  0.00    -0.491 OA
ENDBRANCH   1  18
BRANCH  14  19
ATOM     19  C   UNL     1       3.391   5.007  -6.335  0.00  0.00    +0.133 C 
ATOM     20  S   UNL     1       4.769   5.827  -5.734  0.00  0.00    -0.019 S 
BRANCH  19  21
ATOM     21  N   UNL     1       2.410   5.698  -6.949  0.00  0.00    -0.322 N 
ATOM     22  H   UNL     1       1.598   5.245  -7.224  0.00  0.00    +0.148 HD
BRANCH  21  23
ATOM     23  C   UNL     1       2.571   7.132  -7.200  0.00  0.00    +0.138 C 
BRANCH  23  24
ATOM     24  C   UNL     1       1.342   7.662  -7.893  0.00  0.00    -0.027 A 
ATOM     25  C   UNL     1       1.273   7.657  -9.274  0.00  0.00    +0.009 A 
ATOM     26  C   UNL     1       0.147   8.141  -9.914  0.00  0.00    +0.050 A 
ATOM     27  C   UNL     1      -0.914   8.633  -9.172  0.00  0.00    +0.166 A 
ATOM     28  C   UNL     1      -0.844   8.638  -7.782  0.00  0.00    +0.167 A 
ATOM     29  C   UNL     1       0.284   8.146  -7.147  0.00  0.00    +0.054 A 
ATOM     30  O   UNL     1      -2.002   9.167  -7.289  0.00  0.00    -0.453 OA
ATOM     31  C   UNL     1      -2.610   9.861  -8.395  0.00  0.00    +0.466 C 
ATOM     32  O   UNL     1      -2.116   9.159  -9.551  0.00  0.00    -0.453 OA
ENDBRANCH  23  24
ENDBRANCH  21  23
ENDBRANCH  19  21
ENDBRANCH  14  19
BRANCH   6  33
ATOM     33  O   UNL     1       0.137  -2.308  -0.265  0.00  0.00    -0.490 OA
BRANCH  33  34
ATOM     34  C   UNL     1       0.090  -3.736  -0.224  0.00  0.00    +0.211 C 
BRANCH  34  35
ATOM     35  C   UNL     1      -0.600  -4.186   1.066  0.00  0.00    -0.037 C 
BRANCH  35  36
ATOM     36  N   UNL     1      -1.986  -3.702   1.074  0.00  0.00    +0.382 N 
ATOM     37  C   UNL     1      -2.601  -4.003   2.372  0.00  0.00    -0.079 C 
ATOM     38  C   UNL     1      -4.019  -3.430   2.415  0.00  0.00    -0.019 C 
ATOM     39  C   UNL     1      -4.853  -4.059   1.296  0.00  0.00    -0.004 C 
ATOM     40  C   UNL     1      -4.163  -3.803  -0.047  0.00  0.00    -0.019 C 
ATOM     41  C   UNL     1      -2.740  -4.362   0.001  0.00  0.00    -0.079 C 
ATOM     42  H   UNL     1      -1.994  -2.704   0.924  0.00  0.00    -0.082 HD
ENDBRANCH  35  36
ENDBRANCH  34  35
ENDBRANCH  33  34
ENDBRANCH   6  33
TORSDOF 9
