REMARK  Name = CHEMBL215152
REMARK  15 active torsions:
REMARK  status: ('A' for Active; 'I' for Inactive)
REMARK    1  A    between atoms: C_1  and  C_2
REMARK    2  A    between atoms: C_2  and  N_3
REMARK    3  A    between atoms: N_3  and  C_4
REMARK    4  A    between atoms: N_3  and  C_36
REMARK    5  A    between atoms: C_4  and  C_5
REMARK    6  A    between atoms: C_5  and  C_6
REMARK    7  A    between atoms: C_6  and  O_7
REMARK    8  A    between atoms: O_7  and  C_8
REMARK    9  A    between atoms: C_17  and  N_18
REMARK   10  A    between atoms: N_18  and  C_19
REMARK   11  A    between atoms: C_21  and  C_25
REMARK   12  A    between atoms: C_25  and  C_26
REMARK   13  A    between atoms: N_28  and  C_29
REMARK   14  A    between atoms: C_36  and  C_37
REMARK   15  A    between atoms: C_37  and  O_38
REMARK                            x       y       z     vdW  Elec       q    Type
REMARK                         _______ _______ _______ _____ _____    ______ ____
ROOT
ATOM      1  C   UNL     1      -0.471  -5.324   4.430  0.00  0.00    +0.123 A 
ATOM      2  C   UNL     1      -1.000  -6.370   3.667  0.00  0.00    +0.046 A 
ATOM      3  C   UNL     1      -1.021  -7.644   4.149  0.00  0.00    +0.017 A 
ATOM      4  C   UNL     1      -0.507  -7.913   5.423  0.00  0.00    +0.041 A 
ATOM      5  C   UNL     1       0.031  -6.860   6.204  0.00  0.00    +0.079 A 
ATOM      6  C   UNL     1       0.047  -5.560   5.685  0.00  0.00    +0.074 A 
ATOM      7  N   UNL     1       0.518  -7.144   7.422  0.00  0.00    -0.235 NA
ATOM      8  C   UNL     1       0.494  -8.374   7.877  0.00  0.00    +0.223 A 
ATOM      9  N   UNL     1       0.001  -9.388   7.185  0.00  0.00    -0.220 NA
ATOM     10  C   UNL     1      -0.505  -9.218   5.970  0.00  0.00    +0.135 A 
ENDROOT
BRANCH  10  11
ATOM     11  N   UNL     1      -1.016 -10.284   5.260  0.00  0.00    -0.284 N 
ATOM     12  H   UNL     1      -1.383 -10.145   4.373  0.00  0.00    +0.155 HD
BRANCH  11  13
ATOM     13  C   UNL     1      -1.004 -11.562   5.816  0.00  0.00    +0.120 A 
ATOM     14  C   UNL     1      -0.522 -11.901   7.044  0.00  0.00    +0.068 A 
ATOM     15  C   UNL     1      -0.702 -13.277   7.209  0.00  0.00    +0.073 A 
ATOM     16  N   UNL     1      -1.268 -13.753   6.130  0.00  0.00    -0.177 NA
ATOM     17  H   UNL     1      -1.882 -12.761   4.357  0.00  0.00    +0.190 HD
ATOM     18  N   UNL     1      -1.476 -12.695   5.236  0.00  0.00    -0.264 N 
BRANCH  15  19
ATOM     19  C   UNL     1      -0.310 -14.077   8.425  0.00  0.00    +0.153 C 
BRANCH  19  20
ATOM     20  C   UNL     1      -1.511 -14.828   8.940  0.00  0.00    +0.223 C 
ATOM     21  O   UNL     1      -2.579 -14.724   8.376  0.00  0.00    -0.275 OA
ATOM     22  N   UNL     1      -1.397 -15.615  10.028  0.00  0.00    -0.285 N 
ATOM     23  H   UNL     1      -0.528 -15.755  10.437  0.00  0.00    +0.155 HD
BRANCH  22  24
ATOM     24  C   UNL     1      -2.531 -16.230  10.568  0.00  0.00    +0.036 A 
ATOM     25  C   UNL     1      -2.647 -16.393  11.943  0.00  0.00    +0.023 A 
ATOM     26  C   UNL     1      -3.767 -17.000  12.475  0.00  0.00    +0.005 A 
ATOM     27  C   UNL     1      -4.776 -17.447  11.640  0.00  0.00    +0.038 A 
ATOM     28  C   UNL     1      -4.665 -17.286  10.269  0.00  0.00    +0.125 A 
ATOM     29  C   UNL     1      -3.547 -16.674   9.732  0.00  0.00    +0.061 A 
ATOM     30  F   UNL     1      -5.651 -17.724   9.457  0.00  0.00    -0.205 F 
ENDBRANCH  22  24
ENDBRANCH  19  20
ENDBRANCH  15  19
ENDBRANCH  11  13
ENDBRANCH  10  11
BRANCH   1  31
ATOM     31  O   UNL     1      -0.462  -4.064   3.925  0.00  0.00    -0.492 OA
BRANCH  31  32
ATOM     32  C   UNL     1      -1.013  -3.883   2.619  0.00  0.00    +0.227 C 
BRANCH  32  33
ATOM     33  C   UNL     1      -0.916  -2.409   2.224  0.00  0.00    +0.022 C 
BRANCH  33  34
ATOM     34  C   UNL     1      -1.506  -2.216   0.825  0.00  0.00    -0.075 C 
BRANCH  34  35
ATOM     35  N   UNL     1      -1.413  -0.800   0.445  0.00  0.00    +0.381 N 
ATOM     36  H   UNL     1      -1.857  -0.232   1.151  0.00  0.00    -0.082 HD
BRANCH  35  38
ATOM     37  C   UNL     1       0.101   1.088   0.068  0.00  0.00    -0.017 C 
ATOM     38  C   UNL     1       0.001  -0.417   0.327  0.00  0.00    -0.082 C 
ENDBRANCH  35  38
BRANCH  35  39
ATOM     39  C   UNL     1      -2.085  -0.593  -0.844  0.00  0.00    -0.051 C 
BRANCH  39  40
ATOM     40  C   UNL     1      -3.586  -0.845  -0.682  0.00  0.00    +0.137 C 
BRANCH  40  41
ATOM     41  O   UNL     1      -4.141   0.135   0.197  0.00  0.00    -0.397 OA
ATOM     42  H   UNL     1      -5.074  -0.008   0.406  0.00  0.00    +0.209 HD
ENDBRANCH  40  41
ENDBRANCH  39  40
ENDBRANCH  35  39
ENDBRANCH  34  35
ENDBRANCH  33  34
ENDBRANCH  32  33
ENDBRANCH  31  32
ENDBRANCH   1  31
TORSDOF 14
