REMARK  Name = CHEMBL1421
REMARK  8 active torsions:
REMARK  status: ('A' for Active; 'I' for Inactive)
REMARK    1  A    between atoms: C_1  and  C_2
REMARK    2  A    between atoms: C_7  and  N_8
REMARK    3  A    between atoms: C_9  and  C_11
REMARK    4  A    between atoms: C_19  and  N_24
REMARK    5  A    between atoms: C_21  and  C_23
REMARK    6  A    between atoms: N_27  and  C_30
REMARK    7  A    between atoms: C_30  and  C_31
REMARK    8  A    between atoms: C_31  and  O_32
REMARK                            x       y       z     vdW  Elec       q    Type
REMARK                         _______ _______ _______ _____ _____    ______ ____
ROOT
ATOM      1  C   UNL     1       1.129   6.220   6.068  0.00  0.00    +0.095 A 
ATOM      2  C   UNL     1       1.067   6.215   7.454  0.00  0.00    +0.133 A 
ATOM      3  N   UNL     1       0.848   5.056   8.022  0.00  0.00    -0.232 NA
ATOM      4  C   UNL     1       0.696   3.955   7.308  0.00  0.00    +0.164 A 
ATOM      5  S   UNL     1       0.848   4.491   5.720  0.00  0.00    -0.047 S 
ATOM      6  N   UNL     1       0.462   2.671   7.757  0.00  0.00    -0.279 N 
ATOM      7  C   UNL     1       0.251   2.436   9.110  0.00  0.00    +0.130 A 
ATOM      8  C   UNL     1      -0.095   1.166   9.560  0.00  0.00    +0.087 A 
ATOM      9  C   UNL     1      -0.295   0.983  10.925  0.00  0.00    +0.126 A 
ATOM     10  N   UNL     1      -0.148   2.022  11.745  0.00  0.00    -0.218 NA
ATOM     11  C   UNL     1       0.181   3.209  11.279  0.00  0.00    +0.130 A 
ATOM     12  N   UNL     1       0.384   3.422   9.995  0.00  0.00    -0.217 NA
ATOM     13  C   UNL     1       0.336   4.356  12.244  0.00  0.00    +0.088 C 
ATOM     14  H   UNL     1       0.444   1.933   7.128  0.00  0.00    +0.155 HD
ENDROOT
BRANCH   9  15
ATOM     15  N   UNL     1      -0.642  -0.263  11.424  0.00  0.00    -0.319 N 
ATOM     16  C   UNL     1      -1.059  -0.428  12.825  0.00  0.00    +0.088 C 
ATOM     17  C   UNL     1      -2.376  -1.212  12.851  0.00  0.00    -0.059 C 
ATOM     18  N   UNL     1      -2.208  -2.472  12.116  0.00  0.00    +0.383 N 
ATOM     19  C   UNL     1      -1.942  -2.194  10.699  0.00  0.00    -0.059 C 
ATOM     20  C   UNL     1      -0.610  -1.458  10.565  0.00  0.00    +0.088 C 
ATOM     21  H   UNL     1      -1.434  -2.988  12.508  0.00  0.00    -0.082 HD
BRANCH  18  22
ATOM     22  C   UNL     1      -3.435  -3.272  12.235  0.00  0.00    -0.051 C 
BRANCH  22  23
ATOM     23  C   UNL     1      -3.219  -4.637  11.576  0.00  0.00    +0.137 C 
BRANCH  23  24
ATOM     24  O   UNL     1      -2.223  -5.362  12.300  0.00  0.00    -0.397 OA
ATOM     25  H   UNL     1      -2.034  -6.239  11.938  0.00  0.00    +0.209 HD
ENDBRANCH  23  24
ENDBRANCH  22  23
ENDBRANCH  18  22
ENDBRANCH   9  15
BRANCH   1  27
ATOM     26  N   UNL     1       1.371   7.115   3.817  0.00  0.00    -0.280 N 
ATOM     27  C   UNL     1       1.355   7.333   5.147  0.00  0.00    +0.256 C 
ATOM     28  O   UNL     1       1.529   8.457   5.581  0.00  0.00    -0.269 OA
ATOM     29  H   UNL     1       1.154   6.237   3.467  0.00  0.00    +0.155 HD
BRANCH  26  36
ATOM     30  C   UNL     1       3.412   6.651   1.890  0.00  0.00    +0.046 C 
ATOM     31  C   UNL     1       2.692   7.971   1.985  0.00  0.00    -0.028 A 
ATOM     32  C   UNL     1       3.012   8.998   1.118  0.00  0.00    +0.005 A 
ATOM     33  C   UNL     1       2.352  10.210   1.205  0.00  0.00    +0.002 A 
ATOM     34  C   UNL     1       1.369  10.399   2.159  0.00  0.00    +0.022 A 
ATOM     35  C   UNL     1       1.044   9.377   3.030  0.00  0.00    +0.062 A 
ATOM     36  C   UNL     1       1.702   8.155   2.941  0.00  0.00    +0.055 A 
ATOM     37 CL   UNL     1      -0.189   9.614   4.229  0.00  0.00    -0.082 Cl
ENDBRANCH  26  36
ENDBRANCH   1  27
TORSDOF 6
