REMARK  Name = CHEMBL223478
REMARK  8 active torsions:
REMARK  status: ('A' for Active; 'I' for Inactive)
REMARK    1  A    between atoms: C_1  and  C_2
REMARK    2  A    between atoms: C_6  and  N_8
REMARK    3  A    between atoms: N_11  and  C_12
REMARK    4  A    between atoms: C_15  and  C_18
REMARK    5  A    between atoms: C_21  and  O_29
REMARK    6  A    between atoms: O_29  and  C_30
REMARK    7  A    between atoms: C_30  and  C_31
REMARK    8  A    between atoms: C_31  and  N_32
REMARK                            x       y       z     vdW  Elec       q    Type
REMARK                         _______ _______ _______ _____ _____    ______ ____
ROOT
ATOM      1  C   UNL     1       0.266 -10.543   4.492  0.00  0.00    -0.005 A 
ATOM      2  C   UNL     1      -0.411 -11.127   3.431  0.00  0.00    +0.013 A 
ATOM      3  C   UNL     1      -0.382 -12.502   3.253  0.00  0.00    +0.048 A 
ATOM      4  C   UNL     1       0.320 -13.312   4.125  0.00  0.00    +0.146 A 
ATOM      5  C   UNL     1       1.011 -12.748   5.202  0.00  0.00    +0.110 A 
ATOM      6  C   UNL     1       0.991 -11.356   5.386  0.00  0.00    +0.052 A 
ATOM      7  C   UNL     1       1.800 -11.085   6.572  0.00  0.00    +0.146 A 
ATOM      8  N   UNL     1       2.246 -12.230   7.019  0.00  0.00    -0.158 NA
ATOM      9  N   UNL     1       1.778 -13.272   6.212  0.00  0.00    -0.272 N 
ATOM     10  H   UNL     1       1.973 -14.213   6.340  0.00  0.00    +0.189 HD
ATOM     11  N   UNL     1       2.052  -9.827   7.129  0.00  0.00    -0.341 N 
ATOM     12  H   UNL     1       1.579  -9.047   6.799  0.00  0.00    +0.144 HD
ATOM     13  H   UNL     1       2.699  -9.735   7.846  0.00  0.00    +0.144 HD
ENDROOT
BRANCH   1  17
ATOM     14  C   UNL     1       0.168  -6.326   5.032  0.00  0.00    +0.035 A 
ATOM     15  C   UNL     1      -1.019  -7.047   4.987  0.00  0.00    +0.024 A 
ATOM     16  C   UNL     1      -0.991  -8.414   4.812  0.00  0.00    +0.010 A 
ATOM     17  C   UNL     1       0.232  -9.074   4.679  0.00  0.00    -0.017 A 
ATOM     18  C   UNL     1       1.422  -8.347   4.724  0.00  0.00    +0.010 A 
ATOM     19  C   UNL     1       1.387  -6.980   4.894  0.00  0.00    +0.024 A 
BRANCH  14  23
ATOM     20  N   UNL     1      -0.918  -3.038   6.061  0.00  0.00    -0.269 N 
ATOM     21  C   UNL     1      -0.825  -4.380   5.972  0.00  0.00    +0.308 C 
ATOM     22  O   UNL     1      -1.606  -5.085   6.580  0.00  0.00    -0.252 OA
ATOM     23  N   UNL     1       0.136  -4.939   5.210  0.00  0.00    -0.269 N 
ATOM     24  H   UNL     1      -0.344  -2.475   5.519  0.00  0.00    +0.156 HD
ATOM     25  H   UNL     1       0.804  -4.380   4.784  0.00  0.00    +0.156 HD
BRANCH  20  31
ATOM     26  C   UNL     1      -4.033   0.618   7.109  0.00  0.00    +0.044 C 
ATOM     27  C   UNL     1      -3.369  -0.686   7.468  0.00  0.00    -0.049 A 
ATOM     28  C   UNL     1      -3.675  -1.310   8.664  0.00  0.00    +0.003 A 
ATOM     29  C   UNL     1      -3.068  -2.507   8.997  0.00  0.00    +0.002 A 
ATOM     30  C   UNL     1      -2.154  -3.083   8.136  0.00  0.00    +0.023 A 
ATOM     31  C   UNL     1      -1.844  -2.458   6.935  0.00  0.00    +0.035 A 
ATOM     32  C   UNL     1      -2.460  -1.259   6.601  0.00  0.00    +0.026 A 
ENDBRANCH  20  31
ENDBRANCH  14  23
ENDBRANCH   1  17
BRANCH   4  33
ATOM     33  O   UNL     1       0.338 -14.658   3.937  0.00  0.00    -0.489 OA
BRANCH  33  34
ATOM     34  C   UNL     1      -0.390 -15.166   2.817  0.00  0.00    +0.244 C 
BRANCH  34  35
ATOM     35  C   UNL     1      -0.255 -16.689   2.769  0.00  0.00    +0.125 C 
BRANCH  35  36
ATOM     36  N   UNL     1      -0.900 -17.276   3.951  0.00  0.00    -0.295 NA
ATOM     37  C   UNL     1      -0.412 -18.642   4.193  0.00  0.00    +0.112 C 
ATOM     38  C   UNL     1      -1.064 -19.192   5.465  0.00  0.00    +0.175 C 
ATOM     39  O   UNL     1      -2.486 -19.142   5.325  0.00  0.00    -0.377 OA
ATOM     40  C   UNL     1      -2.996 -17.826   5.088  0.00  0.00    +0.175 C 
ATOM     41  C   UNL     1      -2.363 -17.262   3.813  0.00  0.00    +0.112 C 
ENDBRANCH  35  36
ENDBRANCH  34  35
ENDBRANCH  33  34
ENDBRANCH   4  33
TORSDOF 7
