REMARK  Name = CHEMBL186682
REMARK  8 active torsions:
REMARK  status: ('A' for Active; 'I' for Inactive)
REMARK    1  A    between atoms: C_1  and  O_2
REMARK    2  A    between atoms: O_2  and  C_3
REMARK    3  A    between atoms: C_8  and  O_9
REMARK    4  A    between atoms: O_9  and  C_10
REMARK    5  A    between atoms: C_10  and  C_11
REMARK    6  A    between atoms: C_11  and  N_12
REMARK    7  A    between atoms: N_29  and  C_30
REMARK    8  A    between atoms: C_30  and  C_31
REMARK                            x       y       z     vdW  Elec       q    Type
REMARK                         _______ _______ _______ _____ _____    ______ ____
ROOT
ATOM      1  C   UNL     1      -1.242  -0.680   1.359  0.00  0.00    +0.162 A 
ATOM      2  C   UNL     1      -2.442  -0.036   1.243  0.00  0.00    +0.062 A 
ATOM      3  C   UNL     1      -3.617  -0.782   1.091  0.00  0.00    +0.044 A 
ATOM      4  C   UNL     1      -3.556  -2.198   1.058  0.00  0.00    +0.080 A 
ATOM      5  C   UNL     1      -2.316  -2.836   1.179  0.00  0.00    +0.078 A 
ATOM      6  C   UNL     1      -1.174  -2.079   1.322  0.00  0.00    +0.164 A 
ATOM      7  N   UNL     1      -4.697  -2.889   0.909  0.00  0.00    -0.235 NA
ATOM      8  C   UNL     1      -5.844  -2.263   0.798  0.00  0.00    +0.223 A 
ATOM      9  N   UNL     1      -5.949  -0.944   0.823  0.00  0.00    -0.220 NA
ATOM     10  C   UNL     1      -4.885  -0.166   0.965  0.00  0.00    +0.132 A 
ATOM     11  N   UNL     1      -5.009   1.208   0.991  0.00  0.00    -0.312 N 
ATOM     12  C   UNL     1      -5.042   1.979  -0.260  0.00  0.00    +0.125 C 
ATOM     13  C   UNL     1      -6.317   2.830  -0.278  0.00  0.00    +0.126 C 
ATOM     14  N   UNL     1      -6.421   3.548   1.000  0.00  0.00    -0.308 N 
ATOM     15  C   UNL     1      -6.389   2.777   2.250  0.00  0.00    +0.126 C 
ATOM     16  C   UNL     1      -5.119   1.926   2.268  0.00  0.00    +0.125 C 
ATOM     17  C   UNL     1      -6.545   4.909   1.025  0.00  0.00    +0.142 C 
ATOM     18  N   UNL     1      -7.525   5.492   1.777  0.00  0.00    -0.363 N 
ATOM     19  S   UNL     1      -5.505   5.853   0.141  0.00  0.00    -0.016 SA
ATOM     20  H   UNL     1      -7.620   6.457   1.785  0.00  0.00    +0.162 HD
ENDROOT
BRANCH   1  22
ATOM     21  C   UNL     1      -0.237   1.468   1.538  0.00  0.00    +0.277 C 
ATOM     22  O   UNL     1      -0.102   0.046   1.507  0.00  0.00    -0.491 OA
ENDBRANCH   1  22
BRANCH   6  23
ATOM     23  O   UNL     1       0.032  -2.696   1.434  0.00  0.00    -0.490 OA
BRANCH  23  24
ATOM     24  C   UNL     1       0.036  -4.124   1.389  0.00  0.00    +0.211 C 
BRANCH  24  25
ATOM     25  C   UNL     1       1.472  -4.634   1.530  0.00  0.00    -0.037 C 
BRANCH  25  26
ATOM     26  N   UNL     1       1.990  -4.278   2.857  0.00  0.00    +0.382 N 
ATOM     27  C   UNL     1       3.406  -4.654   2.945  0.00  0.00    -0.079 C 
ATOM     28  C   UNL     1       3.972  -4.213   4.297  0.00  0.00    -0.019 C 
ATOM     29  C   UNL     1       3.189  -4.898   5.420  0.00  0.00    -0.004 C 
ATOM     30  C   UNL     1       1.703  -4.558   5.275  0.00  0.00    -0.019 C 
ATOM     31  C   UNL     1       1.221  -4.987   3.887  0.00  0.00    -0.079 C 
ATOM     32  H   UNL     1       1.899  -3.283   2.997  0.00  0.00    -0.082 HD
ENDBRANCH  25  26
ENDBRANCH  24  25
ENDBRANCH  23  24
ENDBRANCH   6  23
BRANCH  18  33
ATOM     33  C   UNL     1      -8.431   4.660   2.572  0.00  0.00    +0.151 C 
BRANCH  33  34
ATOM     34  C   UNL     1      -9.525   5.519   3.151  0.00  0.00    -0.010 A 
ATOM     35  C   UNL     1      -9.363   6.123   4.389  0.00  0.00    +0.010 A 
ATOM     36  C   UNL     1     -10.396   6.904   4.882  0.00  0.00    +0.040 A 
ATOM     37  C   UNL     1     -11.546   7.056   4.128  0.00  0.00    +0.129 A 
ATOM     38  N   UNL     1     -11.665   6.466   2.954  0.00  0.00    -0.243 NA
ATOM     39  C   UNL     1     -10.700   5.720   2.452  0.00  0.00    +0.117 A 
ATOM     40 CL   UNL     1     -12.848   8.032   4.734  0.00  0.00    -0.062 Cl
ENDBRANCH  33  34
ENDBRANCH  18  33
TORSDOF 7
