REMARK  Name = CHEMBL124660
REMARK  12 active torsions:
REMARK  status: ('A' for Active; 'I' for Inactive)
REMARK    1  A    between atoms: C_1  and  C_2
REMARK    2  A    between atoms: C_2  and  C_3
REMARK    3  A    between atoms: C_2  and  O_4
REMARK    4  A    between atoms: O_4  and  C_5
REMARK    5  A    between atoms: C_8  and  N_11
REMARK    6  A    between atoms: C_23  and  O_40
REMARK    7  A    between atoms: C_24  and  O_30
REMARK    8  A    between atoms: O_30  and  C_31
REMARK    9  A    between atoms: C_31  and  C_32
REMARK   10  A    between atoms: C_32  and  C_33
REMARK   11  A    between atoms: C_33  and  N_34
REMARK   12  A    between atoms: O_40  and  C_41
REMARK                            x       y       z     vdW  Elec       q    Type
REMARK                         _______ _______ _______ _____ _____    ______ ____
ROOT
ATOM      1  N   UNL     1      -2.193  -6.453  -0.306  0.00  0.00    -0.269 N 
ATOM      2  C   UNL     1      -2.428  -6.513  -1.631  0.00  0.00    +0.307 C 
ATOM      3  O   UNL     1      -2.440  -5.493  -2.293  0.00  0.00    -0.252 OA
ATOM      4  N   UNL     1      -2.648  -7.703  -2.224  0.00  0.00    -0.282 N 
ATOM      5  C   UNL     1      -2.789  -8.925  -1.418  0.00  0.00    +0.128 C 
ATOM      6  C   UNL     1      -4.125  -9.592  -1.769  0.00  0.00    +0.125 C 
ATOM      7  N   UNL     1      -4.230  -9.692  -3.232  0.00  0.00    -0.312 N 
ATOM      8  C   UNL     1      -4.089  -8.470  -4.037  0.00  0.00    +0.125 C 
ATOM      9  C   UNL     1      -2.759  -7.802  -3.686  0.00  0.00    +0.128 C 
ATOM     10  C   UNL     1      -4.456 -10.910  -3.838  0.00  0.00    +0.132 A 
ATOM     11  C   UNL     1      -5.768 -11.325  -4.169  0.00  0.00    +0.042 A 
ATOM     12  C   UNL     1      -6.887 -10.526  -3.901  0.00  0.00    +0.062 A 
ATOM     13  C   UNL     1      -8.132 -10.972  -4.240  0.00  0.00    +0.162 A 
ATOM     14  C   UNL     1      -8.304 -12.220  -4.855  0.00  0.00    +0.164 A 
ATOM     15  C   UNL     1      -7.220 -13.024  -5.130  0.00  0.00    +0.075 A 
ATOM     16  C   UNL     1      -5.934 -12.587  -4.790  0.00  0.00    +0.055 A 
ATOM     17  N   UNL     1      -4.845 -13.332  -5.037  0.00  0.00    -0.345 N 
ATOM     18  C   UNL     1      -3.652 -12.896  -4.708  0.00  0.00    +0.199 A 
ATOM     19  N   UNL     1      -3.449 -11.723  -4.130  0.00  0.00    -0.222 NA
ATOM     20  H   UNL     1      -2.276  -7.252   0.238  0.00  0.00    +0.156 HD
ATOM     21  H   UNL     1      -4.941 -14.199  -5.462  0.00  0.00    +0.167 HD
ENDROOT
BRANCH   1  25
ATOM     22  C   UNL     1      -1.107  -2.833   1.458  0.00  0.00    +0.121 A 
ATOM     23  C   UNL     1      -0.726  -4.032   2.043  0.00  0.00    +0.047 A 
ATOM     24  C   UNL     1      -1.085  -5.231   1.460  0.00  0.00    +0.027 A 
ATOM     25  C   UNL     1      -1.828  -5.237   0.287  0.00  0.00    +0.035 A 
ATOM     26  C   UNL     1      -2.210  -4.037  -0.298  0.00  0.00    +0.027 A 
ATOM     27  C   UNL     1      -1.854  -2.838   0.289  0.00  0.00    +0.047 A 
BRANCH  22  28
ATOM     28  O   UNL     1      -0.753  -1.653   2.033  0.00  0.00    -0.489 OA
BRANCH  28  30
ATOM     29  C   UNL     1      -1.364   0.619   2.588  0.00  0.00    +0.051 C 
ATOM     30  C   UNL     1      -1.362  -0.469   1.512  0.00  0.00    +0.167 C 
ATOM     31  C   UNL     1      -0.571   0.017   0.296  0.00  0.00    +0.051 C 
ENDBRANCH  28  30
ENDBRANCH  22  28
ENDBRANCH   1  25
BRANCH  13  32
ATOM     32  O   UNL     1      -9.218 -10.196  -3.979  0.00  0.00    -0.491 OA
ATOM     33  C   UNL     1      -8.979  -8.935  -3.351  0.00  0.00    +0.277 C 
ENDBRANCH  13  32
BRANCH  14  34
ATOM     34  O   UNL     1      -9.553 -12.641  -5.183  0.00  0.00    -0.488 OA
BRANCH  34  35
ATOM     35  C   UNL     1      -9.663 -13.922  -5.807  0.00  0.00    +0.227 C 
BRANCH  35  36
ATOM     36  C   UNL     1     -11.134 -14.223  -6.099  0.00  0.00    +0.022 C 
BRANCH  36  37
ATOM     37  C   UNL     1     -11.252 -15.594  -6.767  0.00  0.00    -0.076 C 
BRANCH  37  38
ATOM     38  N   UNL     1     -12.664 -15.883  -7.048  0.00  0.00    +0.380 N 
ATOM     39  C   UNL     1     -13.400 -15.994  -5.783  0.00  0.00    -0.079 C 
ATOM     40  C   UNL     1     -14.887 -16.214  -6.071  0.00  0.00    -0.019 C 
ATOM     41  C   UNL     1     -15.060 -17.503  -6.878  0.00  0.00    -0.004 C 
ATOM     42  C   UNL     1     -14.228 -17.406  -8.161  0.00  0.00    -0.019 C 
ATOM     43  C   UNL     1     -12.766 -17.142  -7.795  0.00  0.00    -0.079 C 
ATOM     44  H   UNL     1     -13.057 -15.134  -7.599  0.00  0.00    -0.082 HD
ENDBRANCH  37  38
ENDBRANCH  36  37
ENDBRANCH  35  36
ENDBRANCH  34  35
ENDBRANCH  14  34
TORSDOF 9
