REMARK  Name = CHEMBL487431
REMARK  7 active torsions:
REMARK  status: ('A' for Active; 'I' for Inactive)
REMARK    1  A    between atoms: C_1  and  C_2
REMARK    2  A    between atoms: C_5  and  C_18
REMARK    3  A    between atoms: C_7  and  C_8
REMARK    4  A    between atoms: N_10  and  C_11
REMARK    5  A    between atoms: N_20  and  C_21
REMARK    6  A    between atoms: C_21  and  C_22
REMARK    7  A    between atoms: C_22  and  C_23
REMARK                            x       y       z     vdW  Elec       q    Type
REMARK                         _______ _______ _______ _____ _____    ______ ____
ROOT
ATOM      1  C   UNL     1       0.050   1.546   0.030  0.00  0.00    +0.044 C 
ATOM      2  C   UNL     1       0.123   0.041  -0.002  0.00  0.00    -0.038 A 
ATOM      3  C   UNL     1       0.018  -0.629  -1.205  0.00  0.00    +0.005 A 
ATOM      4  C   UNL     1       0.084  -2.007  -1.243  0.00  0.00    +0.013 A 
ATOM      5  C   UNL     1       0.258  -2.734  -0.063  0.00  0.00    +0.037 A 
ATOM      6  C   UNL     1       0.366  -2.066   1.154  0.00  0.00    +0.026 A 
ATOM      7  C   UNL     1       0.304  -0.674   1.185  0.00  0.00    +0.041 A 
ENDROOT
BRANCH   7   8
ATOM      8  C   UNL     1       0.423   0.045   2.471  0.00  0.00    +0.249 C 
ATOM      9  O   UNL     1       0.487   1.259   2.486  0.00  0.00    -0.270 OA
ATOM     10  N   UNL     1       0.460  -0.646   3.628  0.00  0.00    -0.280 N 
ATOM     11  H   UNL     1       0.484  -1.616   3.613  0.00  0.00    +0.155 HD
BRANCH  10  12
ATOM     12  C   UNL     1       0.463   0.036   4.852  0.00  0.00    +0.052 A 
ATOM     13  C   UNL     1      -0.241   1.231   4.995  0.00  0.00    +0.028 A 
ATOM     14  C   UNL     1      -0.210   1.870   6.221  0.00  0.00    +0.045 A 
ATOM     15  C   UNL     1       0.517   1.304   7.263  0.00  0.00    +0.116 A 
ATOM     16  N   UNL     1       1.174   0.168   7.091  0.00  0.00    -0.239 NA
ATOM     17  C   UNL     1       1.162  -0.471   5.936  0.00  0.00    +0.136 A 
ATOM     18  N   UNL     1       0.555   1.940   8.501  0.00  0.00    -0.343 N 
ATOM     19  H   UNL     1       0.076   2.773   8.633  0.00  0.00    +0.144 HD
ATOM     20  H   UNL     1       1.061   1.550   9.231  0.00  0.00    +0.144 HD
ENDBRANCH  10  12
ENDBRANCH   7   8
BRANCH   5  21
ATOM     21  C   UNL     1       0.328  -4.211  -0.106  0.00  0.00    +0.244 C 
ATOM     22  O   UNL     1       0.480  -4.842   0.921  0.00  0.00    -0.270 OA
ATOM     23  N   UNL     1       0.223  -4.856  -1.285  0.00  0.00    -0.311 N 
ATOM     24  H   UNL     1       0.102  -4.352  -2.104  0.00  0.00    +0.149 HD
BRANCH  23  25
ATOM     25  C   UNL     1       0.292  -6.319  -1.327  0.00  0.00    +0.105 C 
BRANCH  25  26
ATOM     26  C   UNL     1       0.148  -6.795  -2.774  0.00  0.00    +0.022 C 
BRANCH  26  27
ATOM     27  C   UNL     1       0.220  -8.322  -2.818  0.00  0.00    -0.010 C 
ATOM     28  C   UNL     1      -1.051  -8.944  -2.189  0.00  0.00    +0.003 C 
ATOM     29  C   UNL     1      -1.104 -10.348  -2.840  0.00  0.00    +0.000 C 
ATOM     30  C   UNL     1      -0.640 -10.109  -4.292  0.00  0.00    +0.000 C 
ATOM     31  C   UNL     1       0.202  -8.821  -4.278  0.00  0.00    +0.003 C 
ENDBRANCH  26  27
ENDBRANCH  25  26
ENDBRANCH  23  25
ENDBRANCH   5  21
TORSDOF 6
