REMARK  Name = CHEMBL509101
REMARK  5 active torsions:
REMARK  status: ('A' for Active; 'I' for Inactive)
REMARK    1  A    between atoms: C_3  and  C_15
REMARK    2  A    between atoms: N_6  and  C_8
REMARK    3  A    between atoms: N_17  and  C_18
REMARK    4  A    between atoms: C_21  and  O_25
REMARK    5  A    between atoms: O_25  and  C_26
REMARK                            x       y       z     vdW  Elec       q    Type
REMARK                         _______ _______ _______ _____ _____    ______ ____
ROOT
ATOM      1  C   UNL     1       4.009   1.685   0.328  0.00  0.00    +0.254 C 
ATOM      2  O   UNL     1       4.161   2.780   0.837  0.00  0.00    -0.270 OA
ATOM      3  N   UNL     1       4.992   1.149  -0.423  0.00  0.00    -0.281 N 
ATOM      4  H   UNL     1       4.831   0.332  -0.920  0.00  0.00    +0.155 HD
ENDROOT
BRANCH   1   7
ATOM      5  C   UNL     1       0.623   0.679   1.609  0.00  0.00    +0.019 A 
ATOM      6  C   UNL     1       1.802   1.405   1.442  0.00  0.00    +0.020 A 
ATOM      7  C   UNL     1       2.754   0.947   0.532  0.00  0.00    +0.102 A 
ATOM      8  C   UNL     1       2.490  -0.242  -0.194  0.00  0.00    +0.268 A 
ATOM      9  O   UNL     1       3.306  -0.663  -0.996  0.00  0.00    -0.267 OA
ATOM     10  N   UNL     1       1.335  -0.905   0.005  0.00  0.00    -0.284 N 
ATOM     11  C   UNL     1       0.414  -0.455   0.892  0.00  0.00    +0.095 A 
BRANCH  10  12
ATOM     12  C   UNL     1       1.081  -2.079  -0.716  0.00  0.00    +0.050 A 
ATOM     13  C   UNL     1       1.827  -3.224  -0.466  0.00  0.00    +0.029 A 
ATOM     14  C   UNL     1       1.575  -4.380  -1.178  0.00  0.00    +0.040 A 
ATOM     15  C   UNL     1       0.579  -4.398  -2.141  0.00  0.00    +0.124 A 
ATOM     16  C   UNL     1      -0.165  -3.257  -2.392  0.00  0.00    +0.040 A 
ATOM     17  C   UNL     1       0.079  -2.101  -1.678  0.00  0.00    +0.029 A 
ATOM     18  F   UNL     1       0.334  -5.530  -2.837  0.00  0.00    -0.205 F 
ENDBRANCH  10  12
ENDBRANCH   1   7
BRANCH   3  19
ATOM     19  C   UNL     1       6.244   1.772  -0.485  0.00  0.00    +0.037 A 
ATOM     20  C   UNL     1       6.354   3.136  -0.249  0.00  0.00    +0.027 A 
ATOM     21  C   UNL     1       7.590   3.750  -0.309  0.00  0.00    +0.051 A 
ATOM     22  C   UNL     1       8.722   3.006  -0.607  0.00  0.00    +0.164 A 
ATOM     23  C   UNL     1       8.613   1.641  -0.845  0.00  0.00    +0.167 A 
ATOM     24  C   UNL     1       7.377   1.024  -0.778  0.00  0.00    +0.065 A 
ATOM     25  F   UNL     1       9.715   0.916  -1.135  0.00  0.00    -0.202 F 
BRANCH  22  26
ATOM     26  O   UNL     1       9.937   3.612  -0.668  0.00  0.00    -0.452 OA
BRANCH  26  27
ATOM     27  C   UNL     1      10.509   3.771  -1.888  0.00  0.00    +0.141 A 
ATOM     28  C   UNL     1       9.826   3.433  -3.049  0.00  0.00    +0.066 A 
ATOM     29  C   UNL     1      10.443   3.611  -4.275  0.00  0.00    +0.117 A 
ATOM     30  N   UNL     1      11.665   4.093  -4.370  0.00  0.00    -0.237 NA
ATOM     31  C   UNL     1      12.368   4.434  -3.296  0.00  0.00    +0.142 A 
ATOM     32  C   UNL     1      11.807   4.288  -2.016  0.00  0.00    +0.061 A 
ATOM     33  C   UNL     1      12.820   4.753  -1.068  0.00  0.00    +0.032 A 
ATOM     34  C   UNL     1      13.882   5.140  -1.792  0.00  0.00    +0.085 A 
ATOM     35  N   UNL     1      13.631   4.948  -3.125  0.00  0.00    -0.346 N 
ATOM     36  H   UNL     1      14.250   5.154  -3.843  0.00  0.00    +0.167 HD
ENDBRANCH  26  27
ENDBRANCH  22  26
ENDBRANCH   3  19
TORSDOF 5
