REMARK  Name = CHEMBL373845
REMARK  7 active torsions:
REMARK  status: ('A' for Active; 'I' for Inactive)
REMARK    1  A    between atoms: C_1  and  C_2
REMARK    2  A    between atoms: C_6  and  N_8
REMARK    3  A    between atoms: N_11  and  C_12
REMARK    4  A    between atoms: C_15  and  C_18
REMARK    5  A    between atoms: C_21  and  C_29
REMARK    6  A    between atoms: C_29  and  N_30
REMARK    7  A    between atoms: N_33  and  C_36
REMARK                            x       y       z     vdW  Elec       q    Type
REMARK                         _______ _______ _______ _____ _____    ______ ____
ROOT
ATOM      1  C   UNL     1       0.460 -10.462   3.502  0.00  0.00    -0.005 A 
ATOM      2  C   UNL     1      -0.328 -11.167   2.602  0.00  0.00    +0.009 A 
ATOM      3  C   UNL     1      -0.328 -12.553   2.607  0.00  0.00    +0.007 A 
ATOM      4  C   UNL     1       0.450 -13.255   3.501  0.00  0.00    -0.008 A 
ATOM      5  C   UNL     1       1.252 -12.574   4.416  0.00  0.00    +0.073 A 
ATOM      6  C   UNL     1       1.265 -11.168   4.416  0.00  0.00    +0.049 A 
ATOM      7  C   UNL     1       2.195 -10.765   5.469  0.00  0.00    +0.146 A 
ATOM      8  N   UNL     1       2.672 -11.853   6.014  0.00  0.00    -0.158 NA
ATOM      9  N   UNL     1       2.112 -12.979   5.403  0.00  0.00    -0.275 N 
ATOM     10  H   UNL     1       2.310 -13.900   5.634  0.00  0.00    +0.189 HD
ATOM     11  N   UNL     1       2.516  -9.453   5.828  0.00  0.00    -0.341 N 
ATOM     12  H   UNL     1       2.015  -8.711   5.454  0.00  0.00    +0.144 HD
ATOM     13  H   UNL     1       3.239  -9.284   6.452  0.00  0.00    +0.144 HD
ENDROOT
BRANCH   1  17
ATOM     14  C   UNL     1       0.456  -6.210   3.485  0.00  0.00    +0.035 A 
ATOM     15  C   UNL     1      -0.737  -6.904   3.649  0.00  0.00    +0.024 A 
ATOM     16  C   UNL     1      -0.739  -8.283   3.655  0.00  0.00    +0.010 A 
ATOM     17  C   UNL     1       0.458  -8.981   3.495  0.00  0.00    -0.017 A 
ATOM     18  C   UNL     1       1.654  -8.282   3.331  0.00  0.00    +0.010 A 
ATOM     19  C   UNL     1       1.649  -6.904   3.321  0.00  0.00    +0.024 A 
BRANCH  14  23
ATOM     20  N   UNL     1      -0.493  -2.792   4.166  0.00  0.00    -0.269 N 
ATOM     21  C   UNL     1      -0.423  -4.136   4.247  0.00  0.00    +0.308 C 
ATOM     22  O   UNL     1      -1.150  -4.738   5.013  0.00  0.00    -0.252 OA
ATOM     23  N   UNL     1       0.455  -4.812   3.480  0.00  0.00    -0.269 N 
ATOM     24  H   UNL     1       0.033  -2.318   3.504  0.00  0.00    +0.156 HD
ATOM     25  H   UNL     1       1.085  -4.329   2.923  0.00  0.00    +0.156 HD
BRANCH  20  31
ATOM     26  C   UNL     1      -3.456   1.041   5.003  0.00  0.00    +0.044 C 
ATOM     27  C   UNL     1      -2.776  -0.220   5.469  0.00  0.00    -0.049 A 
ATOM     28  C   UNL     1      -2.975  -0.677   6.760  0.00  0.00    +0.003 A 
ATOM     29  C   UNL     1      -2.352  -1.833   7.191  0.00  0.00    +0.002 A 
ATOM     30  C   UNL     1      -1.529  -2.537   6.333  0.00  0.00    +0.023 A 
ATOM     31  C   UNL     1      -1.327  -2.082   5.037  0.00  0.00    +0.035 A 
ATOM     32  C   UNL     1      -1.958  -0.922   4.606  0.00  0.00    +0.026 A 
ENDBRANCH  20  31
ENDBRANCH  14  23
ENDBRANCH   1  17
BRANCH   4  33
ATOM     33  C   UNL     1       0.435 -14.762   3.490  0.00  0.00    +0.121 C 
BRANCH  33  34
ATOM     34  N   UNL     1      -0.439 -15.250   4.565  0.00  0.00    -0.302 NA
ATOM     35  C   UNL     1       0.116 -14.921   5.886  0.00  0.00    +0.066 C 
ATOM     36  C   UNL     1      -0.851 -15.393   6.974  0.00  0.00    -0.064 C 
ATOM     37  N   UNL     1      -1.051 -16.843   6.856  0.00  0.00    +0.379 N 
ATOM     38  C   UNL     1      -1.629 -17.154   5.542  0.00  0.00    -0.064 C 
ATOM     39  C   UNL     1      -0.669 -16.696   4.441  0.00  0.00    +0.066 C 
ATOM     40  C   UNL     1      -1.965 -17.298   7.912  0.00  0.00    -0.096 C 
ATOM     41  H   UNL     1      -0.164 -17.314   6.953  0.00  0.00    -0.082 HD
ENDBRANCH  33  34
ENDBRANCH   4  33
TORSDOF 5
