REMARK  Name = CHEMBL377193
REMARK  4 active torsions:
REMARK  status: ('A' for Active; 'I' for Inactive)
REMARK    1  A    between atoms: C_6  and  O_7
REMARK    2  A    between atoms: C_9  and  C_12
REMARK    3  A    between atoms: C_12  and  C_14
REMARK    4  A    between atoms: C_18  and  O_24
REMARK                            x       y       z     vdW  Elec       q    Type
REMARK                         _______ _______ _______ _____ _____    ______ ____
ROOT
ATOM      1  C   UNL     1       5.990   0.820  -0.050  0.00  0.00    +0.225 C 
ATOM      2  O   UNL     1       6.605  -0.219  -0.212  0.00  0.00    -0.284 OA
ENDROOT
BRANCH   1  10
ATOM      3  C   UNL     1       0.147   1.409   1.335  0.00  0.00    +0.047 A 
ATOM      4  C   UNL     1       1.325   2.109   1.208  0.00  0.00    +0.030 A 
ATOM      5  C   UNL     1       2.490   1.448   0.831  0.00  0.00    +0.047 A 
ATOM      6  C   UNL     1       2.454   0.062   0.580  0.00  0.00    +0.004 A 
ATOM      7  C   UNL     1       1.247  -0.637   0.713  0.00  0.00    +0.055 A 
ATOM      8  C   UNL     1       0.105   0.038   1.089  0.00  0.00    +0.118 A 
ATOM      9  C   UNL     1       3.767  -0.327   0.221  0.00  0.00    +0.039 A 
ATOM     10  C   UNL     1       4.553   0.783   0.256  0.00  0.00    +0.090 A 
ATOM     11  N   UNL     1       3.786   1.869   0.626  0.00  0.00    -0.352 N 
ATOM     12  H   UNL     1       4.106   2.780   0.726  0.00  0.00    +0.166 HD
BRANCH   8  13
ATOM     13  O   UNL     1      -1.068  -0.637   1.219  0.00  0.00    -0.507 OA
ATOM     14  H   UNL     1      -1.593  -0.674   0.407  0.00  0.00    +0.292 HD
ENDBRANCH   8  13
ENDBRANCH   1  10
BRANCH   1  15
ATOM     15  C   UNL     1       6.685   2.110  -0.161  0.00  0.00    +0.090 A 
ATOM     16  C   UNL     1       8.031   2.273  -0.285  0.00  0.00    +0.039 A 
ATOM     17  C   UNL     1       8.291   3.662  -0.361  0.00  0.00    +0.004 A 
ATOM     18  C   UNL     1       9.467   4.413  -0.493  0.00  0.00    +0.055 A 
ATOM     19  C   UNL     1       9.397   5.789  -0.539  0.00  0.00    +0.118 A 
ATOM     20  C   UNL     1       8.164   6.434  -0.455  0.00  0.00    +0.047 A 
ATOM     21  C   UNL     1       7.001   5.709  -0.325  0.00  0.00    +0.030 A 
ATOM     22  C   UNL     1       7.048   4.319  -0.278  0.00  0.00    +0.047 A 
ATOM     23  N   UNL     1       6.077   3.349  -0.161  0.00  0.00    -0.352 N 
ATOM     24  H   UNL     1       5.124   3.511  -0.088  0.00  0.00    +0.166 HD
BRANCH  19  25
ATOM     25  O   UNL     1      10.536   6.521  -0.667  0.00  0.00    -0.507 OA
ATOM     26  H   UNL     1      10.788   6.699  -1.583  0.00  0.00    +0.292 HD
ENDBRANCH  19  25
ENDBRANCH   1  15
TORSDOF 4
