REMARK  Name = CHEMBL197610
REMARK  9 active torsions:
REMARK  status: ('A' for Active; 'I' for Inactive)
REMARK    1  A    between atoms: C_1  and  C_2
REMARK    2  A    between atoms: C_2  and  N_3
REMARK    3  A    between atoms: N_3  and  C_4
REMARK    4  A    between atoms: N_3  and  C_6
REMARK    5  A    between atoms: C_4  and  C_5
REMARK    6  A    between atoms: C_6  and  C_7
REMARK    7  A    between atoms: C_7  and  C_8
REMARK    8  A    between atoms: C_8  and  N_9
REMARK    9  A    between atoms: C_23  and  C_28
REMARK                            x       y       z     vdW  Elec       q    Type
REMARK                         _______ _______ _______ _____ _____    ______ ____
ROOT
ATOM      1  N   UNL     1      -0.169  -3.893   3.441  0.00  0.00    -0.329 N 
ATOM      2  C   UNL     1      -0.092  -5.176   3.953  0.00  0.00    +0.126 A 
ATOM      3  C   UNL     1       0.516  -5.405   5.209  0.00  0.00    +0.023 A 
ATOM      4  C   UNL     1       1.053  -4.362   5.967  0.00  0.00    +0.022 A 
ATOM      5  C   UNL     1       1.637  -4.638   7.190  0.00  0.00    +0.010 A 
ATOM      6  C   UNL     1       2.280  -3.790   8.212  0.00  0.00    +0.026 A 
ATOM      7  C   UNL     1       2.526  -2.423   8.311  0.00  0.00    +0.013 A 
ATOM      8  C   UNL     1       3.171  -1.956   9.444  0.00  0.00    +0.020 A 
ATOM      9  C   UNL     1       3.544  -2.854  10.429  0.00  0.00    +0.113 A 
ATOM     10  N   UNL     1       3.301  -4.143  10.312  0.00  0.00    -0.237 NA
ATOM     11  C   UNL     1       2.686  -4.645   9.248  0.00  0.00    +0.139 A 
ATOM     12  N   UNL     1       2.330  -5.937   8.913  0.00  0.00    -0.339 N 
ATOM     13  H   UNL     1       2.499  -6.717   9.464  0.00  0.00    +0.167 HD
ATOM     14  C   UNL     1       1.698  -5.961   7.681  0.00  0.00    +0.052 A 
ATOM     15  C   UNL     1       1.170  -7.000   6.938  0.00  0.00    -0.019 A 
ATOM     16  C   UNL     1       0.576  -6.736   5.700  0.00  0.00    -0.008 A 
ATOM     17  C   UNL     1       0.023  -7.764   4.907  0.00  0.00    +0.028 A 
ATOM     18  C   UNL     1      -0.541  -7.442   3.713  0.00  0.00    +0.113 A 
ATOM     19  N   UNL     1      -0.592  -6.190   3.273  0.00  0.00    -0.240 NA
ATOM     20  C   UNL     1       1.233  -8.412   7.460  0.00  0.00    +0.046 C 
ATOM     21  H   UNL     1       0.199  -3.148   3.943  0.00  0.00    +0.147 HD
ENDROOT
BRANCH   1  22
ATOM     22  C   UNL     1      -0.805  -3.658   2.143  0.00  0.00    +0.101 C 
BRANCH  22  23
ATOM     23  C   UNL     1      -0.756  -2.164   1.814  0.00  0.00    +0.000 C 
BRANCH  23  24
ATOM     24  C   UNL     1      -1.421  -1.919   0.458  0.00  0.00    -0.077 C 
BRANCH  24  25
ATOM     25  N   UNL     1      -1.374  -0.485   0.142  0.00  0.00    +0.379 N 
ATOM     26  H   UNL     1      -1.792   0.039   0.895  0.00  0.00    -0.082 HD
BRANCH  25  28
ATOM     27  C   UNL     1       0.082   1.451  -0.216  0.00  0.00    -0.017 C 
ATOM     28  C   UNL     1       0.024  -0.066  -0.029  0.00  0.00    -0.082 C 
ENDBRANCH  25  28
BRANCH  25  29
ATOM     29  C   UNL     1      -2.116  -0.233  -1.101  0.00  0.00    -0.082 C 
ATOM     30  C   UNL     1      -3.600  -0.533  -0.879  0.00  0.00    -0.017 C 
ENDBRANCH  25  29
ENDBRANCH  24  25
ENDBRANCH  23  24
ENDBRANCH  22  23
ENDBRANCH   1  22
TORSDOF 6
