REMARK  Name = CHEMBL573577
REMARK  9 active torsions:
REMARK  status: ('A' for Active; 'I' for Inactive)
REMARK    1  A    between atoms: C_1  and  C_2
REMARK    2  A    between atoms: C_3  and  C_22
REMARK    3  A    between atoms: C_6  and  C_21
REMARK    4  A    between atoms: C_7  and  C_8
REMARK    5  A    between atoms: N_10  and  C_11
REMARK    6  A    between atoms: C_11  and  C_12
REMARK    7  A    between atoms: C_12  and  C_13
REMARK    8  A    between atoms: C_12  and  O_20
REMARK    9  A    between atoms: C_13  and  N_14
REMARK                            x       y       z     vdW  Elec       q    Type
REMARK                         _______ _______ _______ _____ _____    ______ ____
ROOT
ATOM      1  C   UNL     1      -1.725   0.541   1.099  0.00  0.00    +0.047 C 
ATOM      2  C   UNL     1      -1.035  -0.777   0.864  0.00  0.00    -0.013 A 
ATOM      3  C   UNL     1      -0.973  -1.473  -0.327  0.00  0.00    +0.044 A 
ATOM      4  N   UNL     1      -0.249  -2.627  -0.110  0.00  0.00    -0.358 N 
ATOM      5  H   UNL     1      -0.052  -3.301  -0.779  0.00  0.00    +0.166 HD
ATOM      6  C   UNL     1       0.139  -2.671   1.176  0.00  0.00    +0.026 A 
ATOM      7  C   UNL     1      -0.323  -1.536   1.818  0.00  0.00    +0.060 A 
ATOM      8  C   UNL     1       0.950  -3.771   1.811  0.00  0.00    +0.064 C 
ENDROOT
BRANCH   3   9
ATOM      9  C   UNL     1      -1.549  -1.073  -1.553  0.00  0.00    +0.039 C 
ATOM     10  C   UNL     1      -2.138  -2.011  -2.377  0.00  0.00    +0.048 C 
ATOM     11  C   UNL     1      -2.647  -1.808  -3.752  0.00  0.00    +0.011 A 
ATOM     12  C   UNL     1      -2.698  -0.703  -4.596  0.00  0.00    +0.048 A 
ATOM     13  C   UNL     1      -3.249  -0.830  -5.857  0.00  0.00    +0.124 A 
ATOM     14  C   UNL     1      -3.750  -2.053  -6.276  0.00  0.00    +0.040 A 
ATOM     15  C   UNL     1      -3.704  -3.154  -5.445  0.00  0.00    +0.027 A 
ATOM     16  C   UNL     1      -3.152  -3.045  -4.173  0.00  0.00    +0.042 A 
ATOM     17  N   UNL     1      -2.985  -3.977  -3.154  0.00  0.00    -0.281 N 
ATOM     18  C   UNL     1      -2.390  -3.428  -2.081  0.00  0.00    +0.249 C 
ATOM     19  O   UNL     1      -2.112  -4.003  -1.044  0.00  0.00    -0.270 OA
ATOM     20  F   UNL     1      -3.302   0.239  -6.681  0.00  0.00    -0.205 F 
ATOM     21  H   UNL     1      -3.258  -4.906  -3.212  0.00  0.00    +0.155 HD
ENDBRANCH   3   9
BRANCH   7  22
ATOM     22  C   UNL     1      -0.114  -1.186   3.234  0.00  0.00    +0.246 C 
ATOM     23  O   UNL     1      -0.913  -1.550   4.075  0.00  0.00    -0.270 OA
ATOM     24  N   UNL     1       0.964  -0.462   3.598  0.00  0.00    -0.309 N 
ATOM     25  H   UNL     1       1.601  -0.172   2.927  0.00  0.00    +0.149 HD
BRANCH  24  26
ATOM     26  C   UNL     1       1.172  -0.115   5.005  0.00  0.00    +0.133 C 
BRANCH  26  27
ATOM     27  C   UNL     1       2.457   0.703   5.144  0.00  0.00    +0.115 C 
BRANCH  27  28
ATOM     28  O   UNL     1       3.565  -0.068   4.675  0.00  0.00    -0.392 OA
ATOM     29  H   UNL     1       3.700  -0.895   5.156  0.00  0.00    +0.210 HD
ENDBRANCH  27  28
BRANCH  27  30
ATOM     30  C   UNL     1       2.675   1.067   6.614  0.00  0.00    -0.045 C 
BRANCH  30  31
ATOM     31  N   UNL     1       3.843   1.949   6.733  0.00  0.00    +0.384 N 
ATOM     32  C   UNL     1       4.139   2.181   8.153  0.00  0.00    -0.050 C 
ATOM     33  C   UNL     1       5.357   3.101   8.275  0.00  0.00    +0.141 C 
ATOM     34  O   UNL     1       5.093   4.326   7.586  0.00  0.00    -0.383 OA
ATOM     35  C   UNL     1       4.776   4.150   6.202  0.00  0.00    +0.141 C 
ATOM     36  C   UNL     1       3.557   3.232   6.077  0.00  0.00    -0.050 C 
ATOM     37  H   UNL     1       4.639   1.515   6.290  0.00  0.00    -0.082 HD
ENDBRANCH  30  31
ENDBRANCH  27  30
ENDBRANCH  26  27
ENDBRANCH  24  26
ENDBRANCH   7  22
TORSDOF 7
