REMARK  Name = CHEMBL124660
REMARK  12 active torsions:
REMARK  status: ('A' for Active; 'I' for Inactive)
REMARK    1  A    between atoms: C_1  and  C_2
REMARK    2  A    between atoms: C_2  and  C_3
REMARK    3  A    between atoms: C_2  and  O_4
REMARK    4  A    between atoms: O_4  and  C_5
REMARK    5  A    between atoms: C_8  and  N_11
REMARK    6  A    between atoms: C_23  and  O_40
REMARK    7  A    between atoms: C_24  and  O_30
REMARK    8  A    between atoms: O_30  and  C_31
REMARK    9  A    between atoms: C_31  and  C_32
REMARK   10  A    between atoms: C_32  and  C_33
REMARK   11  A    between atoms: C_33  and  N_34
REMARK   12  A    between atoms: O_40  and  C_41
REMARK                            x       y       z     vdW  Elec       q    Type
REMARK                         _______ _______ _______ _____ _____    ______ ____
ROOT
ATOM      1  N   UNL     1      -2.398  -3.744   5.166  0.00  0.00    -0.269 N 
ATOM      2  C   UNL     1      -2.640  -2.746   6.038  0.00  0.00    +0.307 C 
ATOM      3  O   UNL     1      -2.193  -1.635   5.830  0.00  0.00    -0.252 OA
ATOM      4  N   UNL     1      -3.377  -2.980   7.142  0.00  0.00    -0.282 N 
ATOM      5  C   UNL     1      -3.765  -4.350   7.506  0.00  0.00    +0.128 C 
ATOM      6  C   UNL     1      -3.292  -4.629   8.938  0.00  0.00    +0.125 C 
ATOM      7  N   UNL     1      -3.723  -3.519   9.800  0.00  0.00    -0.312 N 
ATOM      8  C   UNL     1      -3.335  -2.148   9.436  0.00  0.00    +0.125 C 
ATOM      9  C   UNL     1      -3.803  -1.870   8.007  0.00  0.00    +0.128 C 
ATOM     10  C   UNL     1      -4.477  -3.758  10.929  0.00  0.00    +0.132 A 
ATOM     11  C   UNL     1      -3.863  -3.905  12.196  0.00  0.00    +0.044 A 
ATOM     12  C   UNL     1      -2.475  -3.816  12.361  0.00  0.00    +0.062 A 
ATOM     13  C   UNL     1      -1.931  -3.966  13.604  0.00  0.00    +0.162 A 
ATOM     14  C   UNL     1      -2.746  -4.208  14.719  0.00  0.00    +0.164 A 
ATOM     15  C   UNL     1      -4.113  -4.300  14.583  0.00  0.00    +0.078 A 
ATOM     16  C   UNL     1      -4.693  -4.149  13.317  0.00  0.00    +0.080 A 
ATOM     17  N   UNL     1      -6.020  -4.230  13.132  0.00  0.00    -0.235 NA
ATOM     18  C   UNL     1      -6.534  -4.085  11.934  0.00  0.00    +0.223 A 
ATOM     19  N   UNL     1      -5.798  -3.851  10.859  0.00  0.00    -0.220 NA
ATOM     20  H   UNL     1      -2.655  -4.653   5.385  0.00  0.00    +0.156 HD
ENDROOT
BRANCH   1  24
ATOM     21  C   UNL     1      -0.545  -2.923   1.521  0.00  0.00    +0.121 A 
ATOM     22  C   UNL     1      -1.395  -4.013   1.637  0.00  0.00    +0.047 A 
ATOM     23  C   UNL     1      -2.009  -4.285   2.843  0.00  0.00    +0.027 A 
ATOM     24  C   UNL     1      -1.775  -3.468   3.941  0.00  0.00    +0.035 A 
ATOM     25  C   UNL     1      -0.923  -2.378   3.825  0.00  0.00    +0.027 A 
ATOM     26  C   UNL     1      -0.306  -2.109   2.619  0.00  0.00    +0.047 A 
BRANCH  21  27
ATOM     27  O   UNL     1       0.059  -2.655   0.333  0.00  0.00    -0.489 OA
BRANCH  27  29
ATOM     28  C   UNL     1       2.272  -1.894   0.935  0.00  0.00    +0.051 C 
ATOM     29  C   UNL     1       0.935  -1.527   0.290  0.00  0.00    +0.167 C 
ATOM     30  C   UNL     1       1.166  -1.116  -1.165  0.00  0.00    +0.051 C 
ENDBRANCH  27  29
ENDBRANCH  21  27
ENDBRANCH   1  24
BRANCH  13  31
ATOM     31  O   UNL     1      -0.583  -3.879  13.763  0.00  0.00    -0.491 OA
ATOM     32  C   UNL     1       0.194  -3.631  12.590  0.00  0.00    +0.277 C 
ENDBRANCH  13  31
BRANCH  14  33
ATOM     33  O   UNL     1      -2.181  -4.354  15.946  0.00  0.00    -0.488 OA
BRANCH  33  34
ATOM     34  C   UNL     1      -3.065  -4.599  17.042  0.00  0.00    +0.227 C 
BRANCH  34  35
ATOM     35  C   UNL     1      -2.252  -4.734  18.331  0.00  0.00    +0.022 C 
BRANCH  35  36
ATOM     36  C   UNL     1      -3.198  -4.997  19.505  0.00  0.00    -0.076 C 
BRANCH  36  37
ATOM     37  N   UNL     1      -2.418  -5.127  20.743  0.00  0.00    +0.380 N 
ATOM     38  C   UNL     1      -1.558  -6.312  20.655  0.00  0.00    -0.079 C 
ATOM     39  C   UNL     1      -0.684  -6.407  21.907  0.00  0.00    -0.019 C 
ATOM     40  C   UNL     1      -1.583  -6.517  23.143  0.00  0.00    -0.004 C 
ATOM     41  C   UNL     1      -2.527  -5.313  23.184  0.00  0.00    -0.019 C 
ATOM     42  C   UNL     1      -3.333  -5.258  21.884  0.00  0.00    -0.079 C 
ATOM     43  H   UNL     1      -1.845  -4.306  20.866  0.00  0.00    -0.082 HD
ENDBRANCH  36  37
ENDBRANCH  35  36
ENDBRANCH  34  35
ENDBRANCH  33  34
ENDBRANCH  14  33
TORSDOF 9
