REMARK  Name = CHEMBL444064
REMARK  11 active torsions:
REMARK  status: ('A' for Active; 'I' for Inactive)
REMARK    1  A    between atoms: C_1  and  C_2
REMARK    2  A    between atoms: C_2  and  C_3
REMARK    3  A    between atoms: C_2  and  O_4
REMARK    4  A    between atoms: O_4  and  C_5
REMARK    5  A    between atoms: C_8  and  N_11
REMARK    6  A    between atoms: C_23  and  O_39
REMARK    7  A    between atoms: C_24  and  O_30
REMARK    8  A    between atoms: O_30  and  C_31
REMARK    9  A    between atoms: C_31  and  C_32
REMARK   10  A    between atoms: C_32  and  N_33
REMARK   11  A    between atoms: O_39  and  C_40
REMARK                            x       y       z     vdW  Elec       q    Type
REMARK                         _______ _______ _______ _____ _____    ______ ____
ROOT
ATOM      1  N   UNL     1       7.198  -1.311   0.885  0.00  0.00    -0.269 N 
ATOM      2  C   UNL     1       8.284  -0.528   0.727  0.00  0.00    +0.307 C 
ATOM      3  O   UNL     1       8.161   0.680   0.679  0.00  0.00    -0.252 OA
ATOM      4  N   UNL     1       9.506  -1.086   0.623  0.00  0.00    -0.282 N 
ATOM      5  C   UNL     1       9.664  -2.547   0.610  0.00  0.00    +0.128 C 
ATOM      6  C   UNL     1      10.435  -2.946  -0.654  0.00  0.00    +0.125 C 
ATOM      7  N   UNL     1      11.634  -2.104  -0.758  0.00  0.00    -0.312 N 
ATOM      8  C   UNL     1      11.477  -0.643  -0.746  0.00  0.00    +0.125 C 
ATOM      9  C   UNL     1      10.706  -0.244   0.513  0.00  0.00    +0.128 C 
ATOM     10  C   UNL     1      12.886  -2.675  -0.865  0.00  0.00    +0.132 A 
ATOM     11  C   UNL     1      13.480  -2.890  -2.131  0.00  0.00    +0.044 A 
ATOM     12  C   UNL     1      12.834  -2.538  -3.323  0.00  0.00    +0.062 A 
ATOM     13  C   UNL     1      13.451  -2.766  -4.519  0.00  0.00    +0.162 A 
ATOM     14  C   UNL     1      14.725  -3.350  -4.569  0.00  0.00    +0.164 A 
ATOM     15  C   UNL     1      15.381  -3.705  -3.412  0.00  0.00    +0.078 A 
ATOM     16  C   UNL     1      14.768  -3.480  -2.174  0.00  0.00    +0.080 A 
ATOM     17  N   UNL     1      15.365  -3.807  -1.017  0.00  0.00    -0.235 NA
ATOM     18  C   UNL     1      14.766  -3.584   0.128  0.00  0.00    +0.223 A 
ATOM     19  N   UNL     1      13.566  -3.031   0.216  0.00  0.00    -0.220 NA
ATOM     20  H   UNL     1       7.294  -2.276   0.905  0.00  0.00    +0.156 HD
ENDROOT
BRANCH   1  24
ATOM     21  C   UNL     1       3.424   0.418   1.288  0.00  0.00    +0.121 A 
ATOM     22  C   UNL     1       3.709  -0.781   1.925  0.00  0.00    +0.047 A 
ATOM     23  C   UNL     1       4.958  -1.354   1.792  0.00  0.00    +0.027 A 
ATOM     24  C   UNL     1       5.929  -0.730   1.020  0.00  0.00    +0.035 A 
ATOM     25  C   UNL     1       5.644   0.470   0.383  0.00  0.00    +0.027 A 
ATOM     26  C   UNL     1       4.392   1.040   0.513  0.00  0.00    +0.047 A 
BRANCH  21  27
ATOM     27  O   UNL     1       2.194   0.982   1.419  0.00  0.00    -0.489 OA
BRANCH  27  29
ATOM     28  C   UNL     1       1.612   1.888  -0.744  0.00  0.00    +0.051 C 
ATOM     29  C   UNL     1       1.960   2.202   0.712  0.00  0.00    +0.167 C 
ATOM     30  C   UNL     1       0.799   2.955   1.364  0.00  0.00    +0.051 C 
ENDBRANCH  27  29
ENDBRANCH  21  27
ENDBRANCH   1  24
BRANCH  13  31
ATOM     31  O   UNL     1      12.822  -2.424  -5.676  0.00  0.00    -0.491 OA
ATOM     32  C   UNL     1      11.526  -1.833  -5.560  0.00  0.00    +0.277 C 
ENDBRANCH  13  31
BRANCH  14  33
ATOM     33  O   UNL     1      15.317  -3.568  -5.772  0.00  0.00    -0.490 OA
BRANCH  33  34
ATOM     34  C   UNL     1      16.615  -4.166  -5.757  0.00  0.00    +0.211 C 
BRANCH  34  35
ATOM     35  C   UNL     1      17.117  -4.331  -7.193  0.00  0.00    -0.037 C 
BRANCH  35  36
ATOM     36  N   UNL     1      17.128  -3.023  -7.862  0.00  0.00    +0.382 N 
ATOM     37  C   UNL     1      17.585  -3.188  -9.247  0.00  0.00    -0.079 C 
ATOM     38  C   UNL     1      17.520  -1.842  -9.972  0.00  0.00    -0.019 C 
ATOM     39  C   UNL     1      18.422  -0.836  -9.251  0.00  0.00    -0.004 C 
ATOM     40  C   UNL     1      17.983  -0.728  -7.788  0.00  0.00    -0.019 C 
ATOM     41  C   UNL     1      18.030  -2.115  -7.144  0.00  0.00    -0.079 C 
ATOM     42  H   UNL     1      16.195  -2.639  -7.861  0.00  0.00    -0.082 HD
ENDBRANCH  35  36
ENDBRANCH  34  35
ENDBRANCH  33  34
ENDBRANCH  14  33
TORSDOF 8
