REMARK  Name = CHEMBL202919
REMARK  10 active torsions:
REMARK  status: ('A' for Active; 'I' for Inactive)
REMARK    1  A    between atoms: C_1  and  O_2
REMARK    2  A    between atoms: O_2  and  C_3
REMARK    3  A    between atoms: C_6  and  O_15
REMARK    4  A    between atoms: C_12  and  O_13
REMARK    5  A    between atoms: O_13  and  C_14
REMARK    6  A    between atoms: O_15  and  C_16
REMARK    7  A    between atoms: C_19  and  N_22
REMARK    8  A    between atoms: N_22  and  C_23
REMARK    9  A    between atoms: C_23  and  N_25
REMARK   10  A    between atoms: C_26  and  C_28
REMARK                            x       y       z     vdW  Elec       q    Type
REMARK                         _______ _______ _______ _____ _____    ______ ____
ROOT
ATOM      1  C   UNL     1       2.963   2.360  -5.131  0.00  0.00    +0.129 A 
ATOM      2  C   UNL     1       3.182   1.830  -6.394  0.00  0.00    +0.048 A 
ATOM      3  C   UNL     1       3.768   2.605  -7.375  0.00  0.00    +0.027 A 
ATOM      4  C   UNL     1       4.137   3.915  -7.098  0.00  0.00    +0.033 A 
ATOM      5  C   UNL     1       3.917   4.444  -5.833  0.00  0.00    +0.027 A 
ATOM      6  C   UNL     1       3.326   3.670  -4.854  0.00  0.00    +0.048 A 
ENDROOT
BRANCH   4   7
ATOM      7  N   UNL     1       4.731   4.701  -8.092  0.00  0.00    -0.297 N 
ATOM      8  H   UNL     1       5.514   5.235  -7.885  0.00  0.00    +0.154 HD
BRANCH   7   9
ATOM      9  C   UNL     1       4.215   4.717  -9.337  0.00  0.00    +0.141 C 
ATOM     10  S   UNL     1       2.900   3.694  -9.732  0.00  0.00    -0.018 S 
BRANCH   9  11
ATOM     11  N   UNL     1       4.734   5.538 -10.272  0.00  0.00    -0.264 N 
ATOM     12  C   UNL     1       4.218   5.553 -11.517  0.00  0.00    +0.251 C 
ATOM     13  O   UNL     1       3.284   4.827 -11.796  0.00  0.00    -0.270 OA
ATOM     14  H   UNL     1       5.479   6.117 -10.048  0.00  0.00    +0.157 HD
BRANCH  12  15
ATOM     15  C   UNL     1       4.786   6.453 -12.541  0.00  0.00    +0.055 A 
ATOM     16  C   UNL     1       5.863   7.285 -12.224  0.00  0.00    +0.014 A 
ATOM     17  C   UNL     1       6.389   8.122 -13.185  0.00  0.00    +0.001 A 
ATOM     18  C   UNL     1       5.853   8.141 -14.461  0.00  0.00    +0.001 A 
ATOM     19  C   UNL     1       4.787   7.320 -14.783  0.00  0.00    +0.021 A 
ATOM     20  C   UNL     1       4.254   6.472 -13.832  0.00  0.00    +0.053 A 
ATOM     21 CL   UNL     1       2.921   5.437 -14.239  0.00  0.00    -0.083 Cl
ENDBRANCH  12  15
ENDBRANCH   9  11
ENDBRANCH   7   9
ENDBRANCH   4   7
BRANCH   1  22
ATOM     22  O   UNL     1       2.386   1.596  -4.165  0.00  0.00    -0.455 OA
BRANCH  22  26
ATOM     23  C   UNL     1       0.864  -0.697  -0.987  0.00  0.00    +0.162 A 
ATOM     24  C   UNL     1       1.325   0.064  -2.022  0.00  0.00    +0.063 A 
ATOM     25  C   UNL     1       2.650  -0.086  -2.458  0.00  0.00    +0.044 A 
ATOM     26  C   UNL     1       3.162   0.685  -3.526  0.00  0.00    +0.139 A 
ATOM     27  C   UNL     1       4.478   0.481  -3.901  0.00  0.00    +0.064 A 
ATOM     28  C   UNL     1       5.248  -0.459  -3.228  0.00  0.00    +0.086 A 
ATOM     29  N   UNL     1       4.762  -1.171  -2.238  0.00  0.00    -0.360 N 
ATOM     30  C   UNL     1       3.498  -1.025  -1.823  0.00  0.00    +0.054 A 
ATOM     31  C   UNL     1       2.995  -1.794  -0.761  0.00  0.00    +0.075 A 
ATOM     32  C   UNL     1       1.704  -1.624  -0.352  0.00  0.00    +0.163 A 
ATOM     33  H   UNL     1       5.334  -1.817  -1.796  0.00  0.00    +0.165 HD
BRANCH  23  35
ATOM     34  C   UNL     1      -1.224   0.408  -1.251  0.00  0.00    +0.277 C 
ATOM     35  O   UNL     1      -0.420  -0.552  -0.564  0.00  0.00    -0.491 OA
ENDBRANCH  23  35
BRANCH  32  36
ATOM     36  O   UNL     1       1.224  -2.366   0.680  0.00  0.00    -0.491 OA
ATOM     37  C   UNL     1       2.126  -3.293   1.287  0.00  0.00    +0.277 C 
ENDBRANCH  32  36
ENDBRANCH  22  26
ENDBRANCH   1  22
TORSDOF 8
