REMARK  Name = CHEMBL184082
REMARK  7 active torsions:
REMARK  status: ('A' for Active; 'I' for Inactive)
REMARK    1  A    between atoms: C_1  and  O_2
REMARK    2  A    between atoms: O_2  and  C_3
REMARK    3  A    between atoms: C_8  and  O_9
REMARK    4  A    between atoms: O_9  and  C_10
REMARK    5  A    between atoms: C_10  and  C_11
REMARK    6  A    between atoms: C_11  and  N_12
REMARK    7  A    between atoms: N_29  and  C_30
REMARK                            x       y       z     vdW  Elec       q    Type
REMARK                         _______ _______ _______ _____ _____    ______ ____
ROOT
ATOM      1  C   UNL     1      -1.190   1.885  -0.639  0.00  0.00    +0.162 A 
ATOM      2  C   UNL     1      -0.432   2.070  -1.760  0.00  0.00    +0.062 A 
ATOM      3  C   UNL     1      -0.189   0.990  -2.619  0.00  0.00    +0.044 A 
ATOM      4  C   UNL     1      -0.730  -0.285  -2.320  0.00  0.00    +0.080 A 
ATOM      5  C   UNL     1      -1.504  -0.451  -1.166  0.00  0.00    +0.078 A 
ATOM      6  C   UNL     1      -1.724   0.625  -0.335  0.00  0.00    +0.164 A 
ATOM      7  N   UNL     1      -0.481  -1.303  -3.159  0.00  0.00    -0.235 NA
ATOM      8  C   UNL     1       0.248  -1.117  -4.233  0.00  0.00    +0.223 A 
ATOM      9  N   UNL     1       0.774   0.056  -4.552  0.00  0.00    -0.220 NA
ATOM     10  C   UNL     1       0.590   1.127  -3.792  0.00  0.00    +0.132 A 
ATOM     11  N   UNL     1       1.143   2.343  -4.137  0.00  0.00    -0.312 N 
ATOM     12  C   UNL     1       2.523   2.673  -3.752  0.00  0.00    +0.125 C 
ATOM     13  C   UNL     1       3.307   3.050  -5.016  0.00  0.00    +0.126 C 
ATOM     14  N   UNL     1       2.527   4.038  -5.775  0.00  0.00    -0.306 N 
ATOM     15  C   UNL     1       1.148   3.708  -6.159  0.00  0.00    +0.126 C 
ATOM     16  C   UNL     1       0.366   3.329  -4.901  0.00  0.00    +0.125 C 
ATOM     17  C   UNL     1       3.078   5.249  -6.118  0.00  0.00    +0.168 C 
ATOM     18  N   UNL     1       2.807   5.786  -7.286  0.00  0.00    -0.224 NA
ATOM     19  S   UNL     1       4.148   6.081  -4.992  0.00  0.00    -0.014 SA
ENDROOT
BRANCH  18  20
ATOM     20  C   UNL     1       2.112   5.071  -8.224  0.00  0.00    +0.085 A 
ATOM     21  C   UNL     1       0.941   5.589  -8.792  0.00  0.00    +0.032 A 
ATOM     22  C   UNL     1       0.276   4.827  -9.735  0.00  0.00    +0.042 A 
ATOM     23  C   UNL     1       0.784   3.587 -10.085  0.00  0.00    +0.129 A 
ATOM     24  N   UNL     1       1.890   3.124  -9.534  0.00  0.00    -0.241 NA
ATOM     25  C   UNL     1       2.561   3.815  -8.635  0.00  0.00    +0.140 A 
ATOM     26 CL   UNL     1      -0.048   2.627 -11.268  0.00  0.00    -0.062 Cl
ENDBRANCH  18  20
BRANCH   1  28
ATOM     27  C   UNL     1      -0.854   4.192  -0.170  0.00  0.00    +0.277 C 
ATOM     28  O   UNL     1      -1.425   2.934   0.194  0.00  0.00    -0.491 OA
ENDBRANCH   1  28
BRANCH   6  29
ATOM     29  O   UNL     1      -2.470   0.465   0.789  0.00  0.00    -0.490 OA
BRANCH  29  30
ATOM     30  C   UNL     1      -2.986  -0.843   1.044  0.00  0.00    +0.211 C 
BRANCH  30  31
ATOM     31  C   UNL     1      -3.795  -0.827   2.343  0.00  0.00    -0.037 C 
BRANCH  31  32
ATOM     32  N   UNL     1      -4.980   0.023   2.172  0.00  0.00    +0.382 N 
ATOM     33  C   UNL     1      -5.680   0.149   3.456  0.00  0.00    -0.079 C 
ATOM     34  C   UNL     1      -6.870   1.099   3.303  0.00  0.00    -0.019 C 
ATOM     35  C   UNL     1      -7.830   0.538   2.249  0.00  0.00    -0.004 C 
ATOM     36  C   UNL     1      -7.071   0.341   0.934  0.00  0.00    -0.019 C 
ATOM     37  C   UNL     1      -5.873  -0.581   1.176  0.00  0.00    -0.079 C 
ATOM     38  H   UNL     1      -4.694   0.937   1.856  0.00  0.00    -0.082 HD
ENDBRANCH  31  32
ENDBRANCH  30  31
ENDBRANCH  29  30
ENDBRANCH   6  29
TORSDOF 6
