REMARK  Name = CHEMBL223572
REMARK  7 active torsions:
REMARK  status: ('A' for Active; 'I' for Inactive)
REMARK    1  A    between atoms: C_1  and  C_2
REMARK    2  A    between atoms: C_6  and  N_8
REMARK    3  A    between atoms: N_11  and  C_12
REMARK    4  A    between atoms: C_15  and  C_18
REMARK    5  A    between atoms: C_21  and  C_29
REMARK    6  A    between atoms: C_24  and  N_28
REMARK    7  A    between atoms: C_29  and  N_30
REMARK                            x       y       z     vdW  Elec       q    Type
REMARK                         _______ _______ _______ _____ _____    ______ ____
ROOT
ATOM      1  C   UNL     1       0.006 -10.467   3.640  0.00  0.00    -0.005 A 
ATOM      2  C   UNL     1      -0.889 -11.187   2.871  0.00  0.00    +0.009 A 
ATOM      3  C   UNL     1      -0.877 -12.579   2.860  0.00  0.00    +0.007 A 
ATOM      4  C   UNL     1       0.001 -13.308   3.592  0.00  0.00    -0.008 A 
ATOM      5  C   UNL     1       0.957 -12.668   4.410  0.00  0.00    +0.070 A 
ATOM      6  C   UNL     1       0.981 -11.198   4.446  0.00  0.00    +0.047 A 
ATOM      7  C   UNL     1       2.006 -10.842   5.311  0.00  0.00    +0.118 A 
ATOM      8  N   UNL     1       2.569 -11.976   5.765  0.00  0.00    -0.286 N 
ATOM      9  N   UNL     1       1.917 -13.085   5.216  0.00  0.00    -0.298 N 
ATOM     10  H   UNL     1       3.312 -12.018   6.387  0.00  0.00    +0.188 HD
ATOM     11  H   UNL     1       2.140 -14.012   5.391  0.00  0.00    +0.187 HD
ENDROOT
BRANCH   1  15
ATOM     12  C   UNL     1      -0.066  -6.217   3.647  0.00  0.00    +0.035 A 
ATOM     13  C   UNL     1      -0.055  -6.908   2.442  0.00  0.00    +0.024 A 
ATOM     14  C   UNL     1      -0.031  -8.286   2.436  0.00  0.00    +0.010 A 
ATOM     15  C   UNL     1      -0.019  -8.987   3.643  0.00  0.00    -0.017 A 
ATOM     16  C   UNL     1      -0.030  -8.290   4.852  0.00  0.00    +0.010 A 
ATOM     17  C   UNL     1      -0.049  -6.912   4.851  0.00  0.00    +0.024 A 
BRANCH  12  21
ATOM     18  N   UNL     1      -0.680  -2.809   2.619  0.00  0.00    -0.269 N 
ATOM     19  C   UNL     1      -0.744  -4.154   2.677  0.00  0.00    +0.308 C 
ATOM     20  O   UNL     1      -1.392  -4.768   1.851  0.00  0.00    -0.252 OA
ATOM     21  N   UNL     1      -0.089  -4.819   3.649  0.00  0.00    -0.269 N 
ATOM     22  H   UNL     1      -0.104  -2.325   3.230  0.00  0.00    +0.156 HD
ATOM     23  H   UNL     1       0.365  -4.327   4.351  0.00  0.00    +0.156 HD
BRANCH  18  29
ATOM     24  C   UNL     1      -1.193   1.026  -0.414  0.00  0.00    +0.044 C 
ATOM     25  C   UNL     1      -1.718  -0.250   0.191  0.00  0.00    -0.049 A 
ATOM     26  C   UNL     1      -2.958  -0.734  -0.185  0.00  0.00    +0.003 A 
ATOM     27  C   UNL     1      -3.443  -1.905   0.367  0.00  0.00    +0.002 A 
ATOM     28  C   UNL     1      -2.690  -2.595   1.297  0.00  0.00    +0.023 A 
ATOM     29  C   UNL     1      -1.445  -2.112   1.677  0.00  0.00    +0.035 A 
ATOM     30  C   UNL     1      -0.958  -0.939   1.116  0.00  0.00    +0.026 A 
ENDBRANCH  18  29
ENDBRANCH  12  21
ENDBRANCH   1  15
BRANCH   7  31
ATOM     31  N   UNL     1       2.382  -9.550   5.647  0.00  0.00    -0.343 N 
ATOM     32  H   UNL     1       1.911  -8.793   5.264  0.00  0.00    +0.144 HD
ATOM     33  H   UNL     1       3.115  -9.403   6.264  0.00  0.00    +0.144 HD
ENDBRANCH   7  31
BRANCH   4  34
ATOM     34  C   UNL     1      -0.043 -14.813   3.531  0.00  0.00    +0.121 C 
BRANCH  34  35
ATOM     35  N   UNL     1      -0.755 -15.330   4.708  0.00  0.00    -0.294 NA
ATOM     36  C   UNL     1      -0.002 -15.058   5.941  0.00  0.00    +0.113 C 
ATOM     37  C   UNL     1      -0.805 -15.558   7.144  0.00  0.00    +0.175 C 
ATOM     38  O   UNL     1      -1.087 -16.950   6.978  0.00  0.00    -0.377 OA
ATOM     39  C   UNL     1      -1.821 -17.251   5.787  0.00  0.00    +0.175 C 
ATOM     40  C   UNL     1      -1.028 -16.768   4.570  0.00  0.00    +0.113 C 
ENDBRANCH  34  35
ENDBRANCH   4  34
TORSDOF 6
