REMARK  Name = CHEMBL204409
REMARK  9 active torsions:
REMARK  status: ('A' for Active; 'I' for Inactive)
REMARK    1  A    between atoms: C_1  and  O_2
REMARK    2  A    between atoms: O_2  and  C_3
REMARK    3  A    between atoms: C_8  and  O_9
REMARK    4  A    between atoms: O_9  and  C_10
REMARK    5  A    between atoms: C_14  and  O_15
REMARK    6  A    between atoms: O_15  and  C_16
REMARK    7  A    between atoms: C_19  and  N_22
REMARK    8  A    between atoms: N_24  and  C_25
REMARK    9  A    between atoms: C_25  and  C_26
REMARK                            x       y       z     vdW  Elec       q    Type
REMARK                         _______ _______ _______ _____ _____    ______ ____
ROOT
ATOM      1  C   UNL     1       2.767   1.157   6.705  0.00  0.00    +0.131 A 
ATOM      2  C   UNL     1       3.886   1.030   7.514  0.00  0.00    +0.048 A 
ATOM      3  C   UNL     1       4.493   2.156   8.035  0.00  0.00    +0.027 A 
ATOM      4  C   UNL     1       3.982   3.415   7.748  0.00  0.00    +0.033 A 
ATOM      5  C   UNL     1       2.862   3.541   6.937  0.00  0.00    +0.027 A 
ATOM      6  C   UNL     1       2.260   2.415   6.412  0.00  0.00    +0.048 A 
ENDROOT
BRANCH   4   7
ATOM      7  N   UNL     1       4.597   4.557   8.276  0.00  0.00    -0.295 N 
ATOM      8  C   UNL     1       5.953   4.584   8.455  0.00  0.00    +0.143 C 
ATOM      9  N   UNL     1       6.501   5.397   9.407  0.00  0.00    -0.363 N 
ATOM     10  S   UNL     1       6.933   3.628   7.515  0.00  0.00    -0.016 SA
ATOM     11  H   UNL     1       4.061   5.330   8.515  0.00  0.00    +0.154 HD
ATOM     12  H   UNL     1       5.928   5.955   9.956  0.00  0.00    +0.162 HD
BRANCH   9  13
ATOM     13  C   UNL     1       7.953   5.425   9.598  0.00  0.00    +0.150 C 
BRANCH  13  14
ATOM     14  C   UNL     1       8.296   6.395  10.699  0.00  0.00    -0.028 A 
ATOM     15  C   UNL     1       8.536   7.723  10.401  0.00  0.00    +0.005 A 
ATOM     16  C   UNL     1       8.851   8.613  11.411  0.00  0.00    +0.000 A 
ATOM     17  C   UNL     1       8.924   8.174  12.720  0.00  0.00    +0.000 A 
ATOM     18  C   UNL     1       8.683   6.846  13.019  0.00  0.00    +0.000 A 
ATOM     19  C   UNL     1       8.364   5.958  12.009  0.00  0.00    +0.005 A 
ENDBRANCH  13  14
ENDBRANCH   9  13
ENDBRANCH   4   7
BRANCH   1  20
ATOM     20  O   UNL     1       2.170   0.048   6.192  0.00  0.00    -0.437 OA
BRANCH  20  30
ATOM     21  C   UNL     1      -0.006  -3.260   4.751  0.00  0.00    +0.162 A 
ATOM     22  C   UNL     1       0.715  -2.181   5.177  0.00  0.00    +0.064 A 
ATOM     23  C   UNL     1       0.660  -1.796   6.522  0.00  0.00    +0.066 A 
ATOM     24  C   UNL     1      -0.143  -2.527   7.433  0.00  0.00    +0.082 A 
ATOM     25  C   UNL     1      -0.875  -3.630   6.975  0.00  0.00    +0.078 A 
ATOM     26  C   UNL     1      -0.807  -3.984   5.646  0.00  0.00    +0.164 A 
ATOM     27  N   UNL     1      -0.179  -2.138   8.717  0.00  0.00    -0.235 NA
ATOM     28  C   UNL     1       0.517  -1.100   9.116  0.00  0.00    +0.225 A 
ATOM     29  N   UNL     1       1.280  -0.389   8.300  0.00  0.00    -0.201 NA
ATOM     30  C   UNL     1       1.386  -0.689   7.014  0.00  0.00    +0.231 A 
BRANCH  21  32
ATOM     31  C   UNL     1       0.882  -2.855   2.583  0.00  0.00    +0.277 C 
ATOM     32  O   UNL     1       0.048  -3.632   3.445  0.00  0.00    -0.491 OA
ENDBRANCH  21  32
BRANCH  26  33
ATOM     33  O   UNL     1      -1.520  -5.050   5.197  0.00  0.00    -0.491 OA
ATOM     34  C   UNL     1      -2.317  -5.748   6.157  0.00  0.00    +0.277 C 
ENDBRANCH  26  33
ENDBRANCH  20  30
ENDBRANCH   1  20
TORSDOF 7
