REMARK  Name = CHEMBL223360
REMARK  5 active torsions:
REMARK  status: ('A' for Active; 'I' for Inactive)
REMARK    1  A    between atoms: C_1  and  C_2
REMARK    2  A    between atoms: C_6  and  N_8
REMARK    3  A    between atoms: N_11  and  C_12
REMARK    4  A    between atoms: C_15  and  C_18
REMARK    5  A    between atoms: C_24  and  N_28
REMARK                            x       y       z     vdW  Elec       q    Type
REMARK                         _______ _______ _______ _____ _____    ______ ____
ROOT
ATOM      1  C   UNL     1       0.232  -2.221   5.990  0.00  0.00    +0.035 A 
ATOM      2  C   UNL     1       0.206  -0.832   6.006  0.00  0.00    +0.024 A 
ATOM      3  C   UNL     1       0.198  -0.155   7.206  0.00  0.00    +0.010 A 
ATOM      4  C   UNL     1       0.216  -0.866   8.407  0.00  0.00    -0.017 A 
ATOM      5  C   UNL     1       0.242  -2.261   8.388  0.00  0.00    +0.010 A 
ATOM      6  C   UNL     1       0.245  -2.933   7.184  0.00  0.00    +0.024 A 
ENDROOT
BRANCH   4   7
ATOM      7  C   UNL     1       0.209  -0.142   9.698  0.00  0.00    -0.005 A 
ATOM      8  C   UNL     1       1.098   0.890   9.934  0.00  0.00    +0.009 A 
ATOM      9  C   UNL     1       1.102   1.579  11.143  0.00  0.00    +0.003 A 
ATOM     10  C   UNL     1       0.246   1.287  12.154  0.00  0.00    +0.030 A 
ATOM     11  C   UNL     1      -0.701   0.251  12.013  0.00  0.00    +0.095 A 
ATOM     12  C   UNL     1      -0.743  -0.498  10.748  0.00  0.00    +0.049 A 
ATOM     13  C   UNL     1      -1.756  -1.438  10.878  0.00  0.00    +0.120 A 
ATOM     14  N   UNL     1      -2.297  -1.287  12.100  0.00  0.00    -0.263 N 
ATOM     15  N   UNL     1      -1.641  -0.260  12.788  0.00  0.00    -0.172 NA
ATOM     16  H   UNL     1      -3.028  -1.817  12.454  0.00  0.00    +0.190 HD
BRANCH  13  17
ATOM     17  N   UNL     1      -2.140  -2.365   9.921  0.00  0.00    -0.343 N 
ATOM     18  H   UNL     1      -1.686  -2.395   9.065  0.00  0.00    +0.144 HD
ATOM     19  H   UNL     1      -2.864  -2.983  10.108  0.00  0.00    +0.144 HD
ENDBRANCH  13  17
ENDBRANCH   4   7
BRANCH   1  23
ATOM     20  N   UNL     1       0.801  -2.986   2.506  0.00  0.00    -0.267 N 
ATOM     21  C   UNL     1       0.880  -2.380   3.708  0.00  0.00    +0.308 C 
ATOM     22  O   UNL     1       1.530  -1.359   3.832  0.00  0.00    -0.252 OA
ATOM     23  N   UNL     1       0.240  -2.905   4.771  0.00  0.00    -0.269 N 
ATOM     24  H   UNL     1       0.231  -3.762   2.391  0.00  0.00    +0.156 HD
ATOM     25  H   UNL     1      -0.216  -3.757   4.690  0.00  0.00    +0.156 HD
BRANCH  20  31
ATOM     26  C   UNL     1       2.803   0.822   0.125  0.00  0.00    +0.044 C 
ATOM     27  C   UNL     1       2.529  -0.655   0.245  0.00  0.00    -0.049 A 
ATOM     28  C   UNL     1       3.011  -1.527  -0.714  0.00  0.00    +0.006 A 
ATOM     29  C   UNL     1       2.762  -2.882  -0.608  0.00  0.00    +0.040 A 
ATOM     30  C   UNL     1       2.029  -3.371   0.459  0.00  0.00    +0.145 A 
ATOM     31  C   UNL     1       1.544  -2.496   1.425  0.00  0.00    +0.070 A 
ATOM     32  C   UNL     1       1.801  -1.136   1.317  0.00  0.00    +0.029 A 
ATOM     33  F   UNL     1       1.785  -4.696   0.562  0.00  0.00    -0.204 F 
ENDBRANCH  20  31
ENDBRANCH   1  23
TORSDOF 4
