REMARK  Name = CHEMBL490823
REMARK  5 active torsions:
REMARK  status: ('A' for Active; 'I' for Inactive)
REMARK    1  A    between atoms: C_1  and  C_2
REMARK    2  A    between atoms: C_8  and  N_11
REMARK    3  A    between atoms: C_12  and  C_14
REMARK    4  A    between atoms: N_23  and  C_24
REMARK    5  A    between atoms: C_28  and  C_30
REMARK                            x       y       z     vdW  Elec       q    Type
REMARK                         _______ _______ _______ _____ _____    ______ ____
ROOT
ATOM      1  C   UNL     1      -2.065  -8.332  -0.789  0.00  0.00    +0.101 A 
ATOM      2  C   UNL     1      -2.170  -9.204   0.296  0.00  0.00    +0.057 A 
ATOM      3  C   UNL     1      -2.164 -10.574   0.097  0.00  0.00    +0.021 A 
ATOM      4  C   UNL     1      -2.054 -11.096  -1.175  0.00  0.00    +0.016 A 
ATOM      5  C   UNL     1      -1.949 -10.243  -2.274  0.00  0.00    +0.064 A 
ATOM      6  C   UNL     1      -1.960  -8.853  -2.088  0.00  0.00    +0.183 A 
ATOM      7  O   UNL     1      -1.852  -8.285  -3.303  0.00  0.00    -0.352 OA
ATOM      8  N   UNL     1      -1.776  -9.293  -4.291  0.00  0.00    -0.062 NA
ATOM      9  C   UNL     1      -1.821 -10.466  -3.722  0.00  0.00    +0.174 A 
ATOM     10  N   UNL     1      -1.773 -11.696  -4.365  0.00  0.00    -0.296 N 
ATOM     11 CL   UNL     1      -2.308  -8.566   1.905  0.00  0.00    -0.083 Cl
ATOM     12  H   UNL     1      -1.901 -12.513  -3.858  0.00  0.00    +0.154 HD
ENDROOT
BRANCH  10  13
ATOM     13  C   UNL     1      -1.540 -11.756  -5.742  0.00  0.00    +0.033 A 
ATOM     14  C   UNL     1      -2.152 -12.740  -6.509  0.00  0.00    +0.023 A 
ATOM     15  C   UNL     1      -1.920 -12.796  -7.869  0.00  0.00    +0.002 A 
ATOM     16  C   UNL     1      -1.080 -11.875  -8.468  0.00  0.00    +0.012 A 
ATOM     17  C   UNL     1      -0.469 -10.895  -7.707  0.00  0.00    +0.057 A 
ATOM     18  C   UNL     1      -0.701 -10.829  -6.347  0.00  0.00    +0.035 A 
BRANCH  17  19
ATOM     19  C   UNL     1       0.447  -9.894  -8.364  0.00  0.00    +0.417 C 
ATOM     20  F   UNL     1       0.519 -10.158  -9.736  0.00  0.00    -0.166 F 
ATOM     21  F   UNL     1      -0.053  -8.603  -8.163  0.00  0.00    -0.166 F 
ATOM     22  F   UNL     1       1.724  -9.992  -7.802  0.00  0.00    -0.166 F 
ENDBRANCH  17  19
ENDBRANCH  10  13
BRANCH   1  24
ATOM     23  N   UNL     1      -0.912  -6.217  -0.375  0.00  0.00    -0.280 N 
ATOM     24  C   UNL     1      -2.072  -6.874  -0.573  0.00  0.00    +0.253 C 
ATOM     25  O   UNL     1      -3.124  -6.264  -0.572  0.00  0.00    -0.270 OA
ATOM     26  H   UNL     1      -0.082  -6.712  -0.291  0.00  0.00    +0.155 HD
BRANCH  23  34
ATOM     27  C   UNL     1       0.404   1.371   0.669  0.00  0.00    +0.109 C 
ATOM     28  C   UNL     1       0.285  -0.131   0.643  0.00  0.00    +0.215 C 
ATOM     29  O   UNL     1       1.136  -0.815   1.172  0.00  0.00    -0.276 OA
ATOM     30  N   UNL     1      -0.765  -0.714   0.033  0.00  0.00    -0.271 N 
ATOM     31  C   UNL     1      -0.821  -2.104  -0.084  0.00  0.00    +0.125 A 
ATOM     32  C   UNL     1      -1.854  -2.692  -0.806  0.00  0.00    +0.045 A 
ATOM     33  C   UNL     1      -1.901  -4.069  -0.915  0.00  0.00    +0.028 A 
ATOM     34  C   UNL     1      -0.904  -4.819  -0.292  0.00  0.00    +0.052 A 
ATOM     35  C   UNL     1       0.095  -4.163   0.412  0.00  0.00    +0.136 A 
ATOM     36  N   UNL     1       0.111  -2.846   0.491  0.00  0.00    -0.238 NA
ATOM     37  H   UNL     1      -1.482  -0.168  -0.326  0.00  0.00    +0.156 HD
ENDBRANCH  23  34
ENDBRANCH   1  24
TORSDOF 4
