REMARK  Name = CHEMBL1172837
REMARK  4 active torsions:
REMARK  status: ('A' for Active; 'I' for Inactive)
REMARK    1  A    between atoms: C_4  and  C_7
REMARK    2  A    between atoms: C_10  and  N_13
REMARK    3  A    between atoms: N_16  and  C_17
REMARK    4  A    between atoms: C_27  and  C_28
REMARK                            x       y       z     vdW  Elec       q    Type
REMARK                         _______ _______ _______ _____ _____    ______ ____
ROOT
ATOM      1  N   UNL     1       6.891  -3.100   2.125  0.00  0.00    -0.269 N 
ATOM      2  C   UNL     1       7.056  -4.423   1.924  0.00  0.00    +0.308 C 
ATOM      3  O   UNL     1       6.200  -5.205   2.292  0.00  0.00    -0.252 OA
ATOM      4  N   UNL     1       8.169  -4.879   1.316  0.00  0.00    -0.269 N 
ATOM      5  H   UNL     1       7.537  -2.471   1.767  0.00  0.00    +0.156 HD
ATOM      6  H   UNL     1       8.884  -4.264   1.090  0.00  0.00    +0.156 HD
ENDROOT
BRANCH   4   7
ATOM      7  C   UNL     1       8.292  -6.238   1.009  0.00  0.00    +0.037 A 
ATOM      8  C   UNL     1       7.168  -6.965   0.628  0.00  0.00    +0.024 A 
ATOM      9  C   UNL     1       7.282  -8.305   0.325  0.00  0.00    +0.012 A 
ATOM     10  C   UNL     1       8.525  -8.928   0.400  0.00  0.00    +0.008 A 
ATOM     11  C   UNL     1       9.662  -8.202   0.783  0.00  0.00    +0.043 A 
ATOM     12  C   UNL     1       9.533  -6.851   1.081  0.00  0.00    +0.047 A 
ATOM     13  N   UNL     1      10.765  -9.046   0.779  0.00  0.00    -0.281 N 
ATOM     14  C   UNL     1      10.425 -10.294   0.414  0.00  0.00    +0.249 C 
ATOM     15  O   UNL     1      11.182 -11.245   0.323  0.00  0.00    -0.270 OA
ATOM     16  C   UNL     1       8.981 -10.313   0.147  0.00  0.00    +0.048 C 
ATOM     17  C   UNL     1       8.214 -11.390  -0.253  0.00  0.00    +0.039 C 
ATOM     18  H   UNL     1      11.666  -8.771   1.009  0.00  0.00    +0.155 HD
BRANCH  17  19
ATOM     19  C   UNL     1       8.618 -12.702   0.071  0.00  0.00    +0.040 A 
ATOM     20  C   UNL     1       8.040 -13.875  -0.389  0.00  0.00    +0.027 A 
ATOM     21  C   UNL     1       8.752 -14.933   0.180  0.00  0.00    +0.019 A 
ATOM     22  C   UNL     1       9.730 -14.408   0.959  0.00  0.00    +0.083 A 
ATOM     23  N   UNL     1       9.663 -13.053   0.898  0.00  0.00    -0.361 N 
ATOM     24  H   UNL     1      10.251 -12.436   1.361  0.00  0.00    +0.165 HD
ENDBRANCH  17  19
ENDBRANCH   4   7
BRANCH   1  28
ATOM     25  C   UNL     1       3.606  -1.713   4.284  0.00  0.00    -0.018 A 
ATOM     26  C   UNL     1       4.211  -2.919   4.633  0.00  0.00    +0.010 A 
ATOM     27  C   UNL     1       5.297  -3.376   3.917  0.00  0.00    +0.024 A 
ATOM     28  C   UNL     1       5.789  -2.635   2.849  0.00  0.00    +0.035 A 
ATOM     29  C   UNL     1       5.187  -1.432   2.500  0.00  0.00    +0.024 A 
ATOM     30  C   UNL     1       4.097  -0.974   3.209  0.00  0.00    +0.010 A 
BRANCH  25  34
ATOM     31  C   UNL     1       0.257  -0.297   6.488  0.00  0.00    +0.000 A 
ATOM     32  C   UNL     1       0.858  -1.492   6.840  0.00  0.00    +0.001 A 
ATOM     33  C   UNL     1       1.945  -1.957   6.128  0.00  0.00    +0.008 A 
ATOM     34  C   UNL     1       2.437  -1.219   5.053  0.00  0.00    -0.018 A 
ATOM     35  C   UNL     1       1.828  -0.016   4.703  0.00  0.00    +0.008 A 
ATOM     36  C   UNL     1       0.741   0.439   5.422  0.00  0.00    +0.001 A 
ENDBRANCH  25  34
ENDBRANCH   1  28
TORSDOF 4
