REMARK  Name = CHEMBL125898
REMARK  12 active torsions:
REMARK  status: ('A' for Active; 'I' for Inactive)
REMARK    1  A    between atoms: C_1  and  C_2
REMARK    2  A    between atoms: C_2  and  C_3
REMARK    3  A    between atoms: C_2  and  O_4
REMARK    4  A    between atoms: O_4  and  C_5
REMARK    5  A    between atoms: C_8  and  N_11
REMARK    6  A    between atoms: C_23  and  O_40
REMARK    7  A    between atoms: C_24  and  O_30
REMARK    8  A    between atoms: O_30  and  C_31
REMARK    9  A    between atoms: C_31  and  C_32
REMARK   10  A    between atoms: C_32  and  C_33
REMARK   11  A    between atoms: C_33  and  N_34
REMARK   12  A    between atoms: O_40  and  C_41
REMARK                            x       y       z     vdW  Elec       q    Type
REMARK                         _______ _______ _______ _____ _____    ______ ____
ROOT
ATOM      1  N   UNL     1       5.766  -3.602  -0.488  0.00  0.00    -0.269 N 
ATOM      2  C   UNL     1       6.618  -2.583  -0.718  0.00  0.00    +0.307 C 
ATOM      3  O   UNL     1       6.186  -1.483  -1.004  0.00  0.00    -0.252 OA
ATOM      4  N   UNL     1       7.948  -2.784  -0.630  0.00  0.00    -0.282 N 
ATOM      5  C   UNL     1       8.491  -4.140  -0.472  0.00  0.00    +0.128 C 
ATOM      6  C   UNL     1       9.502  -4.397  -1.597  0.00  0.00    +0.125 C 
ATOM      7  N   UNL     1      10.434  -3.264  -1.659  0.00  0.00    -0.312 N 
ATOM      8  C   UNL     1       9.891  -1.907  -1.817  0.00  0.00    +0.125 C 
ATOM      9  C   UNL     1       8.881  -1.650  -0.698  0.00  0.00    +0.128 C 
ATOM     10  C   UNL     1      11.796  -3.469  -1.569  0.00  0.00    +0.132 A 
ATOM     11  C   UNL     1      12.589  -3.600  -2.734  0.00  0.00    +0.044 A 
ATOM     12  C   UNL     1      12.036  -3.530  -4.018  0.00  0.00    +0.062 A 
ATOM     13  C   UNL     1      12.844  -3.662  -5.111  0.00  0.00    +0.162 A 
ATOM     14  C   UNL     1      14.223  -3.870  -4.961  0.00  0.00    +0.164 A 
ATOM     15  C   UNL     1      14.791  -3.943  -3.709  0.00  0.00    +0.078 A 
ATOM     16  C   UNL     1      13.981  -3.809  -2.575  0.00  0.00    +0.080 A 
ATOM     17  N   UNL     1      14.486  -3.872  -1.332  0.00  0.00    -0.235 NA
ATOM     18  C   UNL     1      13.702  -3.743  -0.289  0.00  0.00    +0.223 A 
ATOM     19  N   UNL     1      12.397  -3.542  -0.389  0.00  0.00    -0.220 NA
ATOM     20  H   UNL     1       6.108  -4.503  -0.372  0.00  0.00    +0.156 HD
ENDROOT
BRANCH   1  24
ATOM     21  C   UNL     1       1.664  -2.883  -0.274  0.00  0.00    +0.121 A 
ATOM     22  C   UNL     1       2.216  -3.957   0.409  0.00  0.00    +0.047 A 
ATOM     23  C   UNL     1       3.575  -4.196   0.338  0.00  0.00    +0.027 A 
ATOM     24  C   UNL     1       4.388  -3.361  -0.416  0.00  0.00    +0.035 A 
ATOM     25  C   UNL     1       3.834  -2.286  -1.099  0.00  0.00    +0.027 A 
ATOM     26  C   UNL     1       2.475  -2.052  -1.032  0.00  0.00    +0.047 A 
BRANCH  21  27
ATOM     27  O   UNL     1       0.327  -2.649  -0.203  0.00  0.00    -0.489 OA
BRANCH  27  29
ATOM     28  C   UNL     1      -0.277  -1.911  -2.424  0.00  0.00    +0.051 C 
ATOM     29  C   UNL     1      -0.176  -1.535  -0.944  0.00  0.00    +0.167 C 
ATOM     30  C   UNL     1      -1.562  -1.157  -0.418  0.00  0.00    +0.051 C 
ENDBRANCH  27  29
ENDBRANCH  21  27
ENDBRANCH   1  24
BRANCH  13  31
ATOM     31  O   UNL     1      12.306  -3.594  -6.358  0.00  0.00    -0.491 OA
ATOM     32  C   UNL     1      10.896  -3.381  -6.445  0.00  0.00    +0.277 C 
ENDBRANCH  13  31
BRANCH  14  33
ATOM     33  O   UNL     1      15.007  -4.000  -6.063  0.00  0.00    -0.488 OA
BRANCH  33  34
ATOM     34  C   UNL     1      16.403  -4.209  -5.845  0.00  0.00    +0.227 C 
BRANCH  34  35
ATOM     35  C   UNL     1      17.117  -4.331  -7.193  0.00  0.00    +0.022 C 
BRANCH  35  36
ATOM     36  C   UNL     1      18.613  -4.555  -6.959  0.00  0.00    -0.075 C 
BRANCH  36  37
ATOM     37  N   UNL     1      19.298  -4.673  -8.253  0.00  0.00    +0.383 N 
ATOM     38  C   UNL     1      18.829  -5.879  -8.948  0.00  0.00    -0.050 C 
ATOM     39  C   UNL     1      19.545  -5.999 -10.296  0.00  0.00    +0.141 C 
ATOM     40  O   UNL     1      20.958  -6.034 -10.079  0.00  0.00    -0.383 OA
ATOM     41  C   UNL     1      21.460  -4.890  -9.383  0.00  0.00    +0.141 C 
ATOM     42  C   UNL     1      20.748  -4.768  -8.033  0.00  0.00    -0.050 C 
ATOM     43  H   UNL     1      19.096  -3.860  -8.816  0.00  0.00    -0.082 HD
ENDBRANCH  36  37
ENDBRANCH  35  36
ENDBRANCH  34  35
ENDBRANCH  33  34
ENDBRANCH  14  33
TORSDOF 9
