REMARK  Name = CHEMBL271795
REMARK  4 active torsions:
REMARK  status: ('A' for Active; 'I' for Inactive)
REMARK    1  A    between atoms: C_1  and  C_2
REMARK    2  A    between atoms: C_6  and  N_8
REMARK    3  A    between atoms: N_11  and  C_12
REMARK    4  A    between atoms: C_15  and  C_18
REMARK                            x       y       z     vdW  Elec       q    Type
REMARK                         _______ _______ _______ _____ _____    ______ ____
ROOT
ATOM      1  C   UNL     1      -0.162  -3.174   6.567  0.00  0.00    +0.035 A 
ATOM      2  C   UNL     1      -0.610  -1.858   6.552  0.00  0.00    +0.024 A 
ATOM      3  C   UNL     1      -0.589  -1.109   7.709  0.00  0.00    +0.010 A 
ATOM      4  C   UNL     1      -0.117  -1.672   8.895  0.00  0.00    -0.017 A 
ATOM      5  C   UNL     1       0.333  -2.992   8.906  0.00  0.00    +0.010 A 
ATOM      6  C   UNL     1       0.304  -3.739   7.748  0.00  0.00    +0.024 A 
ENDROOT
BRANCH   4   7
ATOM      7  C   UNL     1      -0.092  -0.869  10.139  0.00  0.00    -0.006 A 
ATOM      8  C   UNL     1      -1.264  -0.321  10.631  0.00  0.00    +0.009 A 
ATOM      9  C   UNL     1      -1.270   0.436  11.793  0.00  0.00    +0.002 A 
ATOM     10  C   UNL     1      -0.092   0.652  12.481  0.00  0.00    +0.017 A 
ATOM     11  C   UNL     1       1.086   0.114  12.006  0.00  0.00    +0.042 A 
ATOM     12  C   UNL     1       1.133  -0.666  10.830  0.00  0.00    +0.038 A 
ATOM     13  C   UNL     1       2.477  -1.131  10.531  0.00  0.00    +0.134 A 
ATOM     14  N   UNL     1       3.457  -0.812  11.325  0.00  0.00    -0.195 NA
ATOM     15  S   UNL     1       2.777   0.127  12.534  0.00  0.00    +0.014 S 
ATOM     16  N   UNL     1       2.715  -1.913   9.400  0.00  0.00    -0.342 N 
ATOM     17  H   UNL     1       2.117  -1.859   8.638  0.00  0.00    +0.144 HD
ATOM     18  H   UNL     1       3.478  -2.511   9.376  0.00  0.00    +0.144 HD
ENDBRANCH   4   7
BRANCH   1  22
ATOM     19  N   UNL     1      -0.070  -4.048   3.063  0.00  0.00    -0.267 N 
ATOM     20  C   UNL     1       0.052  -3.341   4.204  0.00  0.00    +0.308 C 
ATOM     21  O   UNL     1       0.376  -2.170   4.162  0.00  0.00    -0.252 OA
ATOM     22  N   UNL     1      -0.184  -3.932   5.392  0.00  0.00    -0.269 N 
ATOM     23  H   UNL     1      -0.392  -4.963   3.092  0.00  0.00    +0.156 HD
ATOM     24  H   UNL     1      -0.371  -4.883   5.432  0.00  0.00    +0.156 HD
BRANCH  19  30
ATOM     25  C   UNL     1       0.315  -0.031   0.254  0.00  0.00    +0.044 C 
ATOM     26  C   UNL     1       0.464  -1.518   0.447  0.00  0.00    -0.049 A 
ATOM     27  C   UNL     1       0.936  -2.305  -0.588  0.00  0.00    +0.006 A 
ATOM     28  C   UNL     1       1.075  -3.670  -0.415  0.00  0.00    +0.040 A 
ATOM     29  C   UNL     1       0.742  -4.252   0.795  0.00  0.00    +0.145 A 
ATOM     30  C   UNL     1       0.268  -3.462   1.837  0.00  0.00    +0.070 A 
ATOM     31  C   UNL     1       0.136  -2.092   1.660  0.00  0.00    +0.029 A 
ATOM     32  F   UNL     1       0.878  -5.585   0.964  0.00  0.00    -0.204 F 
ENDBRANCH  19  30
ENDBRANCH   1  22
TORSDOF 3
