REMARK  Name = CHEMBL194842
REMARK  7 active torsions:
REMARK  status: ('A' for Active; 'I' for Inactive)
REMARK    1  A    between atoms: C_1  and  C_2
REMARK    2  A    between atoms: C_6  and  N_8
REMARK    3  A    between atoms: N_11  and  C_12
REMARK    4  A    between atoms: C_15  and  C_18
REMARK    5  A    between atoms: C_19  and  C_28
REMARK    6  A    between atoms: C_23  and  N_27
REMARK    7  A    between atoms: C_28  and  N_29
REMARK                            x       y       z     vdW  Elec       q    Type
REMARK                         _______ _______ _______ _____ _____    ______ ____
ROOT
ATOM      1  C   UNL     1      -0.171  -6.223   3.305  0.00  0.00    +0.035 A 
ATOM      2  C   UNL     1       0.002  -6.933   2.123  0.00  0.00    +0.024 A 
ATOM      3  C   UNL     1       0.033  -8.312   2.144  0.00  0.00    +0.010 A 
ATOM      4  C   UNL     1      -0.108  -8.993   3.353  0.00  0.00    -0.016 A 
ATOM      5  C   UNL     1      -0.281  -8.278   4.537  0.00  0.00    +0.010 A 
ATOM      6  C   UNL     1      -0.306  -6.899   4.512  0.00  0.00    +0.024 A 
ENDROOT
BRANCH   4   7
ATOM      7  C   UNL     1      -0.075 -10.475   3.378  0.00  0.00    +0.006 A 
ATOM      8  C   UNL     1      -1.191 -11.184   3.668  0.00  0.00    +0.014 A 
ATOM      9  S   UNL     1      -0.644 -12.878   3.571  0.00  0.00    -0.072 S 
ATOM     10  C   UNL     1       1.055 -12.601   3.147  0.00  0.00    +0.114 A 
ATOM     11  C   UNL     1       1.159 -11.196   3.085  0.00  0.00    +0.055 A 
ATOM     12  C   UNL     1       2.445 -10.693   2.752  0.00  0.00    +0.128 A 
ATOM     13  N   UNL     1       3.432 -11.545   2.523  0.00  0.00    -0.220 NA
ATOM     14  C   UNL     1       3.262 -12.852   2.595  0.00  0.00    +0.224 A 
ATOM     15  N   UNL     1       2.094 -13.378   2.909  0.00  0.00    -0.228 NA
BRANCH  12  16
ATOM     16  N   UNL     1       2.663  -9.330   2.666  0.00  0.00    -0.343 N 
ATOM     17  H   UNL     1       1.989  -8.710   2.987  0.00  0.00    +0.144 HD
ATOM     18  H   UNL     1       3.489  -8.993   2.285  0.00  0.00    +0.144 HD
ENDBRANCH  12  16
BRANCH   8  19
ATOM     19  C   UNL     1      -2.567 -10.665   3.996  0.00  0.00    +0.127 C 
BRANCH  19  20
ATOM     20  N   UNL     1      -3.346 -10.526   2.758  0.00  0.00    -0.293 NA
ATOM     21  C   UNL     1      -2.780  -9.478   1.895  0.00  0.00    +0.113 C 
ATOM     22  C   UNL     1      -3.584  -9.408   0.594  0.00  0.00    +0.175 C 
ATOM     23  O   UNL     1      -4.960  -9.172   0.901  0.00  0.00    -0.377 OA
ATOM     24  C   UNL     1      -5.543 -10.174   1.739  0.00  0.00    +0.175 C 
ATOM     25  C   UNL     1      -4.760 -10.252   3.052  0.00  0.00    +0.113 C 
ENDBRANCH  19  20
ENDBRANCH   8  19
ENDBRANCH   4   7
BRANCH   1  29
ATOM     26  N   UNL     1      -0.661  -2.836   2.147  0.00  0.00    -0.269 N 
ATOM     27  C   UNL     1      -0.727  -4.180   2.220  0.00  0.00    +0.308 C 
ATOM     28  O   UNL     1      -1.260  -4.811   1.328  0.00  0.00    -0.252 OA
ATOM     29  N   UNL     1      -0.202  -4.824   3.281  0.00  0.00    -0.269 N 
ATOM     30  H   UNL     1      -0.172  -2.337   2.821  0.00  0.00    +0.156 HD
ATOM     31  H   UNL     1       0.153  -4.318   4.029  0.00  0.00    +0.156 HD
BRANCH  26  37
ATOM     32  C   UNL     1      -0.783   0.942  -0.997  0.00  0.00    +0.044 C 
ATOM     33  C   UNL     1      -1.380  -0.326  -0.442  0.00  0.00    -0.049 A 
ATOM     34  C   UNL     1      -2.559  -0.821  -0.967  0.00  0.00    +0.003 A 
ATOM     35  C   UNL     1      -3.110  -1.984  -0.460  0.00  0.00    +0.002 A 
ATOM     36  C   UNL     1      -2.483  -2.654   0.572  0.00  0.00    +0.023 A 
ATOM     37  C   UNL     1      -1.298  -2.159   1.101  0.00  0.00    +0.035 A 
ATOM     38  C   UNL     1      -0.745  -0.994   0.587  0.00  0.00    +0.026 A 
ENDBRANCH  26  37
ENDBRANCH   1  29
TORSDOF 6
