REMARK  Name = CHEMBL262433
REMARK  4 active torsions:
REMARK  status: ('A' for Active; 'I' for Inactive)
REMARK    1  A    between atoms: C_1  and  C_2
REMARK    2  A    between atoms: C_6  and  N_8
REMARK    3  A    between atoms: N_11  and  C_12
REMARK    4  A    between atoms: C_15  and  C_18
REMARK                            x       y       z     vdW  Elec       q    Type
REMARK                         _______ _______ _______ _____ _____    ______ ____
ROOT
ATOM      1  C   UNL     1      -0.599  -3.377   6.724  0.00  0.00    +0.035 A 
ATOM      2  C   UNL     1      -1.060  -2.066   6.699  0.00  0.00    +0.024 A 
ATOM      3  C   UNL     1      -0.998  -1.291   7.838  0.00  0.00    +0.012 A 
ATOM      4  C   UNL     1      -0.473  -1.823   9.015  0.00  0.00    +0.002 A 
ATOM      5  C   UNL     1      -0.012  -3.139   9.037  0.00  0.00    +0.012 A 
ATOM      6  C   UNL     1      -0.080  -3.912   7.897  0.00  0.00    +0.024 A 
ENDROOT
BRANCH   4   7
ATOM      7  C   UNL     1      -0.406  -0.993  10.240  0.00  0.00    +0.093 A 
ATOM      8  C   UNL     1       0.817  -0.938  11.024  0.00  0.00    +0.075 A 
ATOM      9  C   UNL     1       2.077  -1.566  10.853  0.00  0.00    +0.130 A 
ATOM     10  N   UNL     1       3.034  -1.332  11.739  0.00  0.00    -0.220 NA
ATOM     11  C   UNL     1       2.852  -0.533  12.775  0.00  0.00    +0.224 A 
ATOM     12  N   UNL     1       1.702   0.078  12.986  0.00  0.00    -0.227 NA
ATOM     13  C   UNL     1       0.695  -0.097  12.154  0.00  0.00    +0.133 A 
ATOM     14  S   UNL     1      -0.971   0.487  12.027  0.00  0.00    +0.032 S 
ATOM     15  N   UNL     1      -1.443  -0.298  10.625  0.00  0.00    -0.208 NA
ATOM     16  N   UNL     1       2.302  -2.408   9.782  0.00  0.00    -0.343 N 
ATOM     17  H   UNL     1       1.845  -2.255   8.940  0.00  0.00    +0.144 HD
ATOM     18  H   UNL     1       2.917  -3.153   9.871  0.00  0.00    +0.144 HD
ENDBRANCH   4   7
BRANCH   1  22
ATOM     19  N   UNL     1      -0.647  -4.327   3.240  0.00  0.00    -0.267 N 
ATOM     20  C   UNL     1      -0.483  -3.594   4.359  0.00  0.00    +0.308 C 
ATOM     21  O   UNL     1      -0.172  -2.421   4.277  0.00  0.00    -0.252 OA
ATOM     22  N   UNL     1      -0.663  -4.160   5.568  0.00  0.00    -0.269 N 
ATOM     23  H   UNL     1      -0.954  -5.245   3.302  0.00  0.00    +0.156 HD
ATOM     24  H   UNL     1      -0.837  -5.112   5.636  0.00  0.00    +0.156 HD
BRANCH  19  30
ATOM     25  C   UNL     1      -0.388  -0.356   0.351  0.00  0.00    +0.044 C 
ATOM     26  C   UNL     1      -0.241  -1.841   0.558  0.00  0.00    -0.049 A 
ATOM     27  C   UNL     1       0.163  -2.648  -0.490  0.00  0.00    +0.006 A 
ATOM     28  C   UNL     1       0.299  -4.011  -0.304  0.00  0.00    +0.040 A 
ATOM     29  C   UNL     1       0.032  -4.572   0.932  0.00  0.00    +0.145 A 
ATOM     30  C   UNL     1      -0.374  -3.763   1.987  0.00  0.00    +0.070 A 
ATOM     31  C   UNL     1      -0.504  -2.394   1.797  0.00  0.00    +0.029 A 
ATOM     32  F   UNL     1       0.164  -5.904   1.113  0.00  0.00    -0.204 F 
ENDBRANCH  19  30
ENDBRANCH   1  22
TORSDOF 3
