REMARK  Name = CHEMBL494272
REMARK  4 active torsions:
REMARK  status: ('A' for Active; 'I' for Inactive)
REMARK    1  A    between atoms: C_1  and  C_2
REMARK    2  A    between atoms: C_5  and  C_24
REMARK    3  A    between atoms: C_7  and  C_8
REMARK    4  A    between atoms: N_26  and  C_27
REMARK                            x       y       z     vdW  Elec       q    Type
REMARK                         _______ _______ _______ _____ _____    ______ ____
ROOT
ATOM      1  C   UNL     1       0.217  -0.166   2.619  0.00  0.00    -0.017 A 
ATOM      2  C   UNL     1       1.141   0.868   2.828  0.00  0.00    +0.009 A 
ATOM      3  C   UNL     1       1.104   1.623   3.960  0.00  0.00    +0.012 A 
ATOM      4  C   UNL     1       0.131   1.366   4.933  0.00  0.00    +0.025 A 
ATOM      5  C   UNL     1      -0.811   0.322   4.733  0.00  0.00    +0.003 A 
ATOM      6  C   UNL     1      -0.761  -0.440   3.561  0.00  0.00    +0.018 A 
ATOM      7  C   UNL     1      -1.771   0.103   5.740  0.00  0.00    +0.112 A 
ATOM      8  N   UNL     1      -1.758   0.864   6.811  0.00  0.00    -0.282 N 
ATOM      9  N   UNL     1      -0.912   1.807   6.997  0.00  0.00    -0.158 NA
ATOM     10  C   UNL     1       0.036   2.112   6.130  0.00  0.00    +0.149 A 
ATOM     11  N   UNL     1       0.923   3.145   6.389  0.00  0.00    -0.309 N 
ATOM     12  C   UNL     1       0.626   4.522   5.966  0.00  0.00    +0.134 C 
ATOM     13  C   UNL     1       0.820   5.451   7.170  0.00  0.00    +0.178 C 
ATOM     14  O   UNL     1       2.114   5.225   7.734  0.00  0.00    -0.377 OA
ATOM     15  C   UNL     1       2.308   3.904   8.245  0.00  0.00    +0.178 C 
ATOM     16  C   UNL     1       2.187   2.897   7.101  0.00  0.00    +0.134 C 
ATOM     17  H   UNL     1      -2.425   0.702   7.496  0.00  0.00    +0.188 HD
ENDROOT
BRANCH   1  24
ATOM     18  C   UNL     1       0.356   1.169   0.061  0.00  0.00    +0.044 C 
ATOM     19  C   UNL     1       0.350  -0.337   0.135  0.00  0.00    -0.043 A 
ATOM     20  C   UNL     1       0.418  -1.084  -1.025  0.00  0.00    +0.005 A 
ATOM     21  C   UNL     1       0.413  -2.463  -0.965  0.00  0.00    +0.013 A 
ATOM     22  C   UNL     1       0.340  -3.111   0.270  0.00  0.00    +0.037 A 
ATOM     23  C   UNL     1       0.273  -2.361   1.443  0.00  0.00    +0.021 A 
ATOM     24  C   UNL     1       0.283  -0.972   1.375  0.00  0.00    -0.014 A 
BRANCH  22  25
ATOM     25  C   UNL     1       0.334  -4.588   0.333  0.00  0.00    +0.244 C 
ATOM     26  O   UNL     1       0.271  -5.150   1.409  0.00  0.00    -0.270 OA
ATOM     27  N   UNL     1       0.399  -5.311  -0.802  0.00  0.00    -0.308 N 
ATOM     28  H   UNL     1       0.450  -4.863  -1.661  0.00  0.00    +0.149 HD
BRANCH  27  29
ATOM     29  C   UNL     1       0.393  -6.775  -0.740  0.00  0.00    +0.073 C 
ATOM     30  C   UNL     1       1.382  -7.524  -1.635  0.00  0.00    +0.024 C 
ATOM     31  C   UNL     1      -0.111  -7.532  -1.970  0.00  0.00    +0.024 C 
ENDBRANCH  27  29
ENDBRANCH  22  25
ENDBRANCH   1  24
TORSDOF 3
