REMARK  Name = CHEMBL426887
REMARK  3 active torsions:
REMARK  status: ('A' for Active; 'I' for Inactive)
REMARK    1  A    between atoms: C_3  and  C_12
REMARK    2  A    between atoms: C_15  and  N_18
REMARK    3  A    between atoms: N_21  and  C_22
REMARK                            x       y       z     vdW  Elec       q    Type
REMARK                         _______ _______ _______ _____ _____    ______ ____
ROOT
ATOM      1  C   UNL     1       3.736   2.099   0.352  0.00  0.00    -0.017 A 
ATOM      2  C   UNL     1       4.673   1.950   1.374  0.00  0.00    +0.010 A 
ATOM      3  C   UNL     1       5.817   2.719   1.376  0.00  0.00    +0.024 A 
ATOM      4  C   UNL     1       6.037   3.643   0.361  0.00  0.00    +0.035 A 
ATOM      5  C   UNL     1       5.105   3.794  -0.658  0.00  0.00    +0.024 A 
ATOM      6  C   UNL     1       3.962   3.023  -0.669  0.00  0.00    +0.010 A 
ENDROOT
BRANCH   1   9
ATOM      7  C   UNL     1       1.059  -0.307  -0.748  0.00  0.00    +0.003 A 
ATOM      8  C   UNL     1       2.209   0.467  -0.743  0.00  0.00    +0.009 A 
ATOM      9  C   UNL     1       2.506   1.274   0.346  0.00  0.00    -0.005 A 
ATOM     10  C   UNL     1       1.627   1.301   1.447  0.00  0.00    +0.049 A 
ATOM     11  C   UNL     1       0.463   0.513   1.429  0.00  0.00    +0.068 A 
ATOM     12  C   UNL     1       0.192  -0.289   0.322  0.00  0.00    +0.028 A 
ATOM     13  N   UNL     1      -0.188   0.740   2.614  0.00  0.00    -0.275 N 
ATOM     14  H   UNL     1      -1.024   0.330   2.883  0.00  0.00    +0.189 HD
ATOM     15  N   UNL     1       0.547   1.656   3.373  0.00  0.00    -0.158 NA
ATOM     16  C   UNL     1       1.624   2.013   2.723  0.00  0.00    +0.146 A 
ATOM     17  N   UNL     1       2.596   2.912   3.169  0.00  0.00    -0.341 N 
ATOM     18  H   UNL     1       3.308   3.192   2.572  0.00  0.00    +0.144 HD
ATOM     19  H   UNL     1       2.560   3.257   4.075  0.00  0.00    +0.144 HD
ENDBRANCH   1   9
BRANCH   4  20
ATOM     20  N   UNL     1       7.198   4.422   0.366  0.00  0.00    -0.269 N 
ATOM     21  C   UNL     1       8.359   3.899   0.810  0.00  0.00    +0.304 C 
ATOM     22  O   UNL     1       8.379   2.779   1.283  0.00  0.00    -0.253 OA
ATOM     23  N   UNL     1       9.496   4.618   0.731  0.00  0.00    -0.296 N 
ATOM     24  H   UNL     1       7.169   5.338   0.050  0.00  0.00    +0.156 HD
ATOM     25  H   UNL     1       9.479   5.512   0.354  0.00  0.00    +0.151 HD
BRANCH  23  26
ATOM     26  C   UNL     1      10.757   4.050   1.213  0.00  0.00    +0.074 C 
ATOM     27  C   UNL     1      10.930   4.349   2.717  0.00  0.00    +0.022 C 
ATOM     28  C   UNL     1      12.447   4.617   2.879  0.00  0.00    +0.002 C 
ATOM     29  C   UNL     1      12.797   5.393   1.585  0.00  0.00    +0.002 C 
ATOM     30  C   UNL     1      11.944   4.714   0.494  0.00  0.00    +0.022 C 
ENDBRANCH  23  26
ENDBRANCH   4  20
TORSDOF 3
