REMARK  Name = CHEMBL494821
REMARK  5 active torsions:
REMARK  status: ('A' for Active; 'I' for Inactive)
REMARK    1  A    between atoms: C_1  and  C_2
REMARK    2  A    between atoms: N_5  and  C_20
REMARK    3  A    between atoms: C_8  and  C_9
REMARK    4  A    between atoms: C_20  and  C_21
REMARK    5  A    between atoms: C_21  and  C_22
REMARK                            x       y       z     vdW  Elec       q    Type
REMARK                         _______ _______ _______ _____ _____    ______ ____
ROOT
ATOM      1  C   UNL     1      -0.018   1.503   0.010  0.00  0.00    +0.044 C 
ATOM      2  C   UNL     1       0.002  -0.004   0.002  0.00  0.00    -0.036 A 
ATOM      3  C   UNL     1       0.006  -0.707  -1.207  0.00  0.00    +0.022 A 
ATOM      4  C   UNL     1       0.025  -2.061  -1.206  0.00  0.00    +0.089 A 
ATOM      5  N   UNL     1       0.039  -2.761  -0.043  0.00  0.00    -0.315 N 
ATOM      6  C   UNL     1       0.037  -2.129   1.147  0.00  0.00    +0.259 A 
ATOM      7  O   UNL     1       0.051  -2.775   2.182  0.00  0.00    -0.267 OA
ATOM      8  C   UNL     1       0.023  -0.714   1.193  0.00  0.00    +0.050 A 
ENDROOT
BRANCH   8   9
ATOM      9  C   UNL     1       0.026  -0.003   2.492  0.00  0.00    -0.012 A 
ATOM     10  C   UNL     1       1.121   0.803   2.844  0.00  0.00    +0.011 A 
ATOM     11  C   UNL     1       1.149   1.466   4.030  0.00  0.00    +0.029 A 
ATOM     12  C   UNL     1       0.072   1.349   4.923  0.00  0.00    +0.076 A 
ATOM     13  C   UNL     1      -1.040   0.538   4.578  0.00  0.00    +0.019 A 
ATOM     14  C   UNL     1      -1.054  -0.134   3.349  0.00  0.00    +0.020 A 
ATOM     15  C   UNL     1      -2.106   0.439   5.493  0.00  0.00    +0.124 A 
ATOM     16  N   UNL     1      -2.024   1.104   6.626  0.00  0.00    -0.222 NA
ATOM     17  C   UNL     1      -0.965   1.857   6.918  0.00  0.00    +0.213 A 
ATOM     18  N   UNL     1       0.062   1.986   6.101  0.00  0.00    -0.215 NA
ATOM     19  N   UNL     1      -0.941   2.530   8.126  0.00  0.00    -0.327 N 
ATOM     20  H   UNL     1      -1.687   2.448   8.741  0.00  0.00    +0.145 HD
ATOM     21  H   UNL     1      -0.179   3.083   8.358  0.00  0.00    +0.145 HD
ENDBRANCH   8   9
BRANCH   5  22
ATOM     22  C   UNL     1       0.058  -4.226  -0.081  0.00  0.00    +0.125 C 
BRANCH  22  23
ATOM     23  C   UNL     1       1.507  -4.717  -0.102  0.00  0.00    +0.025 C 
BRANCH  23  24
ATOM     24  C   UNL     1       1.527  -6.246  -0.143  0.00  0.00    -0.009 C 
ATOM     25  C   UNL     1       0.994  -6.817   1.187  0.00  0.00    +0.003 C 
ATOM     26  C   UNL     1       1.870  -8.068   1.442  0.00  0.00    +0.000 C 
ATOM     27  C   UNL     1       3.268  -7.611   0.956  0.00  0.00    +0.000 C 
ATOM     28  C   UNL     1       2.973  -6.751  -0.290  0.00  0.00    +0.003 C 
ENDBRANCH  23  24
ENDBRANCH  22  23
ENDBRANCH   5  22
TORSDOF 4
