REMARK  Name = CHEMBL525744
REMARK  4 active torsions:
REMARK  status: ('A' for Active; 'I' for Inactive)
REMARK    1  A    between atoms: C_1  and  C_2
REMARK    2  A    between atoms: N_5  and  C_20
REMARK    3  A    between atoms: C_8  and  C_9
REMARK    4  A    between atoms: C_23  and  N_26
REMARK                            x       y       z     vdW  Elec       q    Type
REMARK                         _______ _______ _______ _____ _____    ______ ____
ROOT
ATOM      1  C   UNL     1      -0.033   1.502   0.013  0.00  0.00    +0.044 C 
ATOM      2  C   UNL     1      -0.005  -0.004   0.003  0.00  0.00    -0.036 A 
ATOM      3  C   UNL     1      -0.291  -0.712  -1.169  0.00  0.00    +0.022 A 
ATOM      4  C   UNL     1      -0.264  -2.066  -1.168  0.00  0.00    +0.095 A 
ATOM      5  N   UNL     1       0.039  -2.761  -0.041  0.00  0.00    -0.284 N 
ATOM      6  C   UNL     1       0.321  -2.124   1.111  0.00  0.00    +0.264 A 
ATOM      7  O   UNL     1       0.591  -2.765   2.114  0.00  0.00    -0.267 OA
ATOM      8  C   UNL     1       0.311  -0.709   1.155  0.00  0.00    +0.050 A 
ENDROOT
BRANCH   8   9
ATOM      9  C   UNL     1       0.626   0.007   2.413  0.00  0.00    -0.012 A 
ATOM     10  C   UNL     1       1.769   0.821   2.483  0.00  0.00    +0.011 A 
ATOM     11  C   UNL     1       2.081   1.489   3.625  0.00  0.00    +0.029 A 
ATOM     12  C   UNL     1       1.256   1.370   4.755  0.00  0.00    +0.076 A 
ATOM     13  C   UNL     1       0.098   0.551   4.694  0.00  0.00    +0.019 A 
ATOM     14  C   UNL     1      -0.212  -0.126   3.507  0.00  0.00    +0.020 A 
ATOM     15  C   UNL     1      -0.712   0.450   5.841  0.00  0.00    +0.124 A 
ATOM     16  N   UNL     1      -0.360   1.120   6.919  0.00  0.00    -0.222 NA
ATOM     17  C   UNL     1       0.733   1.880   6.941  0.00  0.00    +0.213 A 
ATOM     18  N   UNL     1       1.529   2.012   5.897  0.00  0.00    -0.215 NA
ATOM     19  N   UNL     1       1.047   2.558   8.105  0.00  0.00    -0.327 N 
ATOM     20  H   UNL     1       0.475   2.475   8.883  0.00  0.00    +0.145 HD
ATOM     21  H   UNL     1       1.839   3.117   8.142  0.00  0.00    +0.145 HD
ENDBRANCH   8   9
BRANCH   5  22
ATOM     22  C   UNL     1       0.057  -4.162  -0.077  0.00  0.00    +0.050 A 
ATOM     23  C   UNL     1       1.048  -4.825  -0.790  0.00  0.00    +0.028 A 
ATOM     24  C   UNL     1       1.066  -6.205  -0.827  0.00  0.00    +0.025 A 
ATOM     25  C   UNL     1       0.093  -6.930  -0.150  0.00  0.00    +0.030 A 
ATOM     26  C   UNL     1      -0.897  -6.267   0.563  0.00  0.00    +0.025 A 
ATOM     27  C   UNL     1      -0.912  -4.887   0.604  0.00  0.00    +0.028 A 
BRANCH  25  28
ATOM     28  N   UNL     1       0.111  -8.327  -0.187  0.00  0.00    -0.326 N 
ATOM     29  C   UNL     1      -0.975  -9.115   0.418  0.00  0.00    +0.133 C 
ATOM     30  C   UNL     1      -1.466 -10.135  -0.615  0.00  0.00    +0.178 C 
ATOM     31  O   UNL     1      -0.348 -10.874  -1.116  0.00  0.00    -0.377 OA
ATOM     32  C   UNL     1       0.617 -10.077  -1.806  0.00  0.00    +0.178 C 
ATOM     33  C   UNL     1       1.212  -9.054  -0.839  0.00  0.00    +0.133 C 
ENDBRANCH  25  28
ENDBRANCH   5  22
TORSDOF 3
