REMARK  Name = CHEMBL259247
REMARK  6 active torsions:
REMARK  status: ('A' for Active; 'I' for Inactive)
REMARK    1  A    between atoms: C_1  and  C_2
REMARK    2  A    between atoms: C_5  and  N_17
REMARK    3  A    between atoms: C_7  and  C_8
REMARK    4  A    between atoms: N_10  and  C_11
REMARK    5  A    between atoms: C_18  and  C_20
REMARK    6  A    between atoms: C_24  and  C_26
REMARK                            x       y       z     vdW  Elec       q    Type
REMARK                         _______ _______ _______ _____ _____    ______ ____
ROOT
ATOM      1  C   UNL     1      -0.294   1.041  -0.463  0.00  0.00    +0.044 C 
ATOM      2  C   UNL     1      -0.113  -0.433  -0.208  0.00  0.00    -0.038 A 
ATOM      3  C   UNL     1      -0.022  -1.311  -1.270  0.00  0.00    +0.006 A 
ATOM      4  C   UNL     1       0.144  -2.664  -1.042  0.00  0.00    +0.023 A 
ATOM      5  C   UNL     1       0.221  -3.150   0.258  0.00  0.00    +0.034 A 
ATOM      6  C   UNL     1       0.132  -2.277   1.331  0.00  0.00    +0.036 A 
ATOM      7  C   UNL     1      -0.030  -0.911   1.101  0.00  0.00    +0.042 A 
ENDROOT
BRANCH   7   8
ATOM      8  C   UNL     1      -0.121   0.028   2.240  0.00  0.00    +0.249 C 
ATOM      9  O   UNL     1      -0.299   1.213   2.037  0.00  0.00    -0.270 OA
ATOM     10  N   UNL     1      -0.006  -0.431   3.502  0.00  0.00    -0.279 N 
ATOM     11  H   UNL     1       0.063  -1.384   3.667  0.00  0.00    +0.155 HD
BRANCH  10  12
ATOM     12  C   UNL     1       0.014   0.468   4.573  0.00  0.00    +0.070 A 
ATOM     13  C   UNL     1      -0.492   0.106   5.819  0.00  0.00    +0.137 A 
ATOM     14  N   UNL     1      -0.455   0.985   6.807  0.00  0.00    -0.242 NA
ATOM     15  C   UNL     1       0.052   2.188   6.624  0.00  0.00    +0.221 A 
ATOM     16  N   UNL     1       0.541   2.568   5.460  0.00  0.00    -0.242 NA
ATOM     17  C   UNL     1       0.546   1.746   4.424  0.00  0.00    +0.137 A 
ENDBRANCH  10  12
ENDBRANCH   7   8
BRANCH   5  18
ATOM     18  N   UNL     1       0.389  -4.520   0.484  0.00  0.00    -0.281 N 
ATOM     19  C   UNL     1       1.165  -4.946   1.500  0.00  0.00    +0.248 C 
ATOM     20  O   UNL     1       1.653  -4.143   2.270  0.00  0.00    -0.270 OA
ATOM     21  H   UNL     1      -0.054  -5.164  -0.091  0.00  0.00    +0.155 HD
BRANCH  19  22
ATOM     22  C   UNL     1       1.423  -6.391   1.678  0.00  0.00    +0.038 A 
ATOM     23  C   UNL     1       0.869  -7.316   0.791  0.00  0.00    +0.013 A 
ATOM     24  C   UNL     1       1.113  -8.663   0.963  0.00  0.00    +0.001 A 
ATOM     25  C   UNL     1       1.906  -9.097   2.011  0.00  0.00    +0.012 A 
ATOM     26  C   UNL     1       2.458  -8.185   2.893  0.00  0.00    +0.056 A 
ATOM     27  C   UNL     1       2.226  -6.835   2.729  0.00  0.00    +0.025 A 
BRANCH  26  28
ATOM     28  C   UNL     1       3.320  -8.668   4.031  0.00  0.00    +0.417 C 
ATOM     29  F   UNL     1       3.414 -10.063   3.986  0.00  0.00    -0.166 F 
ATOM     30  F   UNL     1       4.598  -8.111   3.916  0.00  0.00    -0.166 F 
ATOM     31  F   UNL     1       2.749  -8.277   5.247  0.00  0.00    -0.166 F 
ENDBRANCH  26  28
ENDBRANCH  19  22
ENDBRANCH   5  18
TORSDOF 5
