REMARK  Name = CHEMBL178455
REMARK  8 active torsions:
REMARK  status: ('A' for Active; 'I' for Inactive)
REMARK    1  A    between atoms: C_1  and  O_2
REMARK    2  A    between atoms: O_2  and  C_3
REMARK    3  A    between atoms: C_6  and  O_15
REMARK    4  A    between atoms: C_12  and  O_13
REMARK    5  A    between atoms: O_13  and  C_14
REMARK    6  A    between atoms: O_15  and  C_16
REMARK    7  A    between atoms: C_19  and  N_23
REMARK    8  A    between atoms: N_26  and  C_27
REMARK                            x       y       z     vdW  Elec       q    Type
REMARK                         _______ _______ _______ _____ _____    ______ ____
ROOT
ATOM      1  C   UNL     1      -5.933   2.287   0.064  0.00  0.00    +0.131 A 
ATOM      2  C   UNL     1      -7.157   1.634   0.109  0.00  0.00    +0.048 A 
ATOM      3  C   UNL     1      -8.330   2.361   0.078  0.00  0.00    +0.030 A 
ATOM      4  C   UNL     1      -8.287   3.746   0.001  0.00  0.00    +0.070 A 
ATOM      5  C   UNL     1      -7.061   4.401  -0.044  0.00  0.00    +0.148 A 
ATOM      6  C   UNL     1      -5.887   3.671  -0.008  0.00  0.00    +0.086 A 
ATOM      7  F   UNL     1      -7.017   5.749  -0.119  0.00  0.00    -0.203 F 
ENDROOT
BRANCH   4   8
ATOM      8  N   UNL     1      -9.478   4.485  -0.031  0.00  0.00    -0.267 N 
ATOM      9  C   UNL     1     -10.553   4.060   0.662  0.00  0.00    +0.308 C 
ATOM     10  O   UNL     1     -10.515   2.998   1.253  0.00  0.00    -0.252 OA
ATOM     11  N   UNL     1     -11.671   4.813   0.700  0.00  0.00    -0.267 N 
ATOM     12  H   UNL     1      -9.529   5.301  -0.552  0.00  0.00    +0.156 HD
ATOM     13  H   UNL     1     -11.732   5.617   0.162  0.00  0.00    +0.156 HD
BRANCH  11  14
ATOM     14  C   UNL     1     -12.744   4.433   1.518  0.00  0.00    +0.070 A 
ATOM     15  C   UNL     1     -12.505   3.800   2.729  0.00  0.00    +0.029 A 
ATOM     16  C   UNL     1     -13.564   3.427   3.534  0.00  0.00    +0.040 A 
ATOM     17  C   UNL     1     -14.865   3.682   3.133  0.00  0.00    +0.126 A 
ATOM     18  C   UNL     1     -15.107   4.312   1.924  0.00  0.00    +0.078 A 
ATOM     19  C   UNL     1     -14.050   4.694   1.118  0.00  0.00    +0.147 A 
ATOM     20  F   UNL     1     -14.286   5.314  -0.059  0.00  0.00    -0.203 F 
ATOM     21  F   UNL     1     -15.898   3.316   3.922  0.00  0.00    -0.205 F 
ENDBRANCH  11  14
ENDBRANCH   4   8
BRANCH   1  22
ATOM     22  O   UNL     1      -4.779   1.569   0.095  0.00  0.00    -0.455 OA
BRANCH  22  26
ATOM     23  C   UNL     1      -1.101  -0.456  -0.115  0.00  0.00    +0.162 A 
ATOM     24  C   UNL     1      -2.287   0.211  -0.011  0.00  0.00    +0.063 A 
ATOM     25  C   UNL     1      -3.165   0.240  -1.105  0.00  0.00    +0.046 A 
ATOM     26  C   UNL     1      -4.401   0.921  -1.034  0.00  0.00    +0.139 A 
ATOM     27  C   UNL     1      -5.215   0.906  -2.154  0.00  0.00    +0.066 A 
ATOM     28  C   UNL     1      -4.802   0.233  -3.296  0.00  0.00    +0.115 A 
ATOM     29  N   UNL     1      -3.652  -0.397  -3.351  0.00  0.00    -0.255 NA
ATOM     30  C   UNL     1      -2.816  -0.423  -2.307  0.00  0.00    +0.078 A 
ATOM     31  C   UNL     1      -1.588  -1.102  -2.382  0.00  0.00    +0.077 A 
ATOM     32  C   UNL     1      -0.749  -1.109  -1.305  0.00  0.00    +0.164 A 
BRANCH  23  34
ATOM     33  C   UNL     1      -0.664   0.200   2.129  0.00  0.00    +0.277 C 
ATOM     34  O   UNL     1      -0.249  -0.484   0.945  0.00  0.00    -0.491 OA
ENDBRANCH  23  34
BRANCH  32  35
ATOM     35  O   UNL     1       0.440  -1.762  -1.386  0.00  0.00    -0.491 OA
ATOM     36  C   UNL     1       0.742  -2.408  -2.624  0.00  0.00    +0.277 C 
ENDBRANCH  32  35
ENDBRANCH  22  26
ENDBRANCH   1  22
TORSDOF 6
