REMARK  Name = CHEMBL223790
REMARK  9 active torsions:
REMARK  status: ('A' for Active; 'I' for Inactive)
REMARK    1  A    between atoms: C_1  and  C_2
REMARK    2  A    between atoms: C_6  and  N_8
REMARK    3  A    between atoms: N_11  and  C_12
REMARK    4  A    between atoms: C_15  and  C_18
REMARK    5  A    between atoms: C_21  and  O_29
REMARK    6  A    between atoms: C_24  and  N_28
REMARK    7  A    between atoms: O_29  and  C_30
REMARK    8  A    between atoms: C_30  and  C_31
REMARK    9  A    between atoms: C_31  and  N_32
REMARK                            x       y       z     vdW  Elec       q    Type
REMARK                         _______ _______ _______ _____ _____    ______ ____
ROOT
ATOM      1  C   UNL     1       0.007 -10.468   3.640  0.00  0.00    -0.005 A 
ATOM      2  C   UNL     1      -0.889 -11.187   2.872  0.00  0.00    +0.013 A 
ATOM      3  C   UNL     1      -0.878 -12.578   2.859  0.00  0.00    +0.048 A 
ATOM      4  C   UNL     1       0.003 -13.310   3.593  0.00  0.00    +0.148 A 
ATOM      5  C   UNL     1       0.960 -12.668   4.413  0.00  0.00    +0.136 A 
ATOM      6  C   UNL     1       0.984 -11.199   4.447  0.00  0.00    +0.052 A 
ATOM      7  C   UNL     1       2.008 -10.841   5.311  0.00  0.00    +0.120 A 
ATOM      8  N   UNL     1       2.573 -11.973   5.767  0.00  0.00    -0.263 N 
ATOM      9  N   UNL     1       1.920 -13.084   5.220  0.00  0.00    -0.169 NA
ATOM     10  H   UNL     1       3.316 -12.014   6.389  0.00  0.00    +0.190 HD
ENDROOT
BRANCH   1  14
ATOM     11  C   UNL     1      -0.065  -6.217   3.647  0.00  0.00    +0.035 A 
ATOM     12  C   UNL     1      -0.054  -6.909   2.442  0.00  0.00    +0.024 A 
ATOM     13  C   UNL     1      -0.030  -8.287   2.436  0.00  0.00    +0.010 A 
ATOM     14  C   UNL     1      -0.018  -8.988   3.643  0.00  0.00    -0.017 A 
ATOM     15  C   UNL     1      -0.029  -8.291   4.852  0.00  0.00    +0.010 A 
ATOM     16  C   UNL     1      -0.047  -6.913   4.851  0.00  0.00    +0.024 A 
BRANCH  11  20
ATOM     17  N   UNL     1      -0.679  -2.809   2.619  0.00  0.00    -0.269 N 
ATOM     18  C   UNL     1      -0.743  -4.154   2.677  0.00  0.00    +0.308 C 
ATOM     19  O   UNL     1      -1.391  -4.768   1.851  0.00  0.00    -0.252 OA
ATOM     20  N   UNL     1      -0.088  -4.819   3.650  0.00  0.00    -0.269 N 
ATOM     21  H   UNL     1      -0.103  -2.325   3.230  0.00  0.00    +0.156 HD
ATOM     22  H   UNL     1       0.366  -4.327   4.351  0.00  0.00    +0.156 HD
BRANCH  17  28
ATOM     23  C   UNL     1      -1.192   1.026  -0.414  0.00  0.00    +0.044 C 
ATOM     24  C   UNL     1      -1.717  -0.250   0.191  0.00  0.00    -0.049 A 
ATOM     25  C   UNL     1      -2.957  -0.734  -0.185  0.00  0.00    +0.003 A 
ATOM     26  C   UNL     1      -3.442  -1.905   0.367  0.00  0.00    +0.002 A 
ATOM     27  C   UNL     1      -2.689  -2.595   1.297  0.00  0.00    +0.023 A 
ATOM     28  C   UNL     1      -1.444  -2.112   1.677  0.00  0.00    +0.035 A 
ATOM     29  C   UNL     1      -0.957  -0.939   1.116  0.00  0.00    +0.026 A 
ENDBRANCH  17  28
ENDBRANCH  11  20
ENDBRANCH   1  14
BRANCH   7  30
ATOM     30  N   UNL     1       2.383  -9.547   5.645  0.00  0.00    -0.343 N 
ATOM     31  H   UNL     1       1.911  -8.791   5.261  0.00  0.00    +0.144 HD
ATOM     32  H   UNL     1       3.116  -9.398   6.262  0.00  0.00    +0.144 HD
ENDBRANCH   7  30
BRANCH   4  33
ATOM     33  O   UNL     1      -0.037 -14.668   3.538  0.00  0.00    -0.492 OA
BRANCH  33  34
ATOM     34  C   UNL     1      -1.028 -15.254   2.691  0.00  0.00    +0.211 C 
BRANCH  34  35
ATOM     35  C   UNL     1      -0.919 -16.779   2.759  0.00  0.00    -0.037 C 
BRANCH  35  36
ATOM     36  N   UNL     1      -1.250 -17.233   4.117  0.00  0.00    +0.382 N 
ATOM     37  C   UNL     1      -2.693 -17.013   4.392  0.00  0.00    -0.079 C 
ATOM     38  C   UNL     1      -2.990 -18.007   5.543  0.00  0.00    -0.020 C 
ATOM     39  C   UNL     1      -2.130 -19.236   5.168  0.00  0.00    -0.020 C 
ATOM     40  C   UNL     1      -1.035 -18.691   4.233  0.00  0.00    -0.079 C 
ATOM     41  H   UNL     1      -0.687 -16.742   4.795  0.00  0.00    -0.082 HD
ENDBRANCH  35  36
ENDBRANCH  34  35
ENDBRANCH  33  34
ENDBRANCH   4  33
TORSDOF 8
