REMARK  Name = CHEMBL211464
REMARK  8 active torsions:
REMARK  status: ('A' for Active; 'I' for Inactive)
REMARK    1  A    between atoms: C_1  and  N_2
REMARK    2  A    between atoms: N_5  and  C_8
REMARK    3  A    between atoms: C_8  and  C_9
REMARK    4  A    between atoms: C_17  and  C_21
REMARK    5  A    between atoms: C_24  and  C_26
REMARK    6  A    between atoms: C_26  and  N_27
REMARK    7  A    between atoms: N_27  and  C_28
REMARK    8  A    between atoms: N_31  and  C_32
REMARK                            x       y       z     vdW  Elec       q    Type
REMARK                         _______ _______ _______ _____ _____    ______ ____
ROOT
ATOM      1  C   UNL     1      -0.152  -4.436   2.549  0.00  0.00    -0.033 A 
ATOM      2  C   UNL     1       1.205  -4.667   2.691  0.00  0.00    +0.005 A 
ATOM      3  C   UNL     1       1.712  -5.104   3.903  0.00  0.00    +0.005 A 
ATOM      4  C   UNL     1       0.865  -5.309   4.970  0.00  0.00    -0.034 A 
ATOM      5  C   UNL     1      -0.504  -5.079   4.838  0.00  0.00    +0.004 A 
ATOM      6  C   UNL     1      -1.007  -4.633   3.613  0.00  0.00    +0.015 A 
ATOM      7  C   UNL     1      -1.175  -5.375   6.123  0.00  0.00    +0.070 A 
ATOM      8  C   UNL     1      -0.259  -5.781   7.045  0.00  0.00    +0.010 A 
ATOM      9  C   UNL     1      -0.939  -6.050   8.246  0.00  0.00    +0.103 A 
ATOM     10  N   UNL     1      -2.221  -5.814   8.054  0.00  0.00    -0.173 NA
ATOM     11  H   UNL     1      -3.243  -5.148   6.319  0.00  0.00    +0.189 HD
ATOM     12  N   UNL     1      -2.399  -5.389   6.731  0.00  0.00    -0.276 N 
ATOM     13  C   UNL     1       1.100  -5.771   6.387  0.00  0.00    +0.075 C 
ENDROOT
BRANCH   9  14
ATOM     14  C   UNL     1      -0.322  -6.517   9.507  0.00  0.00    +0.040 A 
ATOM     15  C   UNL     1      -0.668  -6.222  10.797  0.00  0.00    +0.018 A 
ATOM     16  C   UNL     1       0.061  -6.783  11.824  0.00  0.00    +0.013 A 
ATOM     17  C   UNL     1       1.097  -7.608  11.525  0.00  0.00    +0.008 A 
ATOM     18  S   UNL     1       1.064  -7.619   9.740  0.00  0.00    -0.090 S 
BRANCH  17  19
ATOM     19  C   UNL     1       2.031  -8.332  12.460  0.00  0.00    +0.151 C 
BRANCH  19  20
ATOM     20  N   UNL     1       1.476  -9.650  12.780  0.00  0.00    -0.284 N 
ATOM     21  C   UNL     1       1.808 -10.807  11.945  0.00  0.00    +0.134 C 
ATOM     22  C   UNL     1       0.661  -9.797  13.843  0.00  0.00    +0.307 C 
ATOM     23  O   UNL     1       0.386  -8.837  14.536  0.00  0.00    -0.252 OA
ATOM     24  N   UNL     1       0.151 -11.009  14.138  0.00  0.00    -0.269 N 
ATOM     25  H   UNL     1       0.316 -11.761  13.548  0.00  0.00    +0.156 HD
BRANCH  24  26
ATOM     26  C   UNL     1      -0.618 -11.182  15.295  0.00  0.00    +0.035 A 
ATOM     27  C   UNL     1      -0.542 -12.371  16.009  0.00  0.00    +0.024 A 
ATOM     28  C   UNL     1      -1.302 -12.540  17.150  0.00  0.00    +0.017 A 
ATOM     29  C   UNL     1      -2.137 -11.525  17.583  0.00  0.00    +0.018 A 
ATOM     30  C   UNL     1      -2.214 -10.339  16.873  0.00  0.00    +0.017 A 
ATOM     31  C   UNL     1      -1.453 -10.164  15.735  0.00  0.00    +0.024 A 
ATOM     32 BR   UNL     1      -3.176 -11.759  19.145  0.00  0.00    -0.050 Br
ENDBRANCH  24  26
ENDBRANCH  19  20
ENDBRANCH  17  19
ENDBRANCH   9  14
BRANCH   1  33
ATOM     33  C   UNL     1      -0.698  -3.961   1.227  0.00  0.00    +0.119 C 
BRANCH  33  38
ATOM     34  C   UNL     1      -0.076   1.516   0.056  0.00  0.00    -0.096 C 
ATOM     35  N   UNL     1      -0.060   0.047   0.043  0.00  0.00    +0.379 N 
ATOM     36  C   UNL     1      -1.440  -0.457   0.059  0.00  0.00    -0.064 C 
ATOM     37  C   UNL     1      -1.424  -1.987   0.026  0.00  0.00    +0.066 C 
ATOM     38  N   UNL     1      -0.686  -2.492   1.192  0.00  0.00    -0.302 NA
ATOM     39  C   UNL     1       0.690  -1.975   1.203  0.00  0.00    +0.066 C 
ATOM     40  C   UNL     1       0.657  -0.446   1.226  0.00  0.00    -0.064 C 
ATOM     41  H   UNL     1       0.406  -0.277  -0.791  0.00  0.00    -0.082 HD
ENDBRANCH  33  38
ENDBRANCH   1  33
TORSDOF 6
