REMARK  Name = CHEMBL494272
REMARK  5 active torsions:
REMARK  status: ('A' for Active; 'I' for Inactive)
REMARK    1  A    between atoms: C_1  and  C_2
REMARK    2  A    between atoms: C_5  and  C_24
REMARK    3  A    between atoms: C_7  and  C_8
REMARK    4  A    between atoms: C_17  and  N_18
REMARK    5  A    between atoms: N_26  and  C_27
REMARK                            x       y       z     vdW  Elec       q    Type
REMARK                         _______ _______ _______ _____ _____    ______ ____
ROOT
ATOM      1  C   UNL     1       0.218  -0.166   2.619  0.00  0.00    -0.017 A 
ATOM      2  C   UNL     1       1.140   0.873   2.825  0.00  0.00    +0.009 A 
ATOM      3  C   UNL     1       1.103   1.627   3.957  0.00  0.00    +0.012 A 
ATOM      4  C   UNL     1       0.133   1.367   4.933  0.00  0.00    +0.023 A 
ATOM      5  C   UNL     1      -0.805   0.319   4.736  0.00  0.00    +0.006 A 
ATOM      6  C   UNL     1      -0.755  -0.442   3.563  0.00  0.00    +0.018 A 
ATOM      7  C   UNL     1      -1.762   0.097   5.745  0.00  0.00    +0.141 A 
ATOM      8  N   UNL     1      -1.749   0.857   6.815  0.00  0.00    -0.180 NA
ATOM      9  N   UNL     1      -0.906   1.803   7.000  0.00  0.00    -0.264 N 
ATOM     10  C   UNL     1       0.039   2.112   6.130  0.00  0.00    +0.123 A 
ATOM     11  H   UNL     1      -0.965   2.319   7.820  0.00  0.00    +0.190 HD
ENDROOT
BRANCH   1  18
ATOM     12  C   UNL     1       0.357   1.170   0.061  0.00  0.00    +0.044 C 
ATOM     13  C   UNL     1       0.352  -0.336   0.135  0.00  0.00    -0.043 A 
ATOM     14  C   UNL     1       0.419  -1.083  -1.025  0.00  0.00    +0.005 A 
ATOM     15  C   UNL     1       0.415  -2.462  -0.966  0.00  0.00    +0.013 A 
ATOM     16  C   UNL     1       0.343  -3.110   0.269  0.00  0.00    +0.037 A 
ATOM     17  C   UNL     1       0.275  -2.360   1.442  0.00  0.00    +0.021 A 
ATOM     18  C   UNL     1       0.284  -0.971   1.374  0.00  0.00    -0.014 A 
BRANCH  16  19
ATOM     19  C   UNL     1       0.338  -4.587   0.332  0.00  0.00    +0.244 C 
ATOM     20  O   UNL     1       0.275  -5.149   1.407  0.00  0.00    -0.270 OA
ATOM     21  N   UNL     1       0.404  -5.310  -0.804  0.00  0.00    -0.308 N 
ATOM     22  H   UNL     1       0.454  -4.861  -1.662  0.00  0.00    +0.149 HD
BRANCH  21  23
ATOM     23  C   UNL     1       0.399  -6.774  -0.742  0.00  0.00    +0.073 C 
ATOM     24  C   UNL     1       1.389  -7.522  -1.637  0.00  0.00    +0.024 C 
ATOM     25  C   UNL     1      -0.104  -7.531  -1.972  0.00  0.00    +0.024 C 
ENDBRANCH  21  23
ENDBRANCH  16  19
ENDBRANCH   1  18
BRANCH  10  26
ATOM     26  N   UNL     1       0.923   3.147   6.386  0.00  0.00    -0.311 N 
ATOM     27  C   UNL     1       0.620   4.524   5.964  0.00  0.00    +0.134 C 
ATOM     28  C   UNL     1       0.814   5.453   7.168  0.00  0.00    +0.178 C 
ATOM     29  O   UNL     1       2.111   5.232   7.729  0.00  0.00    -0.377 OA
ATOM     30  C   UNL     1       2.310   3.911   8.239  0.00  0.00    +0.178 C 
ATOM     31  C   UNL     1       2.190   2.904   7.095  0.00  0.00    +0.134 C 
ENDBRANCH  10  26
TORSDOF 4
