REMARK  Name = CHEMBL212762
REMARK  8 active torsions:
REMARK  status: ('A' for Active; 'I' for Inactive)
REMARK    1  A    between atoms: C_1  and  N_2
REMARK    2  A    between atoms: N_5  and  C_8
REMARK    3  A    between atoms: C_8  and  C_9
REMARK    4  A    between atoms: C_21  and  C_22
REMARK    5  A    between atoms: C_25  and  C_27
REMARK    6  A    between atoms: C_27  and  N_28
REMARK    7  A    between atoms: N_31  and  C_32
REMARK    8  A    between atoms: C_35  and  C_38
REMARK                            x       y       z     vdW  Elec       q    Type
REMARK                         _______ _______ _______ _____ _____    ______ ____
ROOT
ATOM      1  C   UNL     1      -0.037  -4.508   2.543  0.00  0.00    -0.033 A 
ATOM      2  C   UNL     1       1.317  -4.743   2.704  0.00  0.00    +0.005 A 
ATOM      3  C   UNL     1       1.809  -5.175   3.917  0.00  0.00    +0.010 A 
ATOM      4  C   UNL     1       0.937  -5.376   4.991  0.00  0.00    +0.004 A 
ATOM      5  C   UNL     1      -0.425  -5.136   4.818  0.00  0.00    -0.033 A 
ATOM      6  C   UNL     1      -0.906  -4.699   3.604  0.00  0.00    +0.009 A 
ATOM      7  C   UNL     1      -1.096  -5.439   6.135  0.00  0.00    +0.075 C 
ATOM      8  C   UNL     1       0.008  -5.872   7.068  0.00  0.00    +0.010 A 
ATOM      9  C   UNL     1       1.181  -5.827   6.379  0.00  0.00    +0.070 A 
ATOM     10  N   UNL     1       2.172  -6.222   7.235  0.00  0.00    -0.276 N 
ATOM     11  H   UNL     1       3.116  -6.289   7.022  0.00  0.00    +0.189 HD
ATOM     12  N   UNL     1       1.585  -6.513   8.472  0.00  0.00    -0.173 NA
ATOM     13  C   UNL     1       0.287  -6.304   8.377  0.00  0.00    +0.103 A 
ENDROOT
BRANCH  13  14
ATOM     14  C   UNL     1      -0.704  -6.491   9.459  0.00  0.00    +0.040 A 
ATOM     15  C   UNL     1      -0.724  -7.426  10.458  0.00  0.00    +0.018 A 
ATOM     16  C   UNL     1      -1.762  -7.406  11.365  0.00  0.00    +0.013 A 
ATOM     17  C   UNL     1      -2.730  -6.463  11.240  0.00  0.00    +0.008 A 
ATOM     18  S   UNL     1      -2.182  -5.552   9.805  0.00  0.00    -0.090 S 
BRANCH  17  19
ATOM     19  C   UNL     1      -3.950  -6.239  12.095  0.00  0.00    +0.148 C 
BRANCH  19  20
ATOM     20  N   UNL     1      -3.621  -5.315  13.184  0.00  0.00    -0.295 N 
ATOM     21  C   UNL     1      -4.565  -4.966  14.080  0.00  0.00    +0.304 C 
ATOM     22  O   UNL     1      -5.689  -5.418  13.986  0.00  0.00    -0.252 OA
ATOM     23  N   UNL     1      -4.262  -4.116  15.081  0.00  0.00    -0.269 N 
ATOM     24  H   UNL     1      -2.724  -4.954  13.259  0.00  0.00    +0.151 HD
ATOM     25  H   UNL     1      -3.349  -3.808  15.197  0.00  0.00    +0.156 HD
BRANCH  23  26
ATOM     26  C   UNL     1      -5.264  -3.678  15.955  0.00  0.00    +0.035 A 
ATOM     27  C   UNL     1      -5.232  -2.384  16.457  0.00  0.00    +0.024 A 
ATOM     28  C   UNL     1      -6.222  -1.955  17.319  0.00  0.00    +0.014 A 
ATOM     29  C   UNL     1      -7.245  -2.812  17.681  0.00  0.00    +0.055 A 
ATOM     30  C   UNL     1      -7.279  -4.102  17.183  0.00  0.00    +0.014 A 
ATOM     31  C   UNL     1      -6.295  -4.535  16.316  0.00  0.00    +0.024 A 
BRANCH  29  32
ATOM     32  C   UNL     1      -8.324  -2.341  18.621  0.00  0.00    +0.417 C 
ATOM     33  F   UNL     1      -9.372  -1.778  17.884  0.00  0.00    -0.166 F 
ATOM     34  F   UNL     1      -8.805  -3.426  19.361  0.00  0.00    -0.166 F 
ATOM     35  F   UNL     1      -7.798  -1.380  19.491  0.00  0.00    -0.166 F 
ENDBRANCH  29  32
ENDBRANCH  23  26
ENDBRANCH  19  20
ENDBRANCH  17  19
ENDBRANCH  13  14
BRANCH   1  36
ATOM     36  C   UNL     1      -0.566  -4.036   1.213  0.00  0.00    +0.119 C 
BRANCH  36  41
ATOM     37  C   UNL     1       0.085   1.434   0.028  0.00  0.00    -0.096 C 
ATOM     38  N   UNL     1       0.096  -0.035   0.021  0.00  0.00    +0.379 N 
ATOM     39  C   UNL     1      -1.285  -0.535   0.023  0.00  0.00    -0.064 C 
ATOM     40  C   UNL     1      -1.274  -2.065  -0.004  0.00  0.00    +0.066 C 
ATOM     41  N   UNL     1      -0.550  -2.567   1.173  0.00  0.00    -0.302 NA
ATOM     42  C   UNL     1       0.827  -2.055   1.197  0.00  0.00    +0.066 C 
ATOM     43  C   UNL     1       0.798  -0.525   1.214  0.00  0.00    -0.064 C 
ATOM     44  H   UNL     1       0.571  -0.363  -0.807  0.00  0.00    -0.082 HD
ENDBRANCH  36  41
ENDBRANCH   1  36
TORSDOF 7
