REMARK  Name = CHEMBL565366
REMARK  5 active torsions:
REMARK  status: ('A' for Active; 'I' for Inactive)
REMARK    1  A    between atoms: C_1  and  N_2
REMARK    2  A    between atoms: C_6  and  C_9
REMARK    3  A    between atoms: N_21  and  C_22
REMARK    4  A    between atoms: C_25  and  C_28
REMARK    5  A    between atoms: N_33  and  C_36
REMARK                            x       y       z     vdW  Elec       q    Type
REMARK                         _______ _______ _______ _____ _____    ______ ____
ROOT
ATOM      1  C   UNL     1       0.055   1.239  -0.239  0.00  0.00    +0.154 C 
ATOM      2  N   UNL     1      -0.156   0.227  -1.278  0.00  0.00    -0.295 N 
ATOM      3  C   UNL     1      -1.401  -0.324  -1.446  0.00  0.00    +0.148 A 
ATOM      4  C   UNL     1      -1.622  -1.299  -2.442  0.00  0.00    +0.037 A 
ATOM      5  C   UNL     1      -0.559  -1.717  -3.276  0.00  0.00    +0.027 A 
ATOM      6  C   UNL     1       0.680  -1.161  -3.101  0.00  0.00    +0.050 A 
ATOM      7  C   UNL     1       0.873  -0.148  -2.061  0.00  0.00    +0.260 A 
ATOM      8  O   UNL     1       1.971   0.355  -1.902  0.00  0.00    -0.267 OA
ATOM      9  C   UNL     1      -2.910  -1.837  -2.582  0.00  0.00    +0.126 A 
ATOM     10  N   UNL     1      -3.863  -1.409  -1.775  0.00  0.00    -0.222 NA
ATOM     11  C   UNL     1      -3.619  -0.489  -0.849  0.00  0.00    +0.221 A 
ATOM     12  N   UNL     1      -2.421   0.047  -0.679  0.00  0.00    -0.196 NA
ATOM     13  N   UNL     1      -4.655  -0.077  -0.031  0.00  0.00    -0.284 N 
ATOM     14  H   UNL     1      -4.518   0.651   0.595  0.00  0.00    +0.155 HD
ENDROOT
BRANCH   6  15
ATOM     15  C   UNL     1       1.813  -1.578  -3.959  0.00  0.00    +0.024 A 
ATOM     16  C   UNL     1       2.624  -2.648  -3.578  0.00  0.00    +0.050 A 
ATOM     17  C   UNL     1       3.679  -3.031  -4.383  0.00  0.00    +0.021 A 
ATOM     18  C   UNL     1       3.933  -2.357  -5.564  0.00  0.00    +0.003 A 
ATOM     19  C   UNL     1       3.133  -1.296  -5.947  0.00  0.00    +0.021 A 
ATOM     20  C   UNL     1       2.072  -0.905  -5.154  0.00  0.00    +0.050 A 
ATOM     21 CL   UNL     1       1.065   0.423  -5.641  0.00  0.00    -0.083 Cl
ATOM     22 CL   UNL     1       2.308  -3.495  -2.096  0.00  0.00    -0.083 Cl
ENDBRANCH   6  15
BRANCH  13  23
ATOM     23  C   UNL     1      -5.894  -0.706  -0.106  0.00  0.00    +0.034 A 
ATOM     24  C   UNL     1      -5.963  -2.081  -0.312  0.00  0.00    +0.024 A 
ATOM     25  C   UNL     1      -7.187  -2.707  -0.387  0.00  0.00    +0.015 A 
ATOM     26  C   UNL     1      -8.361  -1.960  -0.255  0.00  0.00    +0.037 A 
ATOM     27  C   UNL     1      -8.288  -0.579  -0.048  0.00  0.00    +0.015 A 
ATOM     28  C   UNL     1      -7.061   0.039   0.031  0.00  0.00    +0.024 A 
BRANCH  26  29
ATOM     29  C   UNL     1      -9.675  -2.627  -0.335  0.00  0.00    +0.247 C 
ATOM     30  O   UNL     1     -10.567  -2.135  -0.999  0.00  0.00    -0.270 OA
ATOM     31  N   UNL     1      -9.886  -3.781   0.327  0.00  0.00    -0.295 N 
ATOM     32  C   UNL     1      -8.796  -4.438   1.066  0.00  0.00    +0.123 C 
ATOM     33  C   UNL     1      -9.283  -4.737   2.488  0.00  0.00    +0.103 C 
ATOM     34  N   UNL     1     -10.537  -5.500   2.422  0.00  0.00    -0.302 NA
ATOM     35  C   UNL     1     -11.603  -4.718   1.782  0.00  0.00    +0.103 C 
ATOM     36  C   UNL     1     -11.213  -4.415   0.336  0.00  0.00    +0.123 C 
ATOM     37  C   UNL     1     -10.947  -5.955   3.757  0.00  0.00    +0.105 C 
ENDBRANCH  26  29
ENDBRANCH  13  23
TORSDOF 3
