REMARK  Name = CHEMBL505830
REMARK  9 active torsions:
REMARK  status: ('A' for Active; 'I' for Inactive)
REMARK    1  A    between atoms: C_1  and  N_2
REMARK    2  A    between atoms: N_5  and  C_8
REMARK    3  A    between atoms: C_8  and  C_9
REMARK    4  A    between atoms: C_9  and  C_10
REMARK    5  A    between atoms: C_13  and  N_16
REMARK    6  A    between atoms: C_23  and  C_37
REMARK    7  A    between atoms: N_25  and  C_28
REMARK    8  A    between atoms: N_39  and  O_40
REMARK    9  A    between atoms: O_40  and  C_41
REMARK                            x       y       z     vdW  Elec       q    Type
REMARK                         _______ _______ _______ _____ _____    ______ ____
ROOT
ATOM      1  N   UNL     1       0.169 -10.281   2.503  0.00  0.00    -0.284 N 
ATOM      2  C   UNL     1       1.222 -10.852   1.814  0.00  0.00    +0.221 A 
ATOM      3  N   UNL     1       2.210 -10.069   1.393  0.00  0.00    -0.222 NA
ATOM      4  C   UNL     1       3.239 -10.568   0.731  0.00  0.00    +0.129 A 
ATOM      5  C   UNL     1       3.266 -11.941   0.481  0.00  0.00    +0.083 A 
ATOM      6  C   UNL     1       4.372 -12.578  -0.248  0.00  0.00    +0.205 A 
ATOM      7  O   UNL     1       5.316 -11.930  -0.667  0.00  0.00    -0.286 OA
ATOM      8  C   UNL     1       4.290 -14.036  -0.451  0.00  0.00    +0.102 A 
ATOM      9  C   UNL     1       3.199 -14.716   0.045  0.00  0.00    +0.110 A 
ATOM     10  N   UNL     1       2.206 -14.096   0.708  0.00  0.00    -0.300 N 
ATOM     11  C   UNL     1       2.203 -12.743   0.940  0.00  0.00    +0.154 A 
ATOM     12  N   UNL     1       1.210 -12.159   1.603  0.00  0.00    -0.196 NA
ATOM     13  H   UNL     1      -0.522 -10.844   2.886  0.00  0.00    +0.155 HD
ENDROOT
BRANCH  10  14
ATOM     14  C   UNL     1       1.133 -14.861   1.179  0.00  0.00    +0.048 A 
ATOM     15  C   UNL     1       1.356 -15.891   2.084  0.00  0.00    +0.026 A 
ATOM     16  C   UNL     1       0.294 -16.642   2.546  0.00  0.00    +0.006 A 
ATOM     17  C   UNL     1      -0.994 -16.374   2.110  0.00  0.00    -0.044 A 
ATOM     18  C   UNL     1      -1.219 -15.349   1.209  0.00  0.00    -0.042 A 
ATOM     19  C   UNL     1      -0.158 -14.590   0.748  0.00  0.00    +0.030 A 
ATOM     20  C   UNL     1      -2.697 -15.261   0.894  0.00  0.00    +0.036 C 
ATOM     21  C   UNL     1      -3.290 -16.609   1.355  0.00  0.00    +0.009 C 
ATOM     22  C   UNL     1      -2.305 -17.043   2.462  0.00  0.00    +0.036 C 
ENDBRANCH  10  14
BRANCH   1  26
ATOM     23  C   UNL     1      -0.038  -6.144   2.934  0.00  0.00    -0.049 A 
ATOM     24  C   UNL     1       0.494  -6.691   1.781  0.00  0.00    +0.005 A 
ATOM     25  C   UNL     1       0.565  -8.063   1.635  0.00  0.00    +0.023 A 
ATOM     26  C   UNL     1       0.100  -8.892   2.648  0.00  0.00    +0.034 A 
ATOM     27  C   UNL     1      -0.434  -8.339   3.804  0.00  0.00    +0.023 A 
ATOM     28  C   UNL     1      -0.496  -6.966   3.946  0.00  0.00    +0.005 A 
BRANCH  23  29
ATOM     29  C   UNL     1      -0.113  -4.646   3.090  0.00  0.00    +0.016 C 
BRANCH  29  30
ATOM     30  C   UNL     1       1.175  -4.137   3.741  0.00  0.00    -0.074 C 
BRANCH  30  35
ATOM     31  C   UNL     1       1.163   1.156   5.674  0.00  0.00    +0.104 C 
ATOM     32  N   UNL     1       1.225  -0.297   5.468  0.00  0.00    -0.309 NA
ATOM     33  C   UNL     1       2.315  -0.652   4.547  0.00  0.00    +0.065 C 
ATOM     34  C   UNL     1       2.384  -2.175   4.406  0.00  0.00    -0.063 C 
ATOM     35  N   UNL     1       1.103  -2.677   3.893  0.00  0.00    +0.382 N 
ATOM     36  C   UNL     1       0.028  -2.337   4.835  0.00  0.00    -0.063 C 
ATOM     37  C   UNL     1      -0.060  -0.816   4.979  0.00  0.00    +0.065 C 
ATOM     38  H   UNL     1       0.910  -2.255   2.997  0.00  0.00    -0.082 HD
ENDBRANCH  30  35
ENDBRANCH  29  30
ENDBRANCH  23  29
ENDBRANCH   1  26
BRANCH   8  39
ATOM     39  C   UNL     1       5.354 -14.753  -1.170  0.00  0.00    +0.272 C 
ATOM     40  O   UNL     1       5.227 -15.936  -1.423  0.00  0.00    -0.268 OA
ATOM     41  N   UNL     1       6.470 -14.098  -1.549  0.00  0.00    -0.191 N 
ATOM     42  H   UNL     1       6.607 -13.177  -1.280  0.00  0.00    +0.183 HD
BRANCH  41  43
ATOM     43  O   UNL     1       7.442 -14.757  -2.341  0.00  0.00    -0.283 OA
ATOM     44  C   UNL     1       8.571 -13.945  -2.669  0.00  0.00    +0.226 C 
ENDBRANCH  41  43
ENDBRANCH   8  39
TORSDOF 7
