REMARK  Name = CHEMBL247434
REMARK  7 active torsions:
REMARK  status: ('A' for Active; 'I' for Inactive)
REMARK    1  A    between atoms: C_1  and  N_2
REMARK    2  A    between atoms: C_3  and  C_5
REMARK    3  A    between atoms: C_7  and  C_11
REMARK    4  A    between atoms: C_11  and  N_12
REMARK    5  A    between atoms: N_12  and  C_13
REMARK    6  A    between atoms: C_14  and  C_18
REMARK    7  A    between atoms: N_20  and  C_21
REMARK                            x       y       z     vdW  Elec       q    Type
REMARK                         _______ _______ _______ _____ _____    ______ ____
ROOT
ATOM      1  C   UNL     1       4.088  -5.918  -3.762  0.00  0.00    +0.138 A 
ATOM      2  C   UNL     1       5.436  -6.173  -3.496  0.00  0.00    +0.115 A 
ATOM      3  S   UNL     1       5.891  -7.081  -4.965  0.00  0.00    -0.069 S 
ATOM      4  C   UNL     1       4.396  -7.048  -5.735  0.00  0.00    +0.158 A 
ATOM      5  N   UNL     1       3.627  -6.390  -4.900  0.00  0.00    -0.232 NA
ENDROOT
BRANCH   2   6
ATOM      6  C   UNL     1       6.222  -5.812  -2.376  0.00  0.00    +0.258 C 
ATOM      7  O   UNL     1       5.723  -5.182  -1.460  0.00  0.00    -0.269 OA
ATOM      8  N   UNL     1       7.522  -6.164  -2.322  0.00  0.00    -0.281 N 
ATOM      9  H   UNL     1       7.902  -6.722  -3.019  0.00  0.00    +0.155 HD
BRANCH   8  10
ATOM     10  C   UNL     1       8.323  -5.725  -1.262  0.00  0.00    +0.037 A 
ATOM     11  C   UNL     1       7.784  -5.601   0.012  0.00  0.00    +0.027 A 
ATOM     12  C   UNL     1       8.574  -5.167   1.058  0.00  0.00    +0.051 A 
ATOM     13  C   UNL     1       9.908  -4.853   0.841  0.00  0.00    +0.169 A 
ATOM     14  C   UNL     1      10.451  -4.978  -0.432  0.00  0.00    +0.171 A 
ATOM     15  C   UNL     1       9.659  -5.418  -1.481  0.00  0.00    +0.073 A 
ATOM     16  O   UNL     1      11.759  -4.682  -0.663  0.00  0.00    -0.421 OA
ATOM     17  C   UNL     1      12.427  -3.896   0.330  0.00  0.00    +0.509 C 
ATOM     18  C   UNL     1      12.090  -4.478   1.710  0.00  0.00    +0.509 C 
ATOM     19  O   UNL     1      10.670  -4.423   1.885  0.00  0.00    -0.421 OA
ATOM     20  F   UNL     1      12.523  -5.806   1.780  0.00  0.00    -0.155 F 
ATOM     21  F   UNL     1      12.718  -3.723   2.706  0.00  0.00    -0.155 F 
ATOM     22  F   UNL     1      13.809  -3.947   0.121  0.00  0.00    -0.155 F 
ATOM     23  F   UNL     1      11.986  -2.570   0.257  0.00  0.00    -0.155 F 
ENDBRANCH   8  10
ENDBRANCH   2   6
BRANCH   1  24
ATOM     24  N   UNL     1       3.283  -5.215  -2.876  0.00  0.00    -0.324 N 
ATOM     25  H   UNL     1       3.654  -4.881  -2.044  0.00  0.00    +0.148 HD
BRANCH  24  26
ATOM     26  C   UNL     1       1.873  -4.979  -3.196  0.00  0.00    +0.138 C 
BRANCH  26  29
ATOM     27  C   UNL     1       0.612  -2.129  -1.045  0.00  0.00    +0.126 A 
ATOM     28  C   UNL     1       1.219  -2.813  -2.096  0.00  0.00    +0.038 A 
ATOM     29  C   UNL     1       1.228  -4.199  -2.080  0.00  0.00    -0.027 A 
ATOM     30  C   UNL     1       0.629  -4.852  -1.013  0.00  0.00    +0.025 A 
ATOM     31  C   UNL     1       0.044  -4.107  -0.003  0.00  0.00    +0.112 A 
ATOM     32  N   UNL     1       0.054  -2.792  -0.040  0.00  0.00    -0.250 NA
BRANCH  27  35
ATOM     33  C   UNL     1      -0.005   1.486  -0.033  0.00  0.00    +0.128 C 
ATOM     34  N   UNL     1       0.013   0.021  -0.031  0.00  0.00    -0.313 N 
ATOM     35  C   UNL     1       0.593  -0.647  -1.047  0.00  0.00    +0.262 C 
ATOM     36  O   UNL     1       1.102  -0.035  -1.965  0.00  0.00    -0.269 OA
ATOM     37  H   UNL     1      -0.394  -0.468   0.702  0.00  0.00    +0.149 HD
ENDBRANCH  27  35
ENDBRANCH  26  29
ENDBRANCH  24  26
ENDBRANCH   1  24
TORSDOF 6
