REMARK  Name = CHEMBL217092
REMARK  8 active torsions:
REMARK  status: ('A' for Active; 'I' for Inactive)
REMARK    1  A    between atoms: C_1  and  N_2
REMARK    2  A    between atoms: N_5  and  C_8
REMARK    3  A    between atoms: C_8  and  C_9
REMARK    4  A    between atoms: C_9  and  O_10
REMARK    5  A    between atoms: O_10  and  C_11
REMARK    6  A    between atoms: C_15  and  O_17
REMARK    7  A    between atoms: O_17  and  C_18
REMARK    8  A    between atoms: N_28  and  C_29
REMARK                            x       y       z     vdW  Elec       q    Type
REMARK                         _______ _______ _______ _____ _____    ______ ____
ROOT
ATOM      1  C   UNL     1      -0.714  -3.323   5.164  0.00  0.00    +0.126 A 
ATOM      2  C   UNL     1       0.630  -3.318   5.479  0.00  0.00    +0.074 A 
ATOM      3  C   UNL     1       1.052  -3.801   6.722  0.00  0.00    +0.083 A 
ATOM      4  C   UNL     1       0.093  -4.290   7.643  0.00  0.00    +0.082 A 
ATOM      5  C   UNL     1      -1.270  -4.285   7.301  0.00  0.00    +0.137 A 
ATOM      6  C   UNL     1      -1.660  -3.799   6.072  0.00  0.00    +0.092 A 
ATOM      7  C   UNL     1       0.549  -4.770   8.891  0.00  0.00    +0.138 A 
ATOM      8  N   UNL     1       1.854  -4.740   9.137  0.00  0.00    -0.220 NA
ATOM      9  C   UNL     1       2.714  -4.274   8.246  0.00  0.00    +0.223 A 
ATOM     10  N   UNL     1       2.348  -3.815   7.073  0.00  0.00    -0.235 NA
ATOM     11  N   UNL     1      -0.337  -5.258   9.829  0.00  0.00    -0.295 N 
ATOM     12  H   UNL     1      -1.276  -5.353   9.606  0.00  0.00    +0.154 HD
ENDROOT
BRANCH  11  13
ATOM     13  C   UNL     1       0.120  -5.616  11.104  0.00  0.00    +0.097 A 
ATOM     14  C   UNL     1       1.101  -6.591  11.244  0.00  0.00    +0.066 A 
ATOM     15  C   UNL     1       1.551  -6.944  12.502  0.00  0.00    +0.025 A 
ATOM     16  C   UNL     1       1.029  -6.329  13.625  0.00  0.00    +0.051 A 
ATOM     17  C   UNL     1       0.050  -5.356  13.496  0.00  0.00    +0.168 A 
ATOM     18  C   UNL     1      -0.403  -4.993  12.232  0.00  0.00    +0.189 A 
ATOM     19  O   UNL     1      -1.353  -4.021  12.370  0.00  0.00    -0.451 OA
ATOM     20  C   UNL     1      -1.763  -4.079  13.749  0.00  0.00    +0.466 C 
ATOM     21  O   UNL     1      -0.615  -4.612  14.428  0.00  0.00    -0.453 OA
ATOM     22 CL   UNL     1       1.760  -7.365   9.837  0.00  0.00    -0.081 Cl
ENDBRANCH  11  13
BRANCH   1  23
ATOM     23  O   UNL     1      -1.120  -2.853   3.956  0.00  0.00    -0.491 OA
BRANCH  23  24
ATOM     24  C   UNL     1      -0.105  -2.380   3.069  0.00  0.00    +0.244 C 
BRANCH  24  25
ATOM     25  C   UNL     1      -0.750  -1.894   1.769  0.00  0.00    +0.125 C 
BRANCH  25  30
ATOM     26  C   UNL     1      -3.375   3.088   1.954  0.00  0.00    -0.096 C 
ATOM     27  N   UNL     1      -2.503   1.950   1.635  0.00  0.00    +0.379 N 
ATOM     28  C   UNL     1      -3.325   0.802   1.230  0.00  0.00    -0.064 C 
ATOM     29  C   UNL     1      -2.415  -0.378   0.879  0.00  0.00    +0.066 C 
ATOM     30  N   UNL     1      -1.597  -0.727   2.049  0.00  0.00    -0.303 NA
ATOM     31  C   UNL     1      -0.787   0.420   2.481  0.00  0.00    +0.066 C 
ATOM     32  C   UNL     1      -1.710   1.594   2.819  0.00  0.00    -0.064 C 
ATOM     33  H   UNL     1      -1.884   2.203   0.879  0.00  0.00    -0.082 HD
ENDBRANCH  25  30
ENDBRANCH  24  25
ENDBRANCH  23  24
ENDBRANCH   1  23
BRANCH   5  34
ATOM     34  O   UNL     1      -2.196  -4.752   8.177  0.00  0.00    -0.488 OA
BRANCH  34  35
ATOM     35  C   UNL     1      -3.568  -4.641   7.791  0.00  0.00    +0.178 C 
ATOM     36  C   UNL     1      -4.083  -3.239   8.127  0.00  0.00    +0.072 C 
ATOM     37  C   UNL     1      -5.572  -3.155   7.782  0.00  0.00    +0.163 C 
ATOM     38  O   UNL     1      -6.284  -4.163   8.503  0.00  0.00    -0.380 OA
ATOM     39  C   UNL     1      -5.877  -5.497   8.194  0.00  0.00    +0.163 C 
ATOM     40  C   UNL     1      -4.400  -5.676   8.555  0.00  0.00    +0.072 C 
ENDBRANCH  34  35
ENDBRANCH   5  34
TORSDOF 7
