REMARK  Name = CHEMBL493986
REMARK  5 active torsions:
REMARK  status: ('A' for Active; 'I' for Inactive)
REMARK    1  A    between atoms: C_1  and  C_2
REMARK    2  A    between atoms: N_5  and  C_20
REMARK    3  A    between atoms: C_8  and  C_9
REMARK    4  A    between atoms: C_28  and  C_29
REMARK    5  A    between atoms: C_28  and  C_30
REMARK                            x       y       z     vdW  Elec       q    Type
REMARK                         _______ _______ _______ _____ _____    ______ ____
ROOT
ATOM      1  C   UNL     1      -0.052   1.502   0.022  0.00  0.00    +0.044 C 
ATOM      2  C   UNL     1      -0.014  -0.004   0.008  0.00  0.00    -0.036 A 
ATOM      3  C   UNL     1      -0.690  -0.722  -0.985  0.00  0.00    +0.022 A 
ATOM      4  C   UNL     1      -0.650  -2.076  -0.990  0.00  0.00    +0.095 A 
ATOM      5  N   UNL     1       0.040  -2.761  -0.041  0.00  0.00    -0.284 N 
ATOM      6  C   UNL     1       0.706  -2.115   0.935  0.00  0.00    +0.264 A 
ATOM      7  O   UNL     1       1.320  -2.746   1.778  0.00  0.00    -0.267 OA
ATOM      8  C   UNL     1       0.695  -0.699   0.976  0.00  0.00    +0.050 A 
ENDROOT
BRANCH   8   9
ATOM      9  C   UNL     1       1.427   0.028   2.039  0.00  0.00    -0.012 A 
ATOM     10  C   UNL     1       2.512   0.853   1.700  0.00  0.00    +0.011 A 
ATOM     11  C   UNL     1       3.200   1.531   2.655  0.00  0.00    +0.029 A 
ATOM     12  C   UNL     1       2.828   1.412   4.004  0.00  0.00    +0.076 A 
ATOM     13  C   UNL     1       1.733   0.581   4.358  0.00  0.00    +0.019 A 
ATOM     14  C   UNL     1       1.032  -0.106   3.360  0.00  0.00    +0.020 A 
ATOM     15  C   UNL     1       1.381   0.481   5.718  0.00  0.00    +0.124 A 
ATOM     16  N   UNL     1       2.083   1.161   6.600  0.00  0.00    -0.222 NA
ATOM     17  C   UNL     1       3.106   1.931   6.232  0.00  0.00    +0.213 A 
ATOM     18  N   UNL     1       3.480   2.063   4.975  0.00  0.00    -0.215 NA
ATOM     19  N   UNL     1       3.803   2.620   7.208  0.00  0.00    -0.327 N 
ATOM     20  H   UNL     1       3.543   2.537   8.139  0.00  0.00    +0.145 HD
ATOM     21  H   UNL     1       4.551   3.186   6.962  0.00  0.00    +0.145 HD
ENDBRANCH   8   9
BRANCH   5  22
ATOM     22  C   UNL     1       0.058  -4.161  -0.077  0.00  0.00    +0.051 A 
ATOM     23  C   UNL     1      -0.918  -4.886   0.595  0.00  0.00    +0.026 A 
ATOM     24  C   UNL     1      -0.896  -6.266   0.556  0.00  0.00    +0.008 A 
ATOM     25  C   UNL     1       0.092  -6.927  -0.149  0.00  0.00    -0.019 A 
ATOM     26  C   UNL     1       1.073  -6.216  -0.825  0.00  0.00    +0.033 A 
ATOM     27  C   UNL     1       1.046  -4.821  -0.788  0.00  0.00    +0.049 A 
ATOM     28  N   UNL     1       1.972  -7.066  -1.471  0.00  0.00    -0.343 N 
ATOM     29  C   UNL     1       1.601  -8.464  -1.235  0.00  0.00    +0.112 C 
ATOM     30  C   UNL     1       0.344  -8.404  -0.352  0.00  0.00    +0.007 C 
ATOM     31  C   UNL     1       0.602  -9.091   0.991  0.00  0.00    +0.017 C 
ATOM     32  C   UNL     1      -0.842  -9.055  -1.067  0.00  0.00    +0.017 C 
ATOM     33  H   UNL     1       2.731  -6.774  -1.999  0.00  0.00    +0.146 HD
ENDBRANCH   5  22
TORSDOF 2
