REMARK  Name = CHEMBL478611
REMARK  8 active torsions:
REMARK  status: ('A' for Active; 'I' for Inactive)
REMARK    1  A    between atoms: C_3  and  O_24
REMARK    2  A    between atoms: C_4  and  O_23
REMARK    3  A    between atoms: C_6  and  C_7
REMARK    4  A    between atoms: C_7  and  C_8
REMARK    5  A    between atoms: C_8  and  O_22
REMARK    6  A    between atoms: C_15  and  O_18
REMARK    7  A    between atoms: C_16  and  O_17
REMARK    8  A    between atoms: C_19  and  O_21
REMARK                            x       y       z     vdW  Elec       q    Type
REMARK                         _______ _______ _______ _____ _____    ______ ____
ROOT
ATOM      1  C   UNL     1      -1.746  -1.026  -1.429  0.00  0.00    +0.134 C 
ATOM      2  C   UNL     1      -0.690  -1.863  -2.164  0.00  0.00    +0.267 C 
ATOM      3  O   UNL     1      -1.089  -1.994  -3.529  0.00  0.00    -0.485 OA
ATOM      4  C   UNL     1      -2.367  -2.383  -3.782  0.00  0.00    +0.171 A 
ATOM      5  C   UNL     1      -3.356  -2.312  -2.817  0.00  0.00    +0.029 A 
ATOM      6  C   UNL     1      -4.647  -2.714  -3.120  0.00  0.00    +0.013 A 
ATOM      7  C   UNL     1      -4.955  -3.191  -4.379  0.00  0.00    +0.050 A 
ATOM      8  C   UNL     1      -3.969  -3.269  -5.350  0.00  0.00    +0.162 A 
ATOM      9  C   UNL     1      -2.674  -2.865  -5.053  0.00  0.00    +0.201 A 
ATOM     10  C   UNL     1      -3.062  -1.808  -1.427  0.00  0.00    +0.183 C 
ENDROOT
BRANCH   9  11
ATOM     11  O   UNL     1      -1.704  -2.940  -6.004  0.00  0.00    -0.501 OA
ATOM     12  H   UNL     1      -1.228  -3.782  -6.015  0.00  0.00    +0.292 HD
ENDBRANCH   9  11
BRANCH   8  13
ATOM     13  O   UNL     1      -4.269  -3.740  -6.590  0.00  0.00    -0.503 OA
ATOM     14  H   UNL     1      -4.551  -3.056  -7.213  0.00  0.00    +0.292 HD
ENDBRANCH   8  13
BRANCH  10  15
ATOM     15  O   UNL     1      -2.955  -2.917  -0.532  0.00  0.00    -0.384 OA
ATOM     16  H   UNL     1      -3.754  -3.458  -0.480  0.00  0.00    +0.210 HD
ENDBRANCH  10  15
BRANCH   1  17
ATOM     17  O   UNL     1      -1.927   0.221  -2.103  0.00  0.00    -0.382 OA
ATOM     18  H   UNL     1      -1.128   0.763  -2.148  0.00  0.00    +0.210 HD
ENDBRANCH   1  17
BRANCH   1  19
ATOM     19  C   UNL     1      -1.294  -0.774   0.010  0.00  0.00    +0.076 C 
BRANCH  19  25
ATOM     20  C   UNL     1      -0.017   1.378   0.010  0.00  0.00    +0.007 A 
ATOM     21  C   UNL     1       1.170   2.089   0.002  0.00  0.00    +0.049 A 
ATOM     22  C   UNL     1       2.380   1.415  -0.013  0.00  0.00    +0.158 A 
ATOM     23  C   UNL     1       2.399   0.024  -0.021  0.00  0.00    +0.158 A 
ATOM     24  C   UNL     1       1.207  -0.682  -0.013  0.00  0.00    +0.053 A 
ATOM     25  C   UNL     1       0.002  -0.004   0.002  0.00  0.00    -0.041 A 
BRANCH  23  26
ATOM     26  O   UNL     1       3.585  -0.642  -0.036  0.00  0.00    -0.503 OA
ATOM     27  H   UNL     1       3.937  -0.839   0.843  0.00  0.00    +0.292 HD
ENDBRANCH  23  26
BRANCH  22  28
ATOM     28  O   UNL     1       3.548   2.113  -0.021  0.00  0.00    -0.503 OA
ATOM     29  H   UNL     1       3.894   2.310   0.860  0.00  0.00    +0.292 HD
ENDBRANCH  22  28
ENDBRANCH  19  25
ENDBRANCH   1  19
TORSDOF 8
