REMARK  Name = CHEMBL223478
REMARK  9 active torsions:
REMARK  status: ('A' for Active; 'I' for Inactive)
REMARK    1  A    between atoms: C_1  and  C_2
REMARK    2  A    between atoms: C_6  and  N_8
REMARK    3  A    between atoms: N_11  and  C_12
REMARK    4  A    between atoms: C_15  and  C_18
REMARK    5  A    between atoms: C_21  and  O_29
REMARK    6  A    between atoms: C_24  and  N_28
REMARK    7  A    between atoms: O_29  and  C_30
REMARK    8  A    between atoms: C_30  and  C_31
REMARK    9  A    between atoms: C_31  and  N_32
REMARK                            x       y       z     vdW  Elec       q    Type
REMARK                         _______ _______ _______ _____ _____    ______ ____
ROOT
ATOM      1  C   UNL     1      -0.022 -10.486   3.789  0.00  0.00    -0.005 A 
ATOM      2  C   UNL     1      -0.851 -11.188   2.935  0.00  0.00    +0.013 A 
ATOM      3  C   UNL     1      -0.851 -12.580   2.908  0.00  0.00    +0.048 A 
ATOM      4  C   UNL     1      -0.046 -13.328   3.710  0.00  0.00    +0.146 A 
ATOM      5  C   UNL     1       0.838 -12.703   4.621  0.00  0.00    +0.108 A 
ATOM      6  C   UNL     1       0.872 -11.235   4.673  0.00  0.00    +0.050 A 
ATOM      7  C   UNL     1       1.817 -10.895   5.629  0.00  0.00    +0.118 A 
ATOM      8  N   UNL     1       2.328 -12.037   6.122  0.00  0.00    -0.286 N 
ATOM      9  N   UNL     1       1.718 -13.136   5.506  0.00  0.00    -0.295 N 
ATOM     10  H   UNL     1       3.012 -12.091   6.807  0.00  0.00    +0.188 HD
ATOM     11  H   UNL     1       1.917 -14.067   5.691  0.00  0.00    +0.187 HD
ENDROOT
BRANCH   1  15
ATOM     12  C   UNL     1      -0.059  -6.235   3.836  0.00  0.00    +0.035 A 
ATOM     13  C   UNL     1       0.055  -6.915   2.629  0.00  0.00    +0.024 A 
ATOM     14  C   UNL     1       0.068  -8.293   2.610  0.00  0.00    +0.010 A 
ATOM     15  C   UNL     1      -0.035  -9.006   3.806  0.00  0.00    -0.017 A 
ATOM     16  C   UNL     1      -0.149  -8.321   5.016  0.00  0.00    +0.010 A 
ATOM     17  C   UNL     1      -0.155  -6.943   5.029  0.00  0.00    +0.024 A 
BRANCH  12  21
ATOM     18  N   UNL     1      -0.559  -2.811   2.800  0.00  0.00    -0.269 N 
ATOM     19  C   UNL     1      -0.633  -4.156   2.833  0.00  0.00    +0.308 C 
ATOM     20  O   UNL     1      -1.208  -4.756   1.946  0.00  0.00    -0.252 OA
ATOM     21  N   UNL     1      -0.070  -4.837   3.851  0.00  0.00    -0.269 N 
ATOM     22  H   UNL     1      -0.041  -2.337   3.468  0.00  0.00    +0.156 HD
ATOM     23  H   UNL     1       0.327  -4.357   4.595  0.00  0.00    +0.156 HD
BRANCH  18  29
ATOM     24  C   UNL     1      -0.765   1.058  -0.227  0.00  0.00    +0.044 C 
ATOM     25  C   UNL     1      -1.352  -0.220   0.314  0.00  0.00    -0.049 A 
ATOM     26  C   UNL     1      -2.557  -0.689  -0.178  0.00  0.00    +0.003 A 
ATOM     27  C   UNL     1      -3.099  -1.861   0.316  0.00  0.00    +0.002 A 
ATOM     28  C   UNL     1      -2.439  -2.567   1.303  0.00  0.00    +0.023 A 
ATOM     29  C   UNL     1      -1.230  -2.099   1.799  0.00  0.00    +0.035 A 
ATOM     30  C   UNL     1      -0.685  -0.924   1.298  0.00  0.00    +0.026 A 
ENDBRANCH  18  29
ENDBRANCH  12  21
ENDBRANCH   1  15
BRANCH   7  31
ATOM     31  N   UNL     1       2.171  -9.608   6.010  0.00  0.00    -0.343 N 
ATOM     32  H   UNL     1       1.742  -8.844   5.593  0.00  0.00    +0.144 HD
ATOM     33  H   UNL     1       2.847  -9.473   6.692  0.00  0.00    +0.144 HD
ENDBRANCH   7  31
BRANCH   4  34
ATOM     34  O   UNL     1      -0.093 -14.684   3.638  0.00  0.00    -0.489 OA
BRANCH  34  35
ATOM     35  C   UNL     1      -1.008 -15.252   2.698  0.00  0.00    +0.244 C 
BRANCH  35  36
ATOM     36  C   UNL     1      -0.919 -16.779   2.759  0.00  0.00    +0.125 C 
BRANCH  36  37
ATOM     37  N   UNL     1      -1.365 -17.242   4.080  0.00  0.00    -0.295 NA
ATOM     38  C   UNL     1      -0.878 -18.602   4.353  0.00  0.00    +0.112 C 
ATOM     39  C   UNL     1      -1.314 -19.022   5.759  0.00  0.00    +0.175 C 
ATOM     40  O   UNL     1      -2.737 -18.927   5.860  0.00  0.00    -0.377 OA
ATOM     41  C   UNL     1      -3.246 -17.616   5.601  0.00  0.00    +0.175 C 
ATOM     42  C   UNL     1      -2.830 -17.182   4.193  0.00  0.00    +0.112 C 
ENDBRANCH  36  37
ENDBRANCH  35  36
ENDBRANCH  34  35
ENDBRANCH   4  34
TORSDOF 8
