REMARK  Name = CHEMBL1088796
REMARK  5 active torsions:
REMARK  status: ('A' for Active; 'I' for Inactive)
REMARK    1  A    between atoms: C_1  and  C_2
REMARK    2  A    between atoms: C_5  and  C_25
REMARK    3  A    between atoms: C_7  and  C_8
REMARK    4  A    between atoms: C_17  and  C_18
REMARK    5  A    between atoms: N_27  and  C_28
REMARK                            x       y       z     vdW  Elec       q    Type
REMARK                         _______ _______ _______ _____ _____    ______ ____
ROOT
ATOM      1  C   UNL     1       0.423  -0.382   2.787  0.00  0.00    -0.017 A 
ATOM      2  C   UNL     1       1.348   0.653   2.996  0.00  0.00    +0.009 A 
ATOM      3  C   UNL     1       1.244   1.477   4.074  0.00  0.00    +0.011 A 
ATOM      4  C   UNL     1       0.203   1.293   4.990  0.00  0.00    +0.011 A 
ATOM      5  C   UNL     1      -0.740   0.249   4.790  0.00  0.00    +0.005 A 
ATOM      6  C   UNL     1      -0.621  -0.585   3.672  0.00  0.00    +0.018 A 
ATOM      7  C   UNL     1      -1.770   0.105   5.737  0.00  0.00    +0.143 A 
ATOM      8  N   UNL     1      -1.820   0.930   6.760  0.00  0.00    -0.156 NA
ATOM      9  N   UNL     1      -0.975   1.874   6.948  0.00  0.00    -0.149 NA
ATOM     10  C   UNL     1       0.038   2.115   6.131  0.00  0.00    +0.104 A 
ENDROOT
BRANCH   1  17
ATOM     11  C   UNL     1       0.773   0.789   0.169  0.00  0.00    +0.044 C 
ATOM     12  C   UNL     1       0.732  -0.708   0.334  0.00  0.00    -0.043 A 
ATOM     13  C   UNL     1       0.867  -1.527  -0.770  0.00  0.00    +0.005 A 
ATOM     14  C   UNL     1       0.831  -2.899  -0.628  0.00  0.00    +0.013 A 
ATOM     15  C   UNL     1       0.657  -3.468   0.636  0.00  0.00    +0.037 A 
ATOM     16  C   UNL     1       0.520  -2.646   1.753  0.00  0.00    +0.021 A 
ATOM     17  C   UNL     1       0.563  -1.264   1.602  0.00  0.00    -0.014 A 
BRANCH  15  18
ATOM     18  C   UNL     1       0.617  -4.938   0.788  0.00  0.00    +0.244 C 
ATOM     19  O   UNL     1       0.465  -5.432   1.888  0.00  0.00    -0.270 OA
ATOM     20  N   UNL     1       0.749  -5.731  -0.294  0.00  0.00    -0.308 N 
ATOM     21  H   UNL     1       0.870  -5.338  -1.172  0.00  0.00    +0.149 HD
BRANCH  20  22
ATOM     22  C   UNL     1       0.709  -7.188  -0.143  0.00  0.00    +0.073 C 
ATOM     23  C   UNL     1       1.744  -8.007  -0.917  0.00  0.00    +0.024 C 
ATOM     24  C   UNL     1       0.280  -8.013  -1.359  0.00  0.00    +0.024 C 
ENDBRANCH  20  22
ENDBRANCH  15  18
ENDBRANCH   1  17
BRANCH  10  25
ATOM     25  C   UNL     1       0.982   3.222   6.405  0.00  0.00    +0.038 A 
ATOM     26  C   UNL     1       1.282   4.149   5.408  0.00  0.00    +0.013 A 
ATOM     27  C   UNL     1       2.162   5.179   5.669  0.00  0.00    +0.001 A 
ATOM     28  C   UNL     1       2.747   5.294   6.918  0.00  0.00    +0.003 A 
ATOM     29  C   UNL     1       2.455   4.379   7.913  0.00  0.00    +0.039 A 
ATOM     30  C   UNL     1       1.570   3.346   7.666  0.00  0.00    +0.133 A 
ATOM     31  F   UNL     1       1.280   2.455   8.640  0.00  0.00    -0.205 F 
ENDBRANCH  10  25
TORSDOF 4
