REMARK  Name = CHEMBL222315
REMARK  4 active torsions:
REMARK  status: ('A' for Active; 'I' for Inactive)
REMARK    1  A    between atoms: C_3  and  C_12
REMARK    2  A    between atoms: C_10  and  N_11
REMARK    3  A    between atoms: C_15  and  N_18
REMARK    4  A    between atoms: C_19  and  C_21
REMARK                            x       y       z     vdW  Elec       q    Type
REMARK                         _______ _______ _______ _____ _____    ______ ____
ROOT
ATOM      1  C   UNL     1       3.619   2.360  -0.006  0.00  0.00    -0.017 A 
ATOM      2  C   UNL     1       4.567   2.220   1.009  0.00  0.00    +0.010 A 
ATOM      3  C   UNL     1       5.710   2.990   0.993  0.00  0.00    +0.024 A 
ATOM      4  C   UNL     1       5.920   3.905  -0.032  0.00  0.00    +0.033 A 
ATOM      5  C   UNL     1       4.977   4.047  -1.044  0.00  0.00    +0.024 A 
ATOM      6  C   UNL     1       3.835   3.276  -1.037  0.00  0.00    +0.010 A 
ENDROOT
BRANCH   1   9
ATOM      7  C   UNL     1      -0.016   1.353  -0.141  0.00  0.00    +0.003 A 
ATOM      8  C   UNL     1       1.147   2.118  -0.151  0.00  0.00    +0.009 A 
ATOM      9  C   UNL     1       2.390   1.535   0.008  0.00  0.00    -0.005 A 
ATOM     10  C   UNL     1       2.466   0.087   0.190  0.00  0.00    +0.049 A 
ATOM     11  C   UNL     1       1.214  -0.684   0.195  0.00  0.00    +0.095 A 
ATOM     12  C   UNL     1      -0.005   0.007   0.024  0.00  0.00    +0.030 A 
ATOM     13  N   UNL     1       1.546  -1.950   0.373  0.00  0.00    -0.172 NA
ATOM     14  H   UNL     1       3.429  -2.873   0.619  0.00  0.00    +0.190 HD
ATOM     15  N   UNL     1       2.938  -2.047   0.483  0.00  0.00    -0.263 N 
ATOM     16  C   UNL     1       3.493  -0.828   0.374  0.00  0.00    +0.120 A 
BRANCH  16  17
ATOM     17  N   UNL     1       4.848  -0.537   0.434  0.00  0.00    -0.343 N 
ATOM     18  H   UNL     1       5.151   0.380   0.343  0.00  0.00    +0.144 HD
ATOM     19  H   UNL     1       5.492  -1.250   0.567  0.00  0.00    +0.144 HD
ENDBRANCH  16  17
ENDBRANCH   1   9
BRANCH   4  20
ATOM     20  N   UNL     1       7.080   4.684  -0.045  0.00  0.00    -0.285 N 
ATOM     21  C   UNL     1       8.236   4.179   0.429  0.00  0.00    +0.220 C 
ATOM     22  O   UNL     1       8.293   3.019   0.778  0.00  0.00    -0.275 OA
ATOM     23  H   UNL     1       7.053   5.588  -0.396  0.00  0.00    +0.155 HD
BRANCH  21  24
ATOM     24  C   UNL     1       9.458   5.056   0.525  0.00  0.00    +0.075 C 
ATOM     25  C   UNL     1       9.825   5.574  -0.867  0.00  0.00    +0.013 C 
ATOM     26  C   UNL     1      11.065   6.464  -0.770  0.00  0.00    +0.001 C 
ATOM     27  C   UNL     1      12.232   5.652  -0.205  0.00  0.00    +0.000 C 
ATOM     28  C   UNL     1      11.866   5.134   1.188  0.00  0.00    +0.001 C 
ATOM     29  C   UNL     1      10.626   4.244   1.090  0.00  0.00    +0.013 C 
ENDBRANCH  21  24
ENDBRANCH   4  20
TORSDOF 4
