REMARK  Name = CHEMBL395695
REMARK  4 active torsions:
REMARK  status: ('A' for Active; 'I' for Inactive)
REMARK    1  A    between atoms: C_1  and  C_2
REMARK    2  A    between atoms: C_4  and  C_7
REMARK    3  A    between atoms: N_9  and  C_10
REMARK    4  A    between atoms: C_22  and  C_23
REMARK                            x       y       z     vdW  Elec       q    Type
REMARK                         _______ _______ _______ _____ _____    ______ ____
ROOT
ATOM      1  C   UNL     1      -1.765  -5.693   0.072  0.00  0.00    +0.038 A 
ATOM      2  C   UNL     1      -3.145  -5.519   0.067  0.00  0.00    +0.023 A 
ATOM      3  C   UNL     1      -3.981  -6.616   0.157  0.00  0.00    +0.002 A 
ATOM      4  C   UNL     1      -3.455  -7.888   0.252  0.00  0.00    +0.010 A 
ATOM      5  C   UNL     1      -2.071  -8.075   0.259  0.00  0.00    +0.005 A 
ATOM      6  C   UNL     1      -1.232  -6.966   0.162  0.00  0.00    -0.013 A 
ATOM      7  C   UNL     1       0.186  -7.482   0.187  0.00  0.00    +0.077 C 
ATOM      8  C   UNL     1       0.074  -8.983   0.300  0.00  0.00    +0.010 A 
ATOM      9  C   UNL     1      -1.249  -9.302   0.350  0.00  0.00    +0.070 A 
ATOM     10  N   UNL     1      -1.335 -10.662   0.456  0.00  0.00    -0.276 N 
ATOM     11  N   UNL     1      -0.034 -11.177   0.489  0.00  0.00    -0.173 NA
ATOM     12  H   UNL     1      -2.155 -11.180   0.502  0.00  0.00    +0.189 HD
ATOM     13  C   UNL     1       0.813 -10.175   0.383  0.00  0.00    +0.097 A 
ENDROOT
BRANCH  13  14
ATOM     14  C   UNL     1       2.294 -10.283   0.377  0.00  0.00    +0.009 A 
ATOM     15  C   UNL     1       2.938 -11.261   1.128  0.00  0.00    +0.017 A 
ATOM     16  C   UNL     1       4.289 -11.328   1.097  0.00  0.00    +0.046 A 
ATOM     17  S   UNL     1       4.708  -9.993  -0.011  0.00  0.00    -0.104 S 
ATOM     18  C   UNL     1       3.054  -9.428  -0.370  0.00  0.00    +0.055 A 
ENDBRANCH  13  14
BRANCH   1  21
ATOM     19  C   UNL     1      -1.356  -3.447  -0.595  0.00  0.00    +0.270 C 
ATOM     20  O   UNL     1      -2.449  -3.417  -1.126  0.00  0.00    -0.268 OA
ATOM     21  N   UNL     1      -0.918  -4.583  -0.018  0.00  0.00    -0.280 N 
ATOM     22  H   UNL     1      -0.016  -4.632   0.334  0.00  0.00    +0.155 HD
BRANCH  19  26
ATOM     23  C   UNL     1       0.269   1.303  -1.359  0.00  0.00    +0.089 C 
ATOM     24  C   UNL     1       0.196  -0.139  -0.927  0.00  0.00    +0.135 A 
ATOM     25  C   UNL     1      -0.833  -0.977  -1.146  0.00  0.00    +0.080 A 
ATOM     26  C   UNL     1      -0.504  -2.233  -0.583  0.00  0.00    +0.168 A 
ATOM     27  N   UNL     1       0.688  -2.131  -0.047  0.00  0.00    -0.073 NA
ATOM     28  O   UNL     1       1.149  -0.810  -0.262  0.00  0.00    -0.359 OA
ENDBRANCH  19  26
ENDBRANCH   1  21
TORSDOF 3
