REMARK  Name = CHEMBL212762
REMARK  8 active torsions:
REMARK  status: ('A' for Active; 'I' for Inactive)
REMARK    1  A    between atoms: C_1  and  N_2
REMARK    2  A    between atoms: N_5  and  C_8
REMARK    3  A    between atoms: C_8  and  C_9
REMARK    4  A    between atoms: C_21  and  C_22
REMARK    5  A    between atoms: C_25  and  C_27
REMARK    6  A    between atoms: C_27  and  N_28
REMARK    7  A    between atoms: N_31  and  C_32
REMARK    8  A    between atoms: C_35  and  C_38
REMARK                            x       y       z     vdW  Elec       q    Type
REMARK                         _______ _______ _______ _____ _____    ______ ____
ROOT
ATOM      1  C   UNL     1      -0.045  -4.516   2.539  0.00  0.00    -0.033 A 
ATOM      2  C   UNL     1       1.308  -4.752   2.699  0.00  0.00    +0.005 A 
ATOM      3  C   UNL     1       1.800  -5.183   3.913  0.00  0.00    +0.010 A 
ATOM      4  C   UNL     1       0.929  -5.383   4.986  0.00  0.00    +0.006 A 
ATOM      5  C   UNL     1      -0.431  -5.142   4.816  0.00  0.00    -0.033 A 
ATOM      6  C   UNL     1      -0.913  -4.707   3.599  0.00  0.00    +0.009 A 
ATOM      7  C   UNL     1      -1.117  -5.438   6.127  0.00  0.00    +0.075 C 
ATOM      8  C   UNL     1      -0.032  -5.874   7.080  0.00  0.00    +0.010 A 
ATOM      9  C   UNL     1       1.183  -5.834   6.378  0.00  0.00    +0.097 A 
ATOM     10  N   UNL     1       2.143  -6.214   7.201  0.00  0.00    -0.173 NA
ATOM     11  H   UNL     1       2.049  -6.809   9.235  0.00  0.00    +0.189 HD
ATOM     12  N   UNL     1       1.573  -6.506   8.446  0.00  0.00    -0.276 N 
ATOM     13  C   UNL     1       0.227  -6.291   8.353  0.00  0.00    +0.076 A 
ENDROOT
BRANCH  13  14
ATOM     14  C   UNL     1      -0.762  -6.474   9.430  0.00  0.00    +0.038 A 
ATOM     15  C   UNL     1      -0.890  -7.511  10.318  0.00  0.00    +0.018 A 
ATOM     16  C   UNL     1      -1.905  -7.463  11.248  0.00  0.00    +0.013 A 
ATOM     17  C   UNL     1      -2.744  -6.396  11.257  0.00  0.00    +0.008 A 
ATOM     18  S   UNL     1      -2.101  -5.401   9.922  0.00  0.00    -0.090 S 
BRANCH  17  19
ATOM     19  C   UNL     1      -3.915  -6.119  12.165  0.00  0.00    +0.148 C 
BRANCH  19  20
ATOM     20  N   UNL     1      -3.456  -5.377  13.342  0.00  0.00    -0.295 N 
ATOM     21  C   UNL     1      -4.336  -5.018  14.298  0.00  0.00    +0.304 C 
ATOM     22  O   UNL     1      -5.511  -5.310  14.183  0.00  0.00    -0.252 OA
ATOM     23  N   UNL     1      -3.913  -4.335  15.380  0.00  0.00    -0.269 N 
ATOM     24  H   UNL     1      -2.519  -5.145  13.433  0.00  0.00    +0.151 HD
ATOM     25  H   UNL     1      -2.967  -4.161  15.505  0.00  0.00    +0.156 HD
BRANCH  23  26
ATOM     26  C   UNL     1      -4.840  -3.878  16.325  0.00  0.00    +0.035 A 
ATOM     27  C   UNL     1      -4.635  -2.666  16.970  0.00  0.00    +0.024 A 
ATOM     28  C   UNL     1      -5.551  -2.217  17.901  0.00  0.00    +0.014 A 
ATOM     29  C   UNL     1      -6.671  -2.974  18.191  0.00  0.00    +0.055 A 
ATOM     30  C   UNL     1      -6.878  -4.182  17.550  0.00  0.00    +0.014 A 
ATOM     31  C   UNL     1      -5.968  -4.633  16.614  0.00  0.00    +0.024 A 
BRANCH  29  32
ATOM     32  C   UNL     1      -7.669  -2.481  19.207  0.00  0.00    +0.417 C 
ATOM     33  F   UNL     1      -8.644  -1.708  18.567  0.00  0.00    -0.166 F 
ATOM     34  F   UNL     1      -8.277  -3.575  19.832  0.00  0.00    -0.166 F 
ATOM     35  F   UNL     1      -7.012  -1.703  20.166  0.00  0.00    -0.166 F 
ENDBRANCH  29  32
ENDBRANCH  23  26
ENDBRANCH  19  20
ENDBRANCH  17  19
ENDBRANCH  13  14
BRANCH   1  36
ATOM     36  C   UNL     1      -0.575  -4.045   1.209  0.00  0.00    +0.119 C 
BRANCH  36  41
ATOM     37  C   UNL     1       0.078   1.424   0.019  0.00  0.00    -0.096 C 
ATOM     38  N   UNL     1       0.089  -0.045   0.013  0.00  0.00    +0.379 N 
ATOM     39  C   UNL     1      -1.292  -0.545   0.017  0.00  0.00    -0.064 C 
ATOM     40  C   UNL     1      -1.282  -2.075  -0.009  0.00  0.00    +0.066 C 
ATOM     41  N   UNL     1      -0.558  -2.577   1.167  0.00  0.00    -0.302 NA
ATOM     42  C   UNL     1       0.819  -2.065   1.190  0.00  0.00    +0.066 C 
ATOM     43  C   UNL     1       0.792  -0.535   1.206  0.00  0.00    -0.064 C 
ATOM     44  H   UNL     1       0.563  -0.374  -0.815  0.00  0.00    -0.082 HD
ENDBRANCH  36  41
ENDBRANCH   1  36
TORSDOF 7
