REMARK  Name = CHEMBL26559
REMARK  3 active torsions:
REMARK  status: ('A' for Active; 'I' for Inactive)
REMARK    1  A    between atoms: C_1  and  C_2
REMARK    2  A    between atoms: C_9  and  C_21
REMARK    3  A    between atoms: C_17  and  O_20
REMARK                            x       y       z     vdW  Elec       q    Type
REMARK                         _______ _______ _______ _____ _____    ______ ____
ROOT
ATOM      1  C   UNL     1      -0.018   1.503   0.010  0.00  0.00    +0.046 C 
ATOM      2  C   UNL     1       0.002  -0.004   0.002  0.00  0.00    -0.019 A 
ATOM      3  C   UNL     1       0.006  -0.699  -1.211  0.00  0.00    -0.010 A 
ATOM      4  C   UNL     1      -0.009  -0.029  -2.451  0.00  0.00    +0.028 A 
ATOM      5  C   UNL     1      -0.004  -0.768  -3.594  0.00  0.00    +0.111 A 
ATOM      6  N   UNL     1       0.014  -2.095  -3.571  0.00  0.00    -0.263 NA
ATOM      7  C   UNL     1       0.028  -2.786  -2.456  0.00  0.00    +0.119 A 
ATOM      8  C   UNL     1       0.025  -2.120  -1.218  0.00  0.00    +0.004 A 
ATOM      9  C   UNL     1       0.039  -2.819  -0.004  0.00  0.00    -0.032 A 
ATOM     10  C   UNL     1       0.034  -2.117   1.186  0.00  0.00    +0.011 A 
ATOM     11  C   UNL     1       0.023  -0.703   1.193  0.00  0.00    +0.051 A 
ATOM     12  N   UNL     1       0.030  -0.277   2.510  0.00  0.00    -0.354 N 
ATOM     13  H   UNL     1       0.019   0.651   2.793  0.00  0.00    +0.166 HD
ATOM     14  C   UNL     1       0.053  -1.367   3.369  0.00  0.00    +0.048 A 
ATOM     15  C   UNL     1       0.046  -2.539   2.601  0.00  0.00    +0.011 A 
ATOM     16  C   UNL     1       0.065  -3.784   3.226  0.00  0.00    +0.056 A 
ATOM     17  C   UNL     1       0.072  -3.858   4.607  0.00  0.00    +0.118 A 
ATOM     18  C   UNL     1       0.059  -2.695   5.368  0.00  0.00    +0.047 A 
ATOM     19  C   UNL     1       0.067  -1.459   4.757  0.00  0.00    +0.030 A 
ATOM     20  C   UNL     1       0.059  -4.326   0.003  0.00  0.00    +0.045 C 
ENDROOT
BRANCH  17  21
ATOM     21  O   UNL     1       0.090  -5.071   5.222  0.00  0.00    -0.507 OA
ATOM     22  H   UNL     1       0.979  -5.410   5.396  0.00  0.00    +0.292 HD
ENDBRANCH  17  21
TORSDOF 1
