REMARK  Name = CHEMBL187280
REMARK  11 active torsions:
REMARK  status: ('A' for Active; 'I' for Inactive)
REMARK    1  A    between atoms: C_1  and  C_2
REMARK    2  A    between atoms: C_5  and  C_8
REMARK    3  A    between atoms: C_8  and  N_9
REMARK    4  A    between atoms: N_9  and  C_10
REMARK    5  A    between atoms: C_10  and  N_11
REMARK    6  A    between atoms: C_20  and  O_36
REMARK    7  A    between atoms: C_21  and  O_27
REMARK    8  A    between atoms: O_27  and  C_28
REMARK    9  A    between atoms: C_28  and  C_29
REMARK   10  A    between atoms: C_29  and  N_30
REMARK   11  A    between atoms: O_36  and  C_37
REMARK                            x       y       z     vdW  Elec       q    Type
REMARK                         _______ _______ _______ _____ _____    ______ ____
ROOT
ATOM      1  N   UNL     1      -3.714  -4.877  -1.436  0.00  0.00    -0.310 N 
ATOM      2  C   UNL     1      -4.324  -5.141  -2.747  0.00  0.00    +0.125 C 
ATOM      3  C   UNL     1      -4.840  -6.585  -2.766  0.00  0.00    +0.125 C 
ATOM      4  N   UNL     1      -5.639  -6.814  -1.554  0.00  0.00    -0.312 N 
ATOM      5  C   UNL     1      -5.030  -6.550  -0.243  0.00  0.00    +0.125 C 
ATOM      6  C   UNL     1      -4.512  -5.111  -0.224  0.00  0.00    +0.125 C 
ATOM      7  C   UNL     1      -6.939  -7.267  -1.645  0.00  0.00    +0.132 A 
ATOM      8  C   UNL     1      -7.235  -8.648  -1.545  0.00  0.00    +0.044 A 
ATOM      9  C   UNL     1      -6.235  -9.608  -1.349  0.00  0.00    +0.062 A 
ATOM     10  C   UNL     1      -6.574 -10.928  -1.259  0.00  0.00    +0.162 A 
ATOM     11  C   UNL     1      -7.912 -11.333  -1.359  0.00  0.00    +0.164 A 
ATOM     12  C   UNL     1      -8.914 -10.408  -1.552  0.00  0.00    +0.078 A 
ATOM     13  C   UNL     1      -8.590  -9.050  -1.647  0.00  0.00    +0.080 A 
ATOM     14  N   UNL     1      -9.530  -8.109  -1.834  0.00  0.00    -0.235 NA
ATOM     15  C   UNL     1      -9.195  -6.843  -1.920  0.00  0.00    +0.223 A 
ATOM     16  N   UNL     1      -7.945  -6.421  -1.825  0.00  0.00    -0.220 NA
ENDROOT
BRANCH   1  17
ATOM     17  C   UNL     1      -2.444  -4.434  -1.347  0.00  0.00    +0.133 C 
ATOM     18  S   UNL     1      -1.705  -4.257   0.188  0.00  0.00    -0.019 S 
BRANCH  17  19
ATOM     19  N   UNL     1      -1.757  -4.129  -2.465  0.00  0.00    -0.321 N 
ATOM     20  H   UNL     1      -2.149  -4.297  -3.336  0.00  0.00    +0.148 HD
BRANCH  19  21
ATOM     21  C   UNL     1      -0.417  -3.545  -2.365  0.00  0.00    +0.160 C 
BRANCH  21  26
ATOM     22  C   UNL     1       1.627  -2.574  -7.583  0.00  0.00    +0.067 C 
ATOM     23  C   UNL     1       1.081  -2.818  -6.200  0.00  0.00    +0.056 A 
ATOM     24  C   UNL     1       1.220  -4.062  -5.611  0.00  0.00    +0.134 A 
ATOM     25  N   UNL     1       0.741  -4.276  -4.398  0.00  0.00    -0.255 NA
ATOM     26  C   UNL     1       0.130  -3.301  -3.748  0.00  0.00    +0.076 A 
ATOM     27  C   UNL     1      -0.010  -2.058  -4.337  0.00  0.00    +0.136 A 
ATOM     28  N   UNL     1       0.474  -1.842  -5.548  0.00  0.00    -0.257 NA
ENDBRANCH  21  26
ENDBRANCH  19  21
ENDBRANCH  17  19
ENDBRANCH   1  17
BRANCH  10  29
ATOM     29  O   UNL     1      -5.601 -11.860  -1.069  0.00  0.00    -0.491 OA
ATOM     30  C   UNL     1      -4.257 -11.384  -0.975  0.00  0.00    +0.277 C 
ENDBRANCH  10  29
BRANCH  11  31
ATOM     31  O   UNL     1      -8.223 -12.652  -1.267  0.00  0.00    -0.490 OA
BRANCH  31  32
ATOM     32  C   UNL     1      -9.604 -13.002  -1.377  0.00  0.00    +0.211 C 
BRANCH  32  33
ATOM     33  C   UNL     1      -9.758 -14.519  -1.250  0.00  0.00    -0.037 C 
BRANCH  33  34
ATOM     34  N   UNL     1      -9.301 -14.947   0.079  0.00  0.00    +0.382 N 
ATOM     35  C   UNL     1      -9.307 -16.413   0.148  0.00  0.00    -0.079 C 
ATOM     36  C   UNL     1      -8.755 -16.866   1.501  0.00  0.00    -0.019 C 
ATOM     37  C   UNL     1      -9.633 -16.298   2.620  0.00  0.00    -0.004 C 
ATOM     38  C   UNL     1      -9.680 -14.773   2.494  0.00  0.00    -0.019 C 
ATOM     39  C   UNL     1     -10.197 -14.397   1.104  0.00  0.00    -0.079 C 
ATOM     40  H   UNL     1      -8.364 -14.609   0.237  0.00  0.00    -0.082 HD
ENDBRANCH  33  34
ENDBRANCH  32  33
ENDBRANCH  31  32
ENDBRANCH  11  31
TORSDOF 9
