REMARK  Name = CHEMBL214161
REMARK  8 active torsions:
REMARK  status: ('A' for Active; 'I' for Inactive)
REMARK    1  A    between atoms: C_1  and  C_2
REMARK    2  A    between atoms: C_6  and  N_8
REMARK    3  A    between atoms: N_11  and  C_12
REMARK    4  A    between atoms: C_12  and  C_13
REMARK    5  A    between atoms: C_16  and  C_18
REMARK    6  A    between atoms: C_26  and  C_31
REMARK    7  A    between atoms: C_31  and  N_32
REMARK    8  A    between atoms: N_35  and  C_38
REMARK                            x       y       z     vdW  Elec       q    Type
REMARK                         _______ _______ _______ _____ _____    ______ ____
ROOT
ATOM      1  C   UNL     1       0.453  -8.200   8.800  0.00  0.00    +0.103 A 
ATOM      2  C   UNL     1       1.561  -9.029   9.053  0.00  0.00    +0.010 A 
ATOM      3  C   UNL     1       1.618  -9.261  10.393  0.00  0.00    +0.070 A 
ATOM      4  N   UNL     1       0.571  -8.594  10.967  0.00  0.00    -0.276 N 
ATOM      5  H   UNL     1       0.356  -8.575  11.912  0.00  0.00    +0.189 HD
ATOM      6  N   UNL     1      -0.134  -7.937   9.950  0.00  0.00    -0.173 NA
ATOM      7  C   UNL     1       2.772 -10.131  10.709  0.00  0.00    +0.004 A 
ATOM      8  C   UNL     1       3.241 -10.641  11.922  0.00  0.00    +0.015 A 
ATOM      9  C   UNL     1       4.361 -11.445  11.943  0.00  0.00    -0.033 A 
ATOM     10  C   UNL     1       5.023 -11.751  10.767  0.00  0.00    +0.005 A 
ATOM     11  C   UNL     1       4.564 -11.251   9.561  0.00  0.00    +0.005 A 
ATOM     12  C   UNL     1       3.446 -10.446   9.530  0.00  0.00    -0.034 A 
ATOM     13  C   UNL     1       2.712  -9.760   8.405  0.00  0.00    +0.075 C 
ENDROOT
BRANCH   1  17
ATOM     14  C   UNL     1      -0.296  -6.786   4.958  0.00  0.00    +0.008 A 
ATOM     15  C   UNL     1      -1.398  -7.012   5.718  0.00  0.00    +0.013 A 
ATOM     16  C   UNL     1      -1.241  -7.482   7.004  0.00  0.00    +0.018 A 
ATOM     17  C   UNL     1       0.025  -7.705   7.473  0.00  0.00    +0.040 A 
ATOM     18  S   UNL     1       1.024  -7.250   6.066  0.00  0.00    -0.090 S 
BRANCH  14  19
ATOM     19  C   UNL     1      -0.210  -6.281   3.541  0.00  0.00    +0.148 C 
BRANCH  19  23
ATOM     20  N   UNL     1       0.051  -2.797   2.393  0.00  0.00    -0.269 N 
ATOM     21  C   UNL     1      -0.032  -4.143   2.386  0.00  0.00    +0.304 C 
ATOM     22  O   UNL     1      -0.029  -4.746   1.330  0.00  0.00    -0.252 OA
ATOM     23  N   UNL     1      -0.119  -4.819   3.548  0.00  0.00    -0.295 N 
ATOM     24  H   UNL     1       0.127  -2.321   3.234  0.00  0.00    +0.156 HD
ATOM     25  H   UNL     1      -0.121  -4.337   4.390  0.00  0.00    +0.151 HD
BRANCH  20  31
ATOM     26  C   UNL     1      -1.548  -2.371  -2.237  0.00  0.00    +0.044 C 
ATOM     27  C   UNL     1      -0.737  -1.859  -1.074  0.00  0.00    -0.049 A 
ATOM     28  C   UNL     1      -0.014  -0.687  -1.199  0.00  0.00    +0.003 A 
ATOM     29  C   UNL     1       0.731  -0.214  -0.134  0.00  0.00    +0.002 A 
ATOM     30  C   UNL     1       0.754  -0.911   1.058  0.00  0.00    +0.023 A 
ATOM     31  C   UNL     1       0.029  -2.088   1.186  0.00  0.00    +0.035 A 
ATOM     32  C   UNL     1      -0.722  -2.558   0.117  0.00  0.00    +0.026 A 
ENDBRANCH  20  31
ENDBRANCH  19  23
ENDBRANCH  14  19
ENDBRANCH   1  17
BRANCH   9  33
ATOM     33  C   UNL     1       4.867 -11.993  13.252  0.00  0.00    +0.119 C 
BRANCH  33  34
ATOM     34  N   UNL     1       4.230 -13.290  13.519  0.00  0.00    -0.302 NA
ATOM     35  C   UNL     1       2.787 -13.131  13.746  0.00  0.00    +0.066 C 
ATOM     36  C   UNL     1       2.153 -14.508  13.960  0.00  0.00    -0.064 C 
ATOM     37  N   UNL     1       2.780 -15.161  15.118  0.00  0.00    +0.379 N 
ATOM     38  C   UNL     1       4.216 -15.334  14.866  0.00  0.00    -0.064 C 
ATOM     39  C   UNL     1       4.867 -13.965  14.659  0.00  0.00    +0.066 C 
ATOM     40  C   UNL     1       2.159 -16.474  15.334  0.00  0.00    -0.096 C 
ATOM     41  H   UNL     1       2.649 -14.588  15.938  0.00  0.00    -0.082 HD
ENDBRANCH  33  34
ENDBRANCH   9  33
TORSDOF 6
