REMARK  Name = CHEMBL213743
REMARK  4 active torsions:
REMARK  status: ('A' for Active; 'I' for Inactive)
REMARK    1  A    between atoms: C_1  and  N_2
REMARK    2  A    between atoms: N_5  and  C_8
REMARK    3  A    between atoms: C_8  and  C_9
REMARK    4  A    between atoms: C_17  and  C_21
REMARK                            x       y       z     vdW  Elec       q    Type
REMARK                         _______ _______ _______ _____ _____    ______ ____
ROOT
ATOM      1  C   UNL     1      -0.094  -4.478   2.524  0.00  0.00    -0.033 A 
ATOM      2  C   UNL     1       1.262  -4.705   2.676  0.00  0.00    +0.005 A 
ATOM      3  C   UNL     1       1.761  -5.136   3.893  0.00  0.00    +0.005 A 
ATOM      4  C   UNL     1       0.906  -5.341   4.956  0.00  0.00    -0.034 A 
ATOM      5  C   UNL     1      -0.459  -5.115   4.812  0.00  0.00    +0.006 A 
ATOM      6  C   UNL     1      -0.955  -4.674   3.583  0.00  0.00    +0.015 A 
ATOM      7  C   UNL     1      -1.149  -5.407   6.094  0.00  0.00    +0.097 A 
ATOM      8  C   UNL     1      -0.201  -5.819   7.045  0.00  0.00    +0.010 A 
ATOM      9  C   UNL     1      -0.856  -6.081   8.210  0.00  0.00    +0.070 A 
ATOM     10  N   UNL     1      -2.181  -5.840   7.997  0.00  0.00    -0.276 N 
ATOM     11  N   UNL     1      -2.336  -5.421   6.670  0.00  0.00    -0.173 NA
ATOM     12  H   UNL     1      -2.892  -5.941   8.650  0.00  0.00    +0.189 HD
ATOM     13  C   UNL     1       1.150  -5.798   6.374  0.00  0.00    +0.075 C 
ENDROOT
BRANCH   9  14
ATOM     14  C   UNL     1      -0.242  -6.544   9.475  0.00  0.00    +0.007 A 
ATOM     15  C   UNL     1      -0.814  -7.581  10.207  0.00  0.00    +0.017 A 
ATOM     16  C   UNL     1      -0.224  -7.976  11.357  0.00  0.00    +0.046 A 
ATOM     17  S   UNL     1       1.183  -6.883  11.456  0.00  0.00    -0.104 S 
ATOM     18  C   UNL     1       0.903  -5.965   9.950  0.00  0.00    +0.055 A 
ENDBRANCH   9  14
BRANCH   1  19
ATOM     19  C   UNL     1      -0.632  -4.009   1.196  0.00  0.00    +0.119 C 
BRANCH  19  24
ATOM     20  C   UNL     1      -0.018   1.465   0.010  0.00  0.00    -0.096 C 
ATOM     21  N   UNL     1       0.002  -0.004   0.002  0.00  0.00    +0.379 N 
ATOM     22  C   UNL     1      -1.376  -0.512   0.011  0.00  0.00    -0.064 C 
ATOM     23  C   UNL     1      -1.356  -2.042  -0.017  0.00  0.00    +0.066 C 
ATOM     24  N   UNL     1      -0.624  -2.541   1.156  0.00  0.00    -0.302 NA
ATOM     25  C   UNL     1       0.750  -2.020   1.175  0.00  0.00    +0.066 C 
ATOM     26  C   UNL     1       0.713  -0.490   1.192  0.00  0.00    -0.064 C 
ATOM     27  H   UNL     1       0.475  -0.329  -0.828  0.00  0.00    -0.082 HD
ENDBRANCH  19  24
ENDBRANCH   1  19
TORSDOF 3
