REMARK  Name = CHEMBL212084
REMARK  3 active torsions:
REMARK  status: ('A' for Active; 'I' for Inactive)
REMARK    1  A    between atoms: C_6  and  C_7
REMARK    2  A    between atoms: C_7  and  N_8
REMARK    3  A    between atoms: C_15  and  C_19
REMARK                            x       y       z     vdW  Elec       q    Type
REMARK                         _______ _______ _______ _____ _____    ______ ____
ROOT
ATOM      1  C   UNL     1      -0.017   1.379   0.010  0.00  0.00    +0.006 A 
ATOM      2  C   UNL     1       1.171   2.089   0.002  0.00  0.00    +0.005 A 
ATOM      3  C   UNL     1       2.376   1.419  -0.013  0.00  0.00    -0.034 A 
ATOM      4  C   UNL     1       2.405   0.027  -0.021  0.00  0.00    +0.006 A 
ATOM      5  C   UNL     1       1.203  -0.682  -0.013  0.00  0.00    +0.015 A 
ATOM      6  C   UNL     1       0.002  -0.004   0.002  0.00  0.00    -0.027 A 
ATOM      7  C   UNL     1       3.814  -0.440  -0.037  0.00  0.00    +0.097 A 
ATOM      8  C   UNL     1       4.670   0.674  -0.039  0.00  0.00    +0.010 A 
ATOM      9  C   UNL     1       5.955   0.221  -0.053  0.00  0.00    +0.070 A 
ATOM     10  N   UNL     1       5.908  -1.142  -0.059  0.00  0.00    -0.276 N 
ATOM     11  N   UNL     1       4.562  -1.527  -0.050  0.00  0.00    -0.173 NA
ATOM     12  H   UNL     1       6.672  -1.739  -0.069  0.00  0.00    +0.189 HD
ATOM     13  C   UNL     1       3.804   1.909  -0.024  0.00  0.00    +0.075 C 
ENDROOT
BRANCH   9  14
ATOM     14  C   UNL     1       7.178   1.055  -0.061  0.00  0.00    +0.007 A 
ATOM     15  C   UNL     1       8.233   0.764  -0.922  0.00  0.00    +0.017 A 
ATOM     16  C   UNL     1       9.333   1.550  -0.899  0.00  0.00    +0.046 A 
ATOM     17  S   UNL     1       8.918   2.748   0.356  0.00  0.00    -0.104 S 
ATOM     18  C   UNL     1       7.295   2.133   0.774  0.00  0.00    +0.055 A 
ENDBRANCH   9  14
BRANCH   6  19
ATOM     19  C   UNL     1      -1.294  -0.773   0.011  0.00  0.00    +0.157 C 
BRANCH  19  20
ATOM     20  N   UNL     1      -1.728  -1.014  -1.368  0.00  0.00    -0.332 N 
ATOM     21  C   UNL     1      -2.526  -0.198  -2.123  0.00  0.00    +0.107 A 
ATOM     22  C   UNL     1      -2.672  -0.796  -3.321  0.00  0.00    +0.130 A 
ATOM     23  N   UNL     1      -1.983  -1.946  -3.297  0.00  0.00    -0.244 NA
ATOM     24  C   UNL     1      -1.411  -2.081  -2.132  0.00  0.00    +0.199 A 
ENDBRANCH  19  20
ENDBRANCH   6  19
TORSDOF 3
