REMARK  Name = CHEMBL392600
REMARK  5 active torsions:
REMARK  status: ('A' for Active; 'I' for Inactive)
REMARK    1  A    between atoms: C_6  and  N_7
REMARK    2  A    between atoms: C_8  and  C_10
REMARK    3  A    between atoms: C_11  and  N_15
REMARK    4  A    between atoms: N_15  and  C_16
REMARK    5  A    between atoms: C_16  and  C_17
REMARK                            x       y       z     vdW  Elec       q    Type
REMARK                         _______ _______ _______ _____ _____    ______ ____
ROOT
ATOM      1  N   UNL     1      -1.201  -0.721   0.009  0.00  0.00    -0.280 N 
ATOM      2  C   UNL     1      -2.374  -0.068   0.124  0.00  0.00    +0.269 C 
ATOM      3  O   UNL     1      -2.395   1.149   0.131  0.00  0.00    -0.268 OA
ATOM      4  H   UNL     1      -1.189  -1.688  -0.064  0.00  0.00    +0.155 HD
ENDROOT
BRANCH   1  10
ATOM      5  C   UNL     1       1.138  -0.540   0.583  0.00  0.00    +0.027 A 
ATOM      6  C   UNL     1       2.324   0.168   0.570  0.00  0.00    +0.051 A 
ATOM      7  C   UNL     1       2.384   1.416  -0.032  0.00  0.00    +0.169 A 
ATOM      8  C   UNL     1       1.248   1.955  -0.626  0.00  0.00    +0.171 A 
ATOM      9  C   UNL     1       0.058   1.245  -0.611  0.00  0.00    +0.073 A 
ATOM     10  C   UNL     1       0.002  -0.003  -0.006  0.00  0.00    +0.037 A 
ATOM     11  O   UNL     1       1.290   3.175  -1.229  0.00  0.00    -0.421 OA
ATOM     12  C   UNL     1       2.399   4.018  -0.900  0.00  0.00    +0.509 C 
ATOM     13  C   UNL     1       3.680   3.176  -0.970  0.00  0.00    +0.509 C 
ATOM     14  O   UNL     1       3.562   2.100  -0.032  0.00  0.00    -0.421 OA
ATOM     15  F   UNL     1       3.836   2.661  -2.261  0.00  0.00    -0.155 F 
ATOM     16  F   UNL     1       4.785   3.969  -0.641  0.00  0.00    -0.155 F 
ATOM     17  F   UNL     1       2.477   5.073  -1.815  0.00  0.00    -0.155 F 
ATOM     18  F   UNL     1       2.238   4.526   0.394  0.00  0.00    -0.155 F 
ENDBRANCH   1  10
BRANCH   2  19
ATOM     19  C   UNL     1      -3.624  -0.822   0.241  0.00  0.00    +0.154 A 
ATOM     20  C   UNL     1      -4.851  -0.165   0.356  0.00  0.00    +0.098 A 
ATOM     21  S   UNL     1      -5.962  -1.561   0.460  0.00  0.00    -0.060 S 
ATOM     22  C   UNL     1      -4.728  -2.847   0.344  0.00  0.00    +0.158 A 
ATOM     23  N   UNL     1      -3.622  -2.158   0.235  0.00  0.00    -0.241 NA
BRANCH  20  24
ATOM     24  N   UNL     1      -5.128   1.188   0.384  0.00  0.00    -0.333 N 
ATOM     25  H   UNL     1      -4.406   1.833   0.317  0.00  0.00    +0.147 HD
BRANCH  24  26
ATOM     26  C   UNL     1      -6.512   1.650   0.513  0.00  0.00    +0.137 C 
BRANCH  26  27
ATOM     27  C   UNL     1      -6.541   3.157   0.517  0.00  0.00    -0.028 A 
ATOM     28  C   UNL     1      -6.438   3.865   1.705  0.00  0.00    +0.025 A 
ATOM     29  C   UNL     1      -6.468   5.247   1.669  0.00  0.00    +0.111 A 
ATOM     30  N   UNL     1      -6.594   5.889   0.525  0.00  0.00    -0.263 NA
ATOM     31  C   UNL     1      -6.694   5.248  -0.623  0.00  0.00    +0.111 A 
ATOM     32  C   UNL     1      -6.665   3.867  -0.667  0.00  0.00    +0.025 A 
ENDBRANCH  26  27
ENDBRANCH  24  26
ENDBRANCH  20  24
ENDBRANCH   2  19
TORSDOF 5
