REMARK  Name = CHEMBL575925
REMARK  7 active torsions:
REMARK  status: ('A' for Active; 'I' for Inactive)
REMARK    1  A    between atoms: C_1  and  C_2
REMARK    2  A    between atoms: C_2  and  C_3
REMARK    3  A    between atoms: C_2  and  C_4
REMARK    4  A    between atoms: C_2  and  C_5
REMARK    5  A    between atoms: N_13  and  C_14
REMARK    6  A    between atoms: C_17  and  N_20
REMARK    7  A    between atoms: C_21  and  C_23
REMARK                            x       y       z     vdW  Elec       q    Type
REMARK                         _______ _______ _______ _____ _____    ______ ____
ROOT
ATOM      1  C   UNL     1       6.752   0.667  -3.233  0.00  0.00    +0.035 A 
ATOM      2  C   UNL     1       6.686   1.357  -2.030  0.00  0.00    +0.025 A 
ATOM      3  C   UNL     1       7.762   2.110  -1.605  0.00  0.00    +0.025 A 
ATOM      4  C   UNL     1       8.911   2.178  -2.382  0.00  0.00    +0.034 A 
ATOM      5  C   UNL     1       8.978   1.488  -3.586  0.00  0.00    +0.025 A 
ATOM      6  C   UNL     1       7.903   0.730  -4.007  0.00  0.00    +0.025 A 
ENDROOT
BRANCH   1  15
ATOM      7  C   UNL     1       0.349   1.277  -2.854  0.00  0.00    +0.144 A 
ATOM      8  C   UNL     1       1.691   1.198  -2.874  0.00  0.00    +0.092 A 
ATOM      9  C   UNL     1       2.053   0.067  -3.639  0.00  0.00    +0.169 A 
ATOM     10  N   UNL     1       0.952  -0.504  -4.057  0.00  0.00    -0.063 NA
ATOM     11  O   UNL     1      -0.141   0.248  -3.563  0.00  0.00    -0.357 OA
ATOM     12  N   UNL     1       3.353  -0.365  -3.903  0.00  0.00    -0.251 N 
ATOM     13  C   UNL     1       4.403   0.320  -3.409  0.00  0.00    +0.309 C 
ATOM     14  O   UNL     1       4.218   1.314  -2.734  0.00  0.00    -0.252 OA
ATOM     15  N   UNL     1       5.660  -0.097  -3.663  0.00  0.00    -0.269 N 
ATOM     16  H   UNL     1       3.501  -1.158  -4.441  0.00  0.00    +0.158 HD
ATOM     17  H   UNL     1       5.807  -0.926  -4.145  0.00  0.00    +0.156 HD
BRANCH   7  19
ATOM     18  C   UNL     1      -0.112   3.709  -2.718  0.00  0.00    +0.019 C 
ATOM     19  C   UNL     1      -0.464   2.333  -2.151  0.00  0.00    +0.023 C 
ATOM     20  C   UNL     1      -0.153   2.303  -0.653  0.00  0.00    +0.019 C 
ATOM     21  C   UNL     1      -1.954   2.058  -2.367  0.00  0.00    +0.019 C 
ENDBRANCH   7  19
ENDBRANCH   1  15
BRANCH   4  22
ATOM     22  N   UNL     1      10.003   2.942  -1.953  0.00  0.00    -0.280 N 
ATOM     23  C   UNL     1      10.294   3.023  -0.639  0.00  0.00    +0.268 C 
ATOM     24  O   UNL     1       9.561   2.501   0.179  0.00  0.00    -0.268 OA
ATOM     25  H   UNL     1      10.550   3.414  -2.600  0.00  0.00    +0.155 HD
BRANCH  23  26
ATOM     26  C   UNL     1      11.500   3.742  -0.195  0.00  0.00    +0.145 A 
ATOM     27  C   UNL     1      11.913   3.895   1.092  0.00  0.00    +0.126 A 
ATOM     28  N   UNL     1      13.085   4.631   1.070  0.00  0.00    -0.292 N 
ATOM     29  C   UNL     1      13.991   5.120   2.020  0.00  0.00    +0.062 A 
ATOM     30  C   UNL     1      13.914   4.955   3.413  0.00  0.00    +0.027 A 
ATOM     31  C   UNL     1      14.875   5.489   4.239  0.00  0.00    +0.002 A 
ATOM     32  C   UNL     1      15.946   6.202   3.727  0.00  0.00    +0.001 A 
ATOM     33  C   UNL     1      16.046   6.380   2.359  0.00  0.00    +0.017 A 
ATOM     34  C   UNL     1      15.084   5.845   1.534  0.00  0.00    +0.039 A 
ATOM     35  S   UNL     1      14.833   5.835  -0.225  0.00  0.00    -0.049 S 
ATOM     36  C   UNL     1      13.326   4.892  -0.250  0.00  0.00    +0.179 A 
ATOM     37  N   UNL     1      12.401   4.367  -0.998  0.00  0.00    -0.217 NA
ENDBRANCH  23  26
ENDBRANCH   4  22
TORSDOF 4
