REMARK  Name = CHEMBL254702
REMARK  7 active torsions:
REMARK  status: ('A' for Active; 'I' for Inactive)
REMARK    1  A    between atoms: C_1  and  C_2
REMARK    2  A    between atoms: N_5  and  C_8
REMARK    3  A    between atoms: C_10  and  N_25
REMARK    4  A    between atoms: C_13  and  N_14
REMARK    5  A    between atoms: C_15  and  C_17
REMARK    6  A    between atoms: C_19  and  C_23
REMARK    7  A    between atoms: N_28  and  C_31
REMARK                            x       y       z     vdW  Elec       q    Type
REMARK                         _______ _______ _______ _____ _____    ______ ____
ROOT
ATOM      1  C   UNL     1      -1.158  -3.582   2.054  0.00  0.00    +0.053 A 
ATOM      2  C   UNL     1      -1.045  -4.951   1.870  0.00  0.00    +0.048 A 
ATOM      3  C   UNL     1      -1.559  -5.823   2.820  0.00  0.00    +0.031 A 
ATOM      4  C   UNL     1      -2.187  -5.324   3.954  0.00  0.00    +0.025 A 
ATOM      5  C   UNL     1      -2.301  -3.959   4.139  0.00  0.00    +0.027 A 
ATOM      6  C   UNL     1      -1.784  -3.084   3.196  0.00  0.00    +0.055 A 
ENDROOT
BRANCH   3   7
ATOM      7  N   UNL     1      -1.445  -7.205   2.636  0.00  0.00    -0.333 N 
ATOM      8  C   UNL     1      -1.881  -8.146   3.679  0.00  0.00    +0.086 C 
ATOM      9  C   UNL     1      -2.798  -9.192   3.036  0.00  0.00    -0.060 C 
ATOM     10  N   UNL     1      -2.104  -9.820   1.905  0.00  0.00    +0.380 N 
ATOM     11  C   UNL     1      -1.849  -8.823   0.858  0.00  0.00    -0.060 C 
ATOM     12  C   UNL     1      -0.890  -7.758   1.391  0.00  0.00    +0.086 C 
ATOM     13  C   UNL     1      -2.939 -10.898   1.358  0.00  0.00    -0.096 C 
ATOM     14  H   UNL     1      -1.227 -10.206   2.222  0.00  0.00    -0.082 HD
ENDBRANCH   3   7
BRANCH   1  19
ATOM     15  C   UNL     1       0.027   1.308  -0.162  0.00  0.00    +0.007 C 
ATOM     16  C   UNL     1       0.001  -0.220  -0.100  0.00  0.00    -0.011 C 
ATOM     17  C   UNL     1      -1.450  -0.704  -0.046  0.00  0.00    +0.022 C 
ATOM     18  C   UNL     1      -1.474  -2.235  -0.019  0.00  0.00    +0.105 C 
ATOM     19  N   UNL     1      -0.641  -2.701   1.098  0.00  0.00    -0.328 N 
ATOM     20  C   UNL     1       0.746  -2.224   1.193  0.00  0.00    +0.105 C 
ATOM     21  C   UNL     1       0.744  -0.693   1.152  0.00  0.00    +0.022 C 
ENDBRANCH   1  19
BRANCH   6  22
ATOM     22  N   UNL     1      -1.896  -1.698   3.389  0.00  0.00    -0.279 N 
ATOM     23  C   UNL     1      -2.892  -1.202   4.148  0.00  0.00    +0.265 C 
ATOM     24  O   UNL     1      -3.652  -1.957   4.726  0.00  0.00    -0.268 OA
ATOM     25  H   UNL     1      -1.256  -1.098   2.975  0.00  0.00    +0.155 HD
BRANCH  23  26
ATOM     26  C   UNL     1      -3.061   0.251   4.279  0.00  0.00    +0.103 A 
ATOM     27  C   UNL     1      -4.019   0.880   5.018  0.00  0.00    +0.051 A 
ATOM     28  C   UNL     1      -3.816   2.269   4.862  0.00  0.00    +0.070 A 
ATOM     29  C   UNL     1      -2.728   2.429   4.025  0.00  0.00    +0.102 A 
ATOM     30  N   UNL     1      -2.274   1.211   3.682  0.00  0.00    -0.356 N 
ATOM     31  H   UNL     1      -1.515   1.036   3.104  0.00  0.00    +0.166 HD
BRANCH  28  32
ATOM     32  C   UNL     1      -4.591   3.315   5.459  0.00  0.00    +0.101 C 
ATOM     33  N   UNL     1      -5.206   4.145   5.933  0.00  0.00    -0.191 NA
ENDBRANCH  28  32
ENDBRANCH  23  26
ENDBRANCH   6  22
TORSDOF 5
