REMARK  Name = CHEMBL184235
REMARK  10 active torsions:
REMARK  status: ('A' for Active; 'I' for Inactive)
REMARK    1  A    between atoms: C_1  and  C_2
REMARK    2  A    between atoms: C_5  and  C_8
REMARK    3  A    between atoms: C_8  and  N_9
REMARK    4  A    between atoms: C_20  and  O_37
REMARK    5  A    between atoms: C_21  and  O_27
REMARK    6  A    between atoms: O_27  and  C_28
REMARK    7  A    between atoms: C_28  and  C_29
REMARK    8  A    between atoms: C_29  and  C_30
REMARK    9  A    between atoms: C_30  and  N_31
REMARK   10  A    between atoms: O_37  and  C_38
REMARK                            x       y       z     vdW  Elec       q    Type
REMARK                         _______ _______ _______ _____ _____    ______ ____
ROOT
ATOM      1  N   UNL     1       0.921  -4.188  -1.982  0.00  0.00    -0.363 N 
ATOM      2  C   UNL     1       0.892  -5.143  -1.005  0.00  0.00    +0.142 C 
ATOM      3  N   UNL     1      -0.132  -6.047  -0.965  0.00  0.00    -0.308 N 
ATOM      4  C   UNL     1      -0.550  -6.758  -2.180  0.00  0.00    +0.126 C 
ATOM      5  C   UNL     1      -0.493  -8.267  -1.909  0.00  0.00    +0.125 C 
ATOM      6  N   UNL     1      -1.195  -8.545  -0.649  0.00  0.00    -0.312 N 
ATOM      7  C   UNL     1      -0.777  -7.833   0.567  0.00  0.00    +0.125 C 
ATOM      8  C   UNL     1      -0.831  -6.329   0.297  0.00  0.00    +0.126 C 
ATOM      9  C   UNL     1      -2.229  -9.457  -0.608  0.00  0.00    +0.132 A 
ATOM     10  C   UNL     1      -1.973 -10.839  -0.439  0.00  0.00    +0.044 A 
ATOM     11  C   UNL     1      -0.672 -11.340  -0.306  0.00  0.00    +0.062 A 
ATOM     12  C   UNL     1      -0.477 -12.682  -0.145  0.00  0.00    +0.162 A 
ATOM     13  C   UNL     1      -1.566 -13.565  -0.111  0.00  0.00    +0.164 A 
ATOM     14  C   UNL     1      -2.855 -13.097  -0.238  0.00  0.00    +0.078 A 
ATOM     15  C   UNL     1      -3.078 -11.725  -0.404  0.00  0.00    +0.080 A 
ATOM     16  N   UNL     1      -4.314 -11.218  -0.532  0.00  0.00    -0.235 NA
ATOM     17  C   UNL     1      -4.492  -9.928  -0.687  0.00  0.00    +0.223 A 
ATOM     18  N   UNL     1      -3.491  -9.062  -0.720  0.00  0.00    -0.220 NA
ATOM     19  S   UNL     1       2.100  -5.206   0.131  0.00  0.00    -0.016 SA
ATOM     20  H   UNL     1       1.694  -3.608  -2.070  0.00  0.00    +0.162 HD
ENDROOT
BRANCH  12  21
ATOM     21  O   UNL     1       0.786 -13.168  -0.017  0.00  0.00    -0.491 OA
ATOM     22  C   UNL     1       1.854 -12.218  -0.060  0.00  0.00    +0.277 C 
ENDBRANCH  12  21
BRANCH   1  23
ATOM     23  C   UNL     1      -0.214  -4.038  -2.895  0.00  0.00    +0.151 C 
BRANCH  23  28
ATOM     24  C   UNL     1       0.537   0.633  -6.132  0.00  0.00    +0.065 C 
ATOM     25  C   UNL     1       0.352  -0.609  -5.299  0.00  0.00    +0.038 A 
ATOM     26  C   UNL     1       0.836  -1.819  -5.760  0.00  0.00    +0.023 A 
ATOM     27  C   UNL     1       0.660  -2.956  -4.986  0.00  0.00    +0.008 A 
ATOM     28  C   UNL     1       0.002  -2.832  -3.772  0.00  0.00    -0.010 A 
ATOM     29  C   UNL     1      -0.454  -1.589  -3.377  0.00  0.00    +0.116 A 
ATOM     30  N   UNL     1      -0.265  -0.528  -4.137  0.00  0.00    -0.260 NA
ENDBRANCH  23  28
ENDBRANCH   1  23
BRANCH  13  31
ATOM     31  O   UNL     1      -1.347 -14.896   0.050  0.00  0.00    -0.488 OA
BRANCH  31  32
ATOM     32  C   UNL     1      -2.497 -15.744   0.077  0.00  0.00    +0.227 C 
BRANCH  32  33
ATOM     33  C   UNL     1      -2.055 -17.197   0.265  0.00  0.00    +0.022 C 
BRANCH  33  34
ATOM     34  C   UNL     1      -3.286 -18.105   0.293  0.00  0.00    -0.076 C 
BRANCH  34  35
ATOM     35  N   UNL     1      -2.862 -19.499   0.473  0.00  0.00    +0.380 N 
ATOM     36  C   UNL     1      -2.081 -19.926  -0.695  0.00  0.00    -0.079 C 
ATOM     37  C   UNL     1      -1.568 -21.351  -0.477  0.00  0.00    -0.019 C 
ATOM     38  C   UNL     1      -2.760 -22.293  -0.285  0.00  0.00    -0.004 C 
ATOM     39  C   UNL     1      -3.608 -21.796   0.889  0.00  0.00    -0.019 C 
ATOM     40  C   UNL     1      -4.046 -20.354   0.621  0.00  0.00    -0.079 C 
ATOM     41  H   UNL     1      -2.290 -19.572   1.302  0.00  0.00    -0.082 HD
ENDBRANCH  34  35
ENDBRANCH  33  34
ENDBRANCH  32  33
ENDBRANCH  31  32
ENDBRANCH  13  31
TORSDOF 8
