REMARK  Name = CHEMBL492266
REMARK  8 active torsions:
REMARK  status: ('A' for Active; 'I' for Inactive)
REMARK    1  A    between atoms: C_1  and  C_2
REMARK    2  A    between atoms: C_5  and  C_22
REMARK    3  A    between atoms: C_7  and  C_8
REMARK    4  A    between atoms: C_17  and  O_18
REMARK    5  A    between atoms: O_18  and  C_19
REMARK    6  A    between atoms: C_19  and  C_20
REMARK    7  A    between atoms: C_19  and  C_21
REMARK    8  A    between atoms: N_24  and  C_25
REMARK                            x       y       z     vdW  Elec       q    Type
REMARK                         _______ _______ _______ _____ _____    ______ ____
ROOT
ATOM      1  C   UNL     1      -0.342   1.236   0.142  0.00  0.00    +0.044 C 
ATOM      2  C   UNL     1      -0.090  -0.250   0.143  0.00  0.00    -0.043 A 
ATOM      3  C   UNL     1      -0.092  -0.951  -1.047  0.00  0.00    +0.005 A 
ATOM      4  C   UNL     1       0.138  -2.312  -1.054  0.00  0.00    +0.013 A 
ATOM      5  C   UNL     1       0.375  -2.988   0.144  0.00  0.00    +0.037 A 
ATOM      6  C   UNL     1       0.379  -2.285   1.348  0.00  0.00    +0.021 A 
ATOM      7  C   UNL     1       0.151  -0.913   1.346  0.00  0.00    -0.014 A 
ENDROOT
BRANCH   7   8
ATOM      8  C   UNL     1       0.160  -0.157   2.623  0.00  0.00    -0.017 A 
ATOM      9  C   UNL     1       0.921   1.018   2.730  0.00  0.00    +0.009 A 
ATOM     10  C   UNL     1       0.947   1.730   3.888  0.00  0.00    +0.013 A 
ATOM     11  C   UNL     1       0.204   1.291   4.993  0.00  0.00    +0.027 A 
ATOM     12  C   UNL     1      -0.570   0.105   4.898  0.00  0.00    +0.004 A 
ATOM     13  C   UNL     1      -0.587  -0.613   3.693  0.00  0.00    +0.018 A 
ATOM     14  C   UNL     1      -1.305  -0.311   6.021  0.00  0.00    +0.119 A 
ATOM     15  N   UNL     1      -1.266   0.392   7.128  0.00  0.00    -0.259 NA
ATOM     16  C   UNL     1      -0.554   1.502   7.249  0.00  0.00    +0.157 A 
ATOM     17  C   UNL     1       0.196   1.994   6.216  0.00  0.00    +0.147 A 
BRANCH  17  18
ATOM     18  O   UNL     1       0.918   3.134   6.365  0.00  0.00    -0.487 OA
BRANCH  18  19
ATOM     19  C   UNL     1       0.761   3.846   7.594  0.00  0.00    +0.167 C 
ATOM     20  C   UNL     1       1.696   3.253   8.650  0.00  0.00    +0.051 C 
ATOM     21  C   UNL     1       1.107   5.321   7.377  0.00  0.00    +0.051 C 
ENDBRANCH  18  19
ENDBRANCH  17  18
ENDBRANCH   7   8
BRANCH   5  22
ATOM     22  C   UNL     1       0.621  -4.446   0.137  0.00  0.00    +0.244 C 
ATOM     23  O   UNL     1       0.827  -5.033   1.181  0.00  0.00    -0.270 OA
ATOM     24  N   UNL     1       0.616  -5.124  -1.028  0.00  0.00    -0.308 N 
ATOM     25  H   UNL     1       0.451  -4.655  -1.861  0.00  0.00    +0.149 HD
BRANCH  24  26
ATOM     26  C   UNL     1       0.859  -6.569  -1.036  0.00  0.00    +0.073 C 
ATOM     27  C   UNL     1       1.797  -7.121  -2.111  0.00  0.00    +0.024 C 
ATOM     28  C   UNL     1       0.291  -7.375  -2.206  0.00  0.00    +0.024 C 
ENDBRANCH  24  26
ENDBRANCH   5  22
TORSDOF 5
