REMARK  Name = CHEMBL184227
REMARK  8 active torsions:
REMARK  status: ('A' for Active; 'I' for Inactive)
REMARK    1  A    between atoms: C_1  and  O_2
REMARK    2  A    between atoms: O_2  and  C_3
REMARK    3  A    between atoms: C_8  and  O_9
REMARK    4  A    between atoms: O_9  and  C_10
REMARK    5  A    between atoms: C_10  and  C_11
REMARK    6  A    between atoms: C_11  and  N_12
REMARK    7  A    between atoms: N_29  and  C_30
REMARK    8  A    between atoms: C_30  and  C_31
REMARK                            x       y       z     vdW  Elec       q    Type
REMARK                         _______ _______ _______ _____ _____    ______ ____
ROOT
ATOM      1  C   UNL     1      -0.541  -0.653  -1.768  0.00  0.00    +0.162 A 
ATOM      2  C   UNL     1       0.149   0.021  -2.735  0.00  0.00    +0.062 A 
ATOM      3  C   UNL     1       0.880  -0.695  -3.691  0.00  0.00    +0.044 A 
ATOM      4  C   UNL     1       0.900  -2.111  -3.650  0.00  0.00    +0.080 A 
ATOM      5  C   UNL     1       0.185  -2.781  -2.650  0.00  0.00    +0.078 A 
ATOM      6  C   UNL     1      -0.521  -2.054  -1.717  0.00  0.00    +0.164 A 
ATOM      7  N   UNL     1       1.609  -2.773  -4.578  0.00  0.00    -0.235 NA
ATOM      8  C   UNL     1       2.269  -2.118  -5.503  0.00  0.00    +0.223 A 
ATOM      9  N   UNL     1       2.280  -0.797  -5.580  0.00  0.00    -0.220 NA
ATOM     10  C   UNL     1       1.612  -0.046  -4.714  0.00  0.00    +0.132 A 
ATOM     11  N   UNL     1       1.631   1.330  -4.807  0.00  0.00    -0.312 N 
ATOM     12  C   UNL     1       2.719   2.106  -4.194  0.00  0.00    +0.125 C 
ATOM     13  C   UNL     1       3.359   2.989  -5.273  0.00  0.00    +0.126 C 
ATOM     14  N   UNL     1       2.292   3.705  -5.987  0.00  0.00    -0.308 N 
ATOM     15  C   UNL     1       1.205   2.929  -6.600  0.00  0.00    +0.126 C 
ATOM     16  C   UNL     1       0.568   2.046  -5.526  0.00  0.00    +0.125 C 
ATOM     17  C   UNL     1       2.312   5.068  -6.080  0.00  0.00    +0.142 C 
ATOM     18  N   UNL     1       2.140   5.673  -7.293  0.00  0.00    -0.363 N 
ATOM     19  S   UNL     1       2.542   5.989  -4.718  0.00  0.00    -0.016 SA
ATOM     20  H   UNL     1       2.166   6.640  -7.360  0.00  0.00    +0.162 HD
ENDROOT
BRANCH   1  22
ATOM     21  C   UNL     1      -1.231   1.468  -0.944  0.00  0.00    +0.277 C 
ATOM     22  O   UNL     1      -1.250   0.043  -0.839  0.00  0.00    -0.491 OA
ENDBRANCH   1  22
BRANCH   6  23
ATOM     23  O   UNL     1      -1.211  -2.701  -0.742  0.00  0.00    -0.490 OA
BRANCH  23  24
ATOM     24  C   UNL     1      -1.152  -4.128  -0.744  0.00  0.00    +0.211 C 
BRANCH  24  25
ATOM     25  C   UNL     1      -1.983  -4.675   0.418  0.00  0.00    -0.037 C 
BRANCH  25  26
ATOM     26  N   UNL     1      -3.398  -4.337   0.210  0.00  0.00    +0.382 N 
ATOM     27  C   UNL     1      -4.176  -4.749   1.385  0.00  0.00    -0.079 C 
ATOM     28  C   UNL     1      -5.636  -4.326   1.208  0.00  0.00    -0.019 C 
ATOM     29  C   UNL     1      -6.207  -4.995  -0.045  0.00  0.00    -0.004 C 
ATOM     30  C   UNL     1      -5.343  -4.617  -1.252  0.00  0.00    -0.019 C 
ATOM     31  C   UNL     1      -3.894  -5.029  -0.985  0.00  0.00    -0.079 C 
ATOM     32  H   UNL     1      -3.489  -3.340   0.082  0.00  0.00    -0.082 HD
ENDBRANCH  25  26
ENDBRANCH  24  25
ENDBRANCH  23  24
ENDBRANCH   6  23
BRANCH  18  33
ATOM     33  C   UNL     1       1.918   4.861  -8.491  0.00  0.00    +0.150 C 
BRANCH  33  34
ATOM     34  C   UNL     1       1.950   5.745  -9.711  0.00  0.00    -0.025 A 
ATOM     35  C   UNL     1       0.785   6.334 -10.168  0.00  0.00    +0.009 A 
ATOM     36  C   UNL     1       0.810   7.146 -11.285  0.00  0.00    +0.050 A 
ATOM     37  C   UNL     1       2.004   7.373 -11.951  0.00  0.00    +0.166 A 
ATOM     38  C   UNL     1       3.177   6.780 -11.492  0.00  0.00    +0.167 A 
ATOM     39  C   UNL     1       3.146   5.972 -10.367  0.00  0.00    +0.055 A 
ATOM     40  O   UNL     1       4.204   7.154 -12.309  0.00  0.00    -0.453 OA
ATOM     41  C   UNL     1       3.580   7.649 -13.509  0.00  0.00    +0.466 C 
ATOM     42  O   UNL     1       2.296   8.118 -13.057  0.00  0.00    -0.453 OA
ENDBRANCH  33  34
ENDBRANCH  18  33
TORSDOF 7
