REMARK  Name = CHEMBL598626
REMARK  9 active torsions:
REMARK  status: ('A' for Active; 'I' for Inactive)
REMARK    1  A    between atoms: C_1  and  C_2
REMARK    2  A    between atoms: C_2  and  C_3
REMARK    3  A    between atoms: C_2  and  C_4
REMARK    4  A    between atoms: C_2  and  C_5
REMARK    5  A    between atoms: C_7  and  N_16
REMARK    6  A    between atoms: N_8  and  C_10
REMARK    7  A    between atoms: C_17  and  C_19
REMARK    8  A    between atoms: C_23  and  O_25
REMARK    9  A    between atoms: O_25  and  C_26
REMARK                            x       y       z     vdW  Elec       q    Type
REMARK                         _______ _______ _______ _____ _____    ______ ____
ROOT
ATOM      1  N   UNL     1       3.548  -0.949  -3.269  0.00  0.00    -0.266 N 
ATOM      2  C   UNL     1       4.677  -0.586  -2.629  0.00  0.00    +0.249 C 
ATOM      3  O   UNL     1       4.614  -0.053  -1.539  0.00  0.00    -0.270 OA
ATOM      4  H   UNL     1       3.598  -1.374  -4.139  0.00  0.00    +0.157 HD
ENDROOT
BRANCH   2   5
ATOM      5  C   UNL     1       5.993  -0.837  -3.254  0.00  0.00    +0.041 A 
ATOM      6  C   UNL     1       6.068  -1.444  -4.509  0.00  0.00    +0.013 A 
ATOM      7  C   UNL     1       7.298  -1.676  -5.090  0.00  0.00    +0.004 A 
ATOM      8  C   UNL     1       8.458  -1.310  -4.433  0.00  0.00    +0.046 A 
ATOM      9  C   UNL     1       8.394  -0.706  -3.184  0.00  0.00    +0.129 A 
ATOM     10  C   UNL     1       7.164  -0.463  -2.595  0.00  0.00    +0.059 A 
BRANCH   9  11
ATOM     11  O   UNL     1       9.537  -0.348  -2.543  0.00  0.00    -0.454 OA
BRANCH  11  12
ATOM     12  C   UNL     1       9.868  -1.018  -1.407  0.00  0.00    +0.154 A 
ATOM     13  C   UNL     1       9.123  -2.115  -1.004  0.00  0.00    +0.048 A 
ATOM     14  C   UNL     1       9.458  -2.797   0.152  0.00  0.00    +0.006 A 
ATOM     15  C   UNL     1      10.538  -2.393   0.912  0.00  0.00    +0.028 A 
ATOM     16  C   UNL     1      11.291  -1.297   0.518  0.00  0.00    +0.070 A 
ATOM     17  C   UNL     1      10.960  -0.608  -0.649  0.00  0.00    +0.110 A 
ATOM     18  N   UNL     1      11.887   0.424  -0.785  0.00  0.00    -0.303 N 
ATOM     19  H   UNL     1      11.909   1.076  -1.503  0.00  0.00    +0.171 HD
ATOM     20  C   UNL     1      12.745   0.362   0.250  0.00  0.00    +0.325 A 
ATOM     21  O   UNL     1      13.679   1.120   0.433  0.00  0.00    -0.247 OA
ATOM     22  N   UNL     1      12.407  -0.661   1.058  0.00  0.00    -0.306 N 
ATOM     23  H   UNL     1      12.868  -0.918   1.872  0.00  0.00    +0.170 HD
ENDBRANCH  11  12
ENDBRANCH   9  11
ENDBRANCH   2   5
BRANCH   1  26
ATOM     24  C   UNL     1       0.707  -0.082  -1.259  0.00  0.00    +0.071 A 
ATOM     25  C   UNL     1       2.088  -0.127  -1.470  0.00  0.00    +0.069 A 
ATOM     26  C   UNL     1       2.307  -0.713  -2.679  0.00  0.00    +0.129 A 
ATOM     27  N   UNL     1       1.092  -1.024  -3.208  0.00  0.00    -0.218 N 
ATOM     28  N   UNL     1       0.112  -0.621  -2.292  0.00  0.00    -0.169 NA
BRANCH  27  29
ATOM     29  C   UNL     1       0.863  -1.642  -4.445  0.00  0.00    +0.067 A 
ATOM     30  C   UNL     1       1.697  -1.373  -5.522  0.00  0.00    +0.028 A 
ATOM     31  C   UNL     1       1.469  -1.984  -6.739  0.00  0.00    +0.002 A 
ATOM     32  C   UNL     1       0.411  -2.863  -6.886  0.00  0.00    +0.000 A 
ATOM     33  C   UNL     1      -0.421  -3.133  -5.815  0.00  0.00    +0.002 A 
ATOM     34  C   UNL     1      -0.195  -2.529  -4.594  0.00  0.00    +0.028 A 
ENDBRANCH  27  29
BRANCH  24  36
ATOM     35  C   UNL     1       0.060   2.014  -0.102  0.00  0.00    +0.017 C 
ATOM     36  C   UNL     1       0.020   0.486  -0.044  0.00  0.00    +0.006 C 
ATOM     37  C   UNL     1       0.738   0.005   1.219  0.00  0.00    +0.017 C 
ATOM     38  C   UNL     1      -1.435   0.015  -0.014  0.00  0.00    +0.017 C 
ENDBRANCH  24  36
ENDBRANCH   1  26
TORSDOF 6
