REMARK  Name = CHEMBL184235
REMARK  12 active torsions:
REMARK  status: ('A' for Active; 'I' for Inactive)
REMARK    1  A    between atoms: C_1  and  C_2
REMARK    2  A    between atoms: C_5  and  C_8
REMARK    3  A    between atoms: C_8  and  N_9
REMARK    4  A    between atoms: N_9  and  C_10
REMARK    5  A    between atoms: C_10  and  N_11
REMARK    6  A    between atoms: C_20  and  O_37
REMARK    7  A    between atoms: C_21  and  O_27
REMARK    8  A    between atoms: O_27  and  C_28
REMARK    9  A    between atoms: C_28  and  C_29
REMARK   10  A    between atoms: C_29  and  C_30
REMARK   11  A    between atoms: C_30  and  N_31
REMARK   12  A    between atoms: O_37  and  C_38
REMARK                            x       y       z     vdW  Elec       q    Type
REMARK                         _______ _______ _______ _____ _____    ______ ____
ROOT
ATOM      1  N   UNL     1       3.403  -5.184   1.304  0.00  0.00    -0.310 N 
ATOM      2  C   UNL     1       4.118  -5.389   2.572  0.00  0.00    +0.125 C 
ATOM      3  C   UNL     1       4.754  -6.784   2.556  0.00  0.00    +0.125 C 
ATOM      4  N   UNL     1       5.488  -6.951   1.294  0.00  0.00    -0.312 N 
ATOM      5  C   UNL     1       4.773  -6.747   0.026  0.00  0.00    +0.125 C 
ATOM      6  C   UNL     1       4.136  -5.357   0.042  0.00  0.00    +0.125 C 
ATOM      7  C   UNL     1       6.824  -7.294   1.299  0.00  0.00    +0.132 A 
ATOM      8  C   UNL     1       7.229  -8.645   1.177  0.00  0.00    +0.044 A 
ATOM      9  C   UNL     1       6.302  -9.686   1.046  0.00  0.00    +0.062 A 
ATOM     10  C   UNL     1       6.744 -10.974   0.931  0.00  0.00    +0.162 A 
ATOM     11  C   UNL     1       8.115 -11.264   0.943  0.00  0.00    +0.164 A 
ATOM     12  C   UNL     1       9.047 -10.258   1.070  0.00  0.00    +0.078 A 
ATOM     13  C   UNL     1       8.616  -8.931   1.189  0.00  0.00    +0.080 A 
ATOM     14  N   UNL     1       9.483  -7.914   1.315  0.00  0.00    -0.235 NA
ATOM     15  C   UNL     1       9.050  -6.681   1.425  0.00  0.00    +0.223 A 
ATOM     16  N   UNL     1       7.765  -6.365   1.413  0.00  0.00    -0.220 NA
ENDROOT
BRANCH   1  17
ATOM     17  C   UNL     1       2.098  -4.849   1.299  0.00  0.00    +0.133 C 
ATOM     18  S   UNL     1       1.244  -4.752  -0.182  0.00  0.00    -0.019 S 
BRANCH  17  19
ATOM     19  N   UNL     1       1.464  -4.591   2.460  0.00  0.00    -0.322 N 
ATOM     20  H   UNL     1       1.926  -4.716   3.303  0.00  0.00    +0.148 HD
BRANCH  19  21
ATOM     21  C   UNL     1       0.076  -4.122   2.448  0.00  0.00    +0.140 C 
BRANCH  21  26
ATOM     22  C   UNL     1      -1.762  -3.453   7.837  0.00  0.00    +0.065 C 
ATOM     23  C   UNL     1      -1.271  -3.604   6.421  0.00  0.00    +0.038 A 
ATOM     24  C   UNL     1      -0.679  -2.529   5.784  0.00  0.00    +0.023 A 
ATOM     25  C   UNL     1      -0.231  -2.679   4.481  0.00  0.00    +0.008 A 
ATOM     26  C   UNL     1      -0.395  -3.909   3.864  0.00  0.00    -0.012 A 
ATOM     27  C   UNL     1      -0.995  -4.939   4.563  0.00  0.00    +0.116 A 
ATOM     28  N   UNL     1      -1.405  -4.762   5.804  0.00  0.00    -0.260 NA
ENDBRANCH  21  26
ENDBRANCH  19  21
ENDBRANCH  17  19
ENDBRANCH   1  17
BRANCH  10  29
ATOM     29  O   UNL     1       5.843 -11.985   0.804  0.00  0.00    -0.491 OA
ATOM     30  C   UNL     1       4.460 -11.625   0.799  0.00  0.00    +0.277 C 
ENDBRANCH  10  29
BRANCH  11  31
ATOM     31  O   UNL     1       8.530 -12.553   0.828  0.00  0.00    -0.488 OA
BRANCH  31  32
ATOM     32  C   UNL     1       9.940 -12.785   0.847  0.00  0.00    +0.227 C 
BRANCH  32  33
ATOM     33  C   UNL     1      10.212 -14.284   0.706  0.00  0.00    +0.022 C 
BRANCH  33  34
ATOM     34  C   UNL     1      11.722 -14.532   0.727  0.00  0.00    -0.076 C 
BRANCH  34  35
ATOM     35  N   UNL     1      11.983 -15.972   0.592  0.00  0.00    +0.380 N 
ATOM     36  C   UNL     1      11.449 -16.676   1.764  0.00  0.00    -0.079 C 
ATOM     37  C   UNL     1      11.646 -18.184   1.592  0.00  0.00    -0.019 C 
ATOM     38  C   UNL     1      13.141 -18.484   1.450  0.00  0.00    -0.004 C 
ATOM     39  C   UNL     1      13.703 -17.687   0.270  0.00  0.00    -0.019 C 
ATOM     40  C   UNL     1      13.430 -16.198   0.491  0.00  0.00    -0.079 C 
ATOM     41  H   UNL     1      11.531 -16.318  -0.241  0.00  0.00    -0.082 HD
ENDBRANCH  34  35
ENDBRANCH  33  34
ENDBRANCH  32  33
ENDBRANCH  31  32
ENDBRANCH  11  31
TORSDOF 10
