REMARK  Name = CHEMBL269894
REMARK  5 active torsions:
REMARK  status: ('A' for Active; 'I' for Inactive)
REMARK    1  A    between atoms: C_1  and  O_2
REMARK    2  A    between atoms: O_2  and  C_3
REMARK    3  A    between atoms: C_7  and  N_9
REMARK    4  A    between atoms: N_12  and  C_13
REMARK    5  A    between atoms: C_16  and  C_19
REMARK                            x       y       z     vdW  Elec       q    Type
REMARK                         _______ _______ _______ _____ _____    ______ ____
ROOT
ATOM      1  C   UNL     1       2.476  -6.860  -4.388  0.00  0.00    +0.035 A 
ATOM      2  C   UNL     1       3.162  -6.077  -5.309  0.00  0.00    +0.024 A 
ATOM      3  C   UNL     1       3.770  -6.664  -6.397  0.00  0.00    +0.010 A 
ATOM      4  C   UNL     1       3.697  -8.046  -6.574  0.00  0.00    -0.017 A 
ATOM      5  C   UNL     1       3.008  -8.830  -5.649  0.00  0.00    +0.010 A 
ATOM      6  C   UNL     1       2.406  -8.238  -4.559  0.00  0.00    +0.024 A 
ENDROOT
BRANCH   4   7
ATOM      7  C   UNL     1       4.350  -8.680  -7.743  0.00  0.00    -0.004 A 
ATOM      8  C   UNL     1       5.710  -8.499  -7.970  0.00  0.00    +0.009 A 
ATOM      9  C   UNL     1       6.318  -9.093  -9.063  0.00  0.00    +0.004 A 
ATOM     10  C   UNL     1       5.588  -9.869  -9.940  0.00  0.00    +0.050 A 
ATOM     11  C   UNL     1       4.228 -10.065  -9.736  0.00  0.00    +0.170 A 
ATOM     12  C   UNL     1       3.602  -9.473  -8.629  0.00  0.00    +0.070 A 
ATOM     13  C   UNL     1       2.189  -9.869  -8.688  0.00  0.00    +0.167 A 
ATOM     14  N   UNL     1       2.043 -10.626  -9.742  0.00  0.00    -0.062 NA
ATOM     15  O   UNL     1       3.283 -10.754 -10.408  0.00  0.00    -0.353 OA
ATOM     16  N   UNL     1       1.194  -9.507  -7.791  0.00  0.00    -0.340 N 
ATOM     17  H   UNL     1       1.373  -8.839  -7.111  0.00  0.00    +0.144 HD
ATOM     18  H   UNL     1       0.318  -9.922  -7.844  0.00  0.00    +0.144 HD
ENDBRANCH   4   7
BRANCH   1  22
ATOM     19  N   UNL     1       0.823  -4.411  -2.310  0.00  0.00    -0.269 N 
ATOM     20  C   UNL     1       1.327  -5.029  -3.397  0.00  0.00    +0.308 C 
ATOM     21  O   UNL     1       1.300  -4.474  -4.479  0.00  0.00    -0.252 OA
ATOM     22  N   UNL     1       1.860  -6.262  -3.285  0.00  0.00    -0.269 N 
ATOM     23  H   UNL     1       0.911  -4.821  -1.435  0.00  0.00    +0.156 HD
ATOM     24  H   UNL     1       1.816  -6.734  -2.439  0.00  0.00    +0.156 HD
BRANCH  19  29
ATOM     25  C   UNL     1      -1.200  -1.679  -3.719  0.00  0.00    +0.122 A 
ATOM     26  C   UNL     1      -1.108  -0.737  -2.703  0.00  0.00    +0.046 A 
ATOM     27  C   UNL     1      -0.379  -1.016  -1.564  0.00  0.00    +0.005 A 
ATOM     28  C   UNL     1       0.262  -2.233  -1.431  0.00  0.00    +0.023 A 
ATOM     29  C   UNL     1       0.174  -3.179  -2.444  0.00  0.00    +0.038 A 
ATOM     30  C   UNL     1      -0.563  -2.903  -3.587  0.00  0.00    +0.069 A 
BRANCH  25  32
ATOM     31  C   UNL     1      -2.546  -0.121  -4.908  0.00  0.00    +0.277 C 
ATOM     32  O   UNL     1      -1.917  -1.402  -4.840  0.00  0.00    -0.495 OA
ENDBRANCH  25  32
ENDBRANCH  19  29
ENDBRANCH   1  22
TORSDOF 4
