REMARK  Name = CHEMBL525893
REMARK  4 active torsions:
REMARK  status: ('A' for Active; 'I' for Inactive)
REMARK    1  A    between atoms: C_1  and  C_2
REMARK    2  A    between atoms: N_5  and  C_20
REMARK    3  A    between atoms: C_8  and  C_9
REMARK    4  A    between atoms: C_23  and  C_26
REMARK                            x       y       z     vdW  Elec       q    Type
REMARK                         _______ _______ _______ _____ _____    ______ ____
ROOT
ATOM      1  C   UNL     1      -0.052   1.502   0.022  0.00  0.00    +0.044 C 
ATOM      2  C   UNL     1      -0.014  -0.004   0.008  0.00  0.00    -0.036 A 
ATOM      3  C   UNL     1      -0.690  -0.722  -0.985  0.00  0.00    +0.022 A 
ATOM      4  C   UNL     1      -0.651  -2.076  -0.990  0.00  0.00    +0.095 A 
ATOM      5  N   UNL     1       0.039  -2.761  -0.041  0.00  0.00    -0.284 N 
ATOM      6  C   UNL     1       0.705  -2.115   0.934  0.00  0.00    +0.264 A 
ATOM      7  O   UNL     1       1.319  -2.746   1.778  0.00  0.00    -0.267 OA
ATOM      8  C   UNL     1       0.696  -0.699   0.975  0.00  0.00    +0.050 A 
ENDROOT
BRANCH   8   9
ATOM      9  C   UNL     1       1.428   0.028   2.038  0.00  0.00    -0.012 A 
ATOM     10  C   UNL     1       2.514   0.852   1.697  0.00  0.00    +0.011 A 
ATOM     11  C   UNL     1       3.203   1.530   2.652  0.00  0.00    +0.029 A 
ATOM     12  C   UNL     1       2.832   1.411   4.001  0.00  0.00    +0.076 A 
ATOM     13  C   UNL     1       1.737   0.581   4.356  0.00  0.00    +0.019 A 
ATOM     14  C   UNL     1       1.034  -0.106   3.358  0.00  0.00    +0.020 A 
ATOM     15  C   UNL     1       1.386   0.481   5.716  0.00  0.00    +0.124 A 
ATOM     16  N   UNL     1       2.090   1.161   6.598  0.00  0.00    -0.222 NA
ATOM     17  C   UNL     1       3.112   1.931   6.229  0.00  0.00    +0.213 A 
ATOM     18  N   UNL     1       3.485   2.063   4.971  0.00  0.00    -0.215 NA
ATOM     19  N   UNL     1       3.810   2.619   7.204  0.00  0.00    -0.327 N 
ATOM     20  H   UNL     1       3.552   2.536   8.136  0.00  0.00    +0.145 HD
ATOM     21  H   UNL     1       4.558   3.186   6.957  0.00  0.00    +0.145 HD
ENDBRANCH   8   9
BRANCH   5  22
ATOM     22  C   UNL     1       0.057  -4.159  -0.077  0.00  0.00    +0.049 A 
ATOM     23  C   UNL     1      -0.920  -4.884   0.596  0.00  0.00    +0.027 A 
ATOM     24  C   UNL     1      -0.905  -6.261   0.562  0.00  0.00    +0.015 A 
ATOM     25  C   UNL     1       0.093  -6.929  -0.149  0.00  0.00    +0.037 A 
ATOM     26  C   UNL     1       1.074  -6.199  -0.824  0.00  0.00    +0.015 A 
ATOM     27  C   UNL     1       1.050  -4.822  -0.791  0.00  0.00    +0.027 A 
BRANCH  25  28
ATOM     28  C   UNL     1       0.113  -8.406  -0.188  0.00  0.00    +0.227 A 
ATOM     29  N   UNL     1      -0.752  -9.200   0.399  0.00  0.00    -0.217 NA
ATOM     30  C   UNL     1      -0.412 -10.472   0.141  0.00  0.00    +0.152 A 
ATOM     31  C   UNL     1       0.694 -10.455  -0.626  0.00  0.00    +0.217 A 
ATOM     32  O   UNL     1       1.017  -9.163  -0.834  0.00  0.00    -0.444 OA
ENDBRANCH  25  28
ENDBRANCH   5  22
TORSDOF 3
