REMARK  Name = CHEMBL246166
REMARK  9 active torsions:
REMARK  status: ('A' for Active; 'I' for Inactive)
REMARK    1  A    between atoms: C_1  and  O_2
REMARK    2  A    between atoms: O_2  and  C_3
REMARK    3  A    between atoms: C_3  and  C_5
REMARK    4  A    between atoms: N_7  and  C_8
REMARK    5  A    between atoms: C_20  and  C_21
REMARK    6  A    between atoms: C_23  and  C_26
REMARK    7  A    between atoms: C_27  and  C_28
REMARK    8  A    between atoms: C_28  and  O_29
REMARK    9  A    between atoms: O_29  and  C_30
REMARK                            x       y       z     vdW  Elec       q    Type
REMARK                         _______ _______ _______ _____ _____    ______ ____
ROOT
ATOM      1  C   UNL     1      -2.442  -4.145  -0.089  0.00  0.00    +0.038 A 
ATOM      2  C   UNL     1      -1.242  -4.846  -0.091  0.00  0.00    +0.023 A 
ATOM      3  C   UNL     1      -1.246  -6.225  -0.189  0.00  0.00    +0.002 A 
ATOM      4  C   UNL     1      -2.439  -6.912  -0.286  0.00  0.00    +0.010 A 
ATOM      5  C   UNL     1      -3.650  -6.218  -0.286  0.00  0.00    +0.008 A 
ATOM      6  C   UNL     1      -3.643  -4.831  -0.181  0.00  0.00    -0.013 A 
ATOM      7  C   UNL     1      -5.077  -4.360  -0.198  0.00  0.00    +0.077 C 
ATOM      8  C   UNL     1      -5.925  -5.602  -0.316  0.00  0.00    +0.010 A 
ATOM      9  C   UNL     1      -5.052  -6.701  -0.378  0.00  0.00    +0.097 A 
ATOM     10  N   UNL     1      -5.781  -7.795  -0.487  0.00  0.00    -0.173 NA
ATOM     11  N   UNL     1      -7.132  -7.428  -0.516  0.00  0.00    -0.276 N 
ATOM     12  H   UNL     1      -7.887  -8.033  -0.591  0.00  0.00    +0.189 HD
ATOM     13  C   UNL     1      -7.201  -6.071  -0.394  0.00  0.00    +0.070 A 
ENDROOT
BRANCH  13  14
ATOM     14  C   UNL     1      -8.436  -5.255  -0.379  0.00  0.00    +0.008 A 
ATOM     15  C   UNL     1      -9.519  -5.622   0.406  0.00  0.00    +0.034 A 
ATOM     16  C   UNL     1     -10.640  -4.838   0.389  0.00  0.00    +0.063 A 
ATOM     17  S   UNL     1     -10.179  -3.547  -0.755  0.00  0.00    -0.088 S 
ATOM     18  C   UNL     1      -8.531  -4.117  -1.138  0.00  0.00    +0.056 A 
BRANCH  16  19
ATOM     19  C   UNL     1     -11.868  -5.009   1.104  0.00  0.00    -0.056 C 
ATOM     20  C   UNL     1     -12.875  -5.149   1.691  0.00  0.00    -0.056 C 
BRANCH  20  21
ATOM     21  C   UNL     1     -14.138  -5.325   2.427  0.00  0.00    +0.318 C 
BRANCH  21  22
ATOM     22  O   UNL     1     -15.033  -4.260   2.099  0.00  0.00    -0.480 OA
BRANCH  22  23
ATOM     23  C   UNL     1     -16.252  -4.272   2.698  0.00  0.00    +0.122 A 
ATOM     24  C   UNL     1     -16.580  -5.285   3.587  0.00  0.00    +0.046 A 
ATOM     25  C   UNL     1     -17.820  -5.296   4.195  0.00  0.00    +0.004 A 
ATOM     26  C   UNL     1     -18.736  -4.297   3.917  0.00  0.00    +0.000 A 
ATOM     27  C   UNL     1     -18.412  -3.286   3.031  0.00  0.00    +0.004 A 
ATOM     28  C   UNL     1     -17.171  -3.268   2.425  0.00  0.00    +0.046 A 
ENDBRANCH  22  23
ENDBRANCH  21  22
ENDBRANCH  20  21
ENDBRANCH  16  19
ENDBRANCH  13  14
BRANCH   1  31
ATOM     29  C   UNL     1      -1.398  -2.120   0.590  0.00  0.00    +0.326 C 
ATOM     30  O   UNL     1      -0.513  -2.764   1.113  0.00  0.00    -0.263 OA
ATOM     31  N   UNL     1      -2.439  -2.752   0.011  0.00  0.00    -0.276 N 
ATOM     32  H   UNL     1      -3.185  -2.238  -0.337  0.00  0.00    +0.155 HD
BRANCH  29  33
ATOM     33  C   UNL     1      -1.335  -0.628   0.586  0.00  0.00    +0.395 C 
ATOM     34  O   UNL     1      -2.219   0.015   0.063  0.00  0.00    -0.240 OA
BRANCH  33  36
ATOM     35  C   UNL     1      -0.300   1.431   1.124  0.00  0.00    +0.280 C 
ATOM     36  O   UNL     1      -0.296   0.002   1.164  0.00  0.00    -0.461 OA
ENDBRANCH  33  36
ENDBRANCH  29  33
ENDBRANCH   1  31
TORSDOF 8
