REMARK  Name = CHEMBL270489
REMARK  6 active torsions:
REMARK  status: ('A' for Active; 'I' for Inactive)
REMARK    1  A    between atoms: C_1  and  C_2
REMARK    2  A    between atoms: C_6  and  N_8
REMARK    3  A    between atoms: N_11  and  C_12
REMARK    4  A    between atoms: C_15  and  C_18
REMARK    5  A    between atoms: C_21  and  C_28
REMARK    6  A    between atoms: C_28  and  N_29
REMARK                            x       y       z     vdW  Elec       q    Type
REMARK                         _______ _______ _______ _____ _____    ______ ____
ROOT
ATOM      1  C   UNL     1      -0.121  -2.224   5.991  0.00  0.00    +0.035 A 
ATOM      2  C   UNL     1       1.064  -2.046   6.694  0.00  0.00    +0.024 A 
ATOM      3  C   UNL     1       1.061  -1.362   7.891  0.00  0.00    +0.010 A 
ATOM      4  C   UNL     1      -0.134  -0.849   8.396  0.00  0.00    -0.017 A 
ATOM      5  C   UNL     1      -1.322  -1.029   7.688  0.00  0.00    +0.010 A 
ATOM      6  C   UNL     1      -1.312  -1.709   6.489  0.00  0.00    +0.024 A 
ENDROOT
BRANCH   4   7
ATOM      7  C   UNL     1      -0.141  -0.114   9.682  0.00  0.00    -0.004 A 
ATOM      8  C   UNL     1       0.677   0.996   9.860  0.00  0.00    +0.010 A 
ATOM      9  C   UNL     1       0.669   1.681  11.062  0.00  0.00    +0.009 A 
ATOM     10  C   UNL     1      -0.147   1.276  12.099  0.00  0.00    +0.012 A 
ATOM     11  C   UNL     1      -0.974   0.169  11.947  0.00  0.00    +0.174 A 
ATOM     12  C   UNL     1      -0.978  -0.530  10.731  0.00  0.00    +0.071 A 
ATOM     13  C   UNL     1      -1.946  -1.624  10.883  0.00  0.00    +0.167 A 
ATOM     14  N   UNL     1      -2.444  -1.536  12.086  0.00  0.00    -0.062 NA
ATOM     15  O   UNL     1      -1.855  -0.444  12.764  0.00  0.00    -0.352 OA
ATOM     16  N   UNL     1      -2.271  -2.574   9.925  0.00  0.00    -0.340 N 
ATOM     17  H   UNL     1      -1.786  -2.603   9.086  0.00  0.00    +0.144 HD
ATOM     18  H   UNL     1      -2.984  -3.210  10.095  0.00  0.00    +0.144 HD
BRANCH  10  19
ATOM     19  C   UNL     1      -0.141   2.036  13.400  0.00  0.00    +0.123 C 
BRANCH  19  20
ATOM     20  N   UNL     1       0.692   1.324  14.379  0.00  0.00    -0.294 NA
ATOM     21  C   UNL     1       0.092   0.031  14.739  0.00  0.00    +0.113 C 
ATOM     22  C   UNL     1       1.018  -0.702  15.713  0.00  0.00    +0.175 C 
ATOM     23  O   UNL     1       1.250   0.124  16.857  0.00  0.00    -0.377 OA
ATOM     24  C   UNL     1       1.835   1.391  16.542  0.00  0.00    +0.175 C 
ATOM     25  C   UNL     1       0.916   2.146  15.577  0.00  0.00    +0.113 C 
ENDBRANCH  19  20
ENDBRANCH  10  19
ENDBRANCH   4   7
BRANCH   1  29
ATOM     26  N   UNL     1       0.889  -4.458   3.338  0.00  0.00    -0.267 N 
ATOM     27  C   UNL     1       0.820  -3.860   4.544  0.00  0.00    +0.308 C 
ATOM     28  O   UNL     1       1.601  -4.171   5.423  0.00  0.00    -0.252 OA
ATOM     29  N   UNL     1      -0.115  -2.918   4.777  0.00  0.00    -0.269 N 
ATOM     30  H   UNL     1       0.310  -4.164   2.618  0.00  0.00    +0.156 HD
ATOM     31  H   UNL     1      -0.783  -2.721   4.102  0.00  0.00    +0.156 HD
BRANCH  26  37
ATOM     32  C   UNL     1       5.268  -6.510   4.233  0.00  0.00    +0.044 C 
ATOM     33  C   UNL     1       3.926  -6.523   3.546  0.00  0.00    -0.049 A 
ATOM     34  C   UNL     1       3.592  -7.568   2.705  0.00  0.00    +0.006 A 
ATOM     35  C   UNL     1       2.362  -7.585   2.073  0.00  0.00    +0.040 A 
ATOM     36  C   UNL     1       1.463  -6.555   2.280  0.00  0.00    +0.145 A 
ATOM     37  C   UNL     1       1.797  -5.503   3.126  0.00  0.00    +0.070 A 
ATOM     38  C   UNL     1       3.031  -5.494   3.762  0.00  0.00    +0.029 A 
ATOM     39  F   UNL     1       0.262  -6.571   1.662  0.00  0.00    -0.204 F 
ENDBRANCH  26  37
ENDBRANCH   1  29
TORSDOF 5
