REMARK  Name = CHEMBL511337
REMARK  4 active torsions:
REMARK  status: ('A' for Active; 'I' for Inactive)
REMARK    1  A    between atoms: C_6  and  C_7
REMARK    2  A    between atoms: C_9  and  N_13
REMARK    3  A    between atoms: N_13  and  C_14
REMARK    4  A    between atoms: C_17  and  C_20
REMARK                            x       y       z     vdW  Elec       q    Type
REMARK                         _______ _______ _______ _____ _____    ______ ____
ROOT
ATOM      1  C   UNL     1      -1.287  -0.760  -0.147  0.00  0.00    +0.094 A 
ATOM      2  C   UNL     1      -1.418  -2.159  -0.223  0.00  0.00    +0.073 A 
ATOM      3  C   UNL     1      -2.723  -2.467   0.003  0.00  0.00    +0.119 A 
ATOM      4  N   UNL     1      -3.392  -1.302   0.213  0.00  0.00    -0.263 N 
ATOM      5  N   UNL     1      -2.471  -0.251   0.120  0.00  0.00    -0.172 NA
ATOM      6  H   UNL     1      -4.340  -1.215   0.399  0.00  0.00    +0.190 HD
ENDROOT
BRANCH   1  12
ATOM      7  C   UNL     1      -0.040   1.398  -0.227  0.00  0.00    +0.013 A 
ATOM      8  C   UNL     1       1.131   2.108  -0.397  0.00  0.00    +0.039 A 
ATOM      9  C   UNL     1       2.315   1.442  -0.668  0.00  0.00    +0.123 A 
ATOM     10  C   UNL     1       2.329   0.060  -0.770  0.00  0.00    +0.039 A 
ATOM     11  C   UNL     1       1.162  -0.658  -0.602  0.00  0.00    +0.013 A 
ATOM     12  C   UNL     1      -0.030   0.008  -0.329  0.00  0.00    +0.002 A 
ATOM     13  F   UNL     1       3.459   2.141  -0.834  0.00  0.00    -0.205 F 
ENDBRANCH   1  12
BRANCH   3  14
ATOM     14  N   UNL     1      -3.275  -3.745   0.015  0.00  0.00    -0.300 N 
ATOM     15  H   UNL     1      -2.700  -4.523  -0.059  0.00  0.00    +0.154 HD
BRANCH  14  16
ATOM     16  C   UNL     1      -4.652  -3.907   0.133  0.00  0.00    +0.032 A 
ATOM     17  C   UNL     1      -5.513  -2.982  -0.451  0.00  0.00    +0.024 A 
ATOM     18  C   UNL     1      -6.875  -3.140  -0.336  0.00  0.00    +0.015 A 
ATOM     19  C   UNL     1      -7.394  -4.230   0.369  0.00  0.00    +0.037 A 
ATOM     20  C   UNL     1      -6.527  -5.157   0.955  0.00  0.00    +0.015 A 
ATOM     21  C   UNL     1      -5.165  -4.997   0.831  0.00  0.00    +0.024 A 
BRANCH  19  22
ATOM     22  C   UNL     1      -8.854  -4.401   0.495  0.00  0.00    +0.242 C 
ATOM     23  O   UNL     1      -9.607  -3.594  -0.015  0.00  0.00    -0.270 OA
ATOM     24  N   UNL     1      -9.352  -5.452   1.175  0.00  0.00    -0.325 N 
ATOM     25  H   UNL     1      -8.752  -6.096   1.581  0.00  0.00    +0.145 HD
ATOM     26  H   UNL     1     -10.312  -5.565   1.258  0.00  0.00    +0.145 HD
ENDBRANCH  19  22
ENDBRANCH  14  16
ENDBRANCH   3  14
TORSDOF 4
