REMARK  Name = CHEMBL535
REMARK  11 active torsions:
REMARK  status: ('A' for Active; 'I' for Inactive)
REMARK    1  A    between atoms: C_1  and  C_2
REMARK    2  A    between atoms: C_2  and  N_3
REMARK    3  A    between atoms: N_3  and  C_4
REMARK    4  A    between atoms: N_3  and  C_6
REMARK    5  A    between atoms: C_4  and  C_5
REMARK    6  A    between atoms: C_6  and  C_7
REMARK    7  A    between atoms: C_7  and  N_8
REMARK    8  A    between atoms: C_9  and  C_11
REMARK    9  A    between atoms: C_12  and  C_30
REMARK   10  A    between atoms: C_13  and  C_18
REMARK   11  A    between atoms: C_16  and  C_17
REMARK                            x       y       z     vdW  Elec       q    Type
REMARK                         _______ _______ _______ _____ _____    ______ ____
ROOT
ATOM      1  C   UNL     1      -0.106  -5.127   3.392  0.00  0.00    +0.060 A 
ATOM      2  C   UNL     1       0.907  -6.032   3.009  0.00  0.00    -0.013 A 
ATOM      3  C   UNL     1       0.487  -7.289   3.396  0.00  0.00    +0.044 A 
ATOM      4  N   UNL     1      -0.748  -7.160   3.998  0.00  0.00    -0.358 N 
ATOM      5  H   UNL     1      -1.273  -7.888   4.364  0.00  0.00    +0.166 HD
ATOM      6  C   UNL     1      -1.104  -5.864   4.002  0.00  0.00    +0.026 A 
ATOM      7  C   UNL     1      -2.382  -5.307   4.574  0.00  0.00    +0.064 C 
ATOM      8  C   UNL     1       2.199  -5.692   2.312  0.00  0.00    +0.047 C 
ENDROOT
BRANCH   3   9
ATOM      9  C   UNL     1       1.196  -8.496   3.208  0.00  0.00    +0.039 C 
ATOM     10  C   UNL     1       0.510  -9.667   2.957  0.00  0.00    +0.048 C 
ATOM     11  C   UNL     1       1.065 -11.038   2.887  0.00  0.00    +0.011 A 
ATOM     12  C   UNL     1       2.347 -11.556   3.038  0.00  0.00    +0.048 A 
ATOM     13  C   UNL     1       2.555 -12.916   2.912  0.00  0.00    +0.124 A 
ATOM     14  C   UNL     1       1.489 -13.759   2.637  0.00  0.00    +0.040 A 
ATOM     15  C   UNL     1       0.214 -13.253   2.486  0.00  0.00    +0.027 A 
ATOM     16  C   UNL     1      -0.014 -11.887   2.609  0.00  0.00    +0.042 A 
ATOM     17  N   UNL     1      -1.177 -11.130   2.507  0.00  0.00    -0.281 N 
ATOM     18  C   UNL     1      -0.929  -9.825   2.708  0.00  0.00    +0.249 C 
ATOM     19  O   UNL     1      -1.754  -8.928   2.684  0.00  0.00    -0.270 OA
ATOM     20  F   UNL     1       3.798 -13.425   3.056  0.00  0.00    -0.205 F 
ATOM     21  H   UNL     1      -2.054 -11.498   2.319  0.00  0.00    +0.155 HD
ENDBRANCH   3   9
BRANCH   1  23
ATOM     22  N   UNL     1      -0.620  -3.144   2.058  0.00  0.00    -0.313 N 
ATOM     23  C   UNL     1      -0.099  -3.667   3.185  0.00  0.00    +0.246 C 
ATOM     24  O   UNL     1       0.378  -2.936   4.031  0.00  0.00    -0.270 OA
ATOM     25  H   UNL     1      -1.000  -3.728   1.382  0.00  0.00    +0.149 HD
BRANCH  22  26
ATOM     26  C   UNL     1      -0.613  -1.694   1.852  0.00  0.00    +0.086 C 
BRANCH  26  27
ATOM     27  C   UNL     1      -1.259  -1.366   0.504  0.00  0.00    -0.060 C 
BRANCH  27  28
ATOM     28  N   UNL     1      -1.252   0.088   0.298  0.00  0.00    +0.380 N 
ATOM     29  H   UNL     1      -1.701   0.541   1.080  0.00  0.00    -0.082 HD
BRANCH  28  31
ATOM     30  C   UNL     1       0.149   2.088   0.115  0.00  0.00    -0.017 C 
ATOM     31  C   UNL     1       0.135   0.560   0.189  0.00  0.00    -0.082 C 
ENDBRANCH  28  31
BRANCH  28  32
ATOM     32  C   UNL     1      -1.978   0.411  -0.938  0.00  0.00    -0.082 C 
ATOM     33  C   UNL     1      -3.455   0.048  -0.771  0.00  0.00    -0.017 C 
ENDBRANCH  28  32
ENDBRANCH  27  28
ENDBRANCH  26  27
ENDBRANCH  22  26
ENDBRANCH   1  23
TORSDOF 7
