REMARK  Name = CHEMBL205372
REMARK  11 active torsions:
REMARK  status: ('A' for Active; 'I' for Inactive)
REMARK    1  A    between atoms: C_1  and  O_2
REMARK    2  A    between atoms: O_2  and  C_3
REMARK    3  A    between atoms: C_6  and  O_15
REMARK    4  A    between atoms: C_12  and  O_13
REMARK    5  A    between atoms: O_13  and  C_14
REMARK    6  A    between atoms: O_15  and  C_16
REMARK    7  A    between atoms: C_19  and  N_22
REMARK    8  A    between atoms: N_22  and  C_23
REMARK    9  A    between atoms: C_23  and  N_25
REMARK   10  A    between atoms: C_26  and  C_28
REMARK   11  A    between atoms: C_28  and  C_29
REMARK                            x       y       z     vdW  Elec       q    Type
REMARK                         _______ _______ _______ _____ _____    ______ ____
ROOT
ATOM      1  C   UNL     1      -5.981   2.210  -0.005  0.00  0.00    +0.129 A 
ATOM      2  C   UNL     1      -7.171   1.652   0.439  0.00  0.00    +0.048 A 
ATOM      3  C   UNL     1      -8.333   2.398   0.419  0.00  0.00    +0.027 A 
ATOM      4  C   UNL     1      -8.309   3.707  -0.043  0.00  0.00    +0.033 A 
ATOM      5  C   UNL     1      -7.117   4.265  -0.486  0.00  0.00    +0.027 A 
ATOM      6  C   UNL     1      -5.956   3.520  -0.462  0.00  0.00    +0.048 A 
ENDROOT
BRANCH   4   7
ATOM      7  N   UNL     1      -9.488   4.464  -0.063  0.00  0.00    -0.297 N 
ATOM      8  H   UNL     1      -9.713   4.990  -0.847  0.00  0.00    +0.154 HD
BRANCH   7   9
ATOM      9  C   UNL     1     -10.308   4.462   1.006  0.00  0.00    +0.141 C 
ATOM     10  S   UNL     1      -9.967   3.451   2.345  0.00  0.00    -0.018 S 
BRANCH   9  11
ATOM     11  N   UNL     1     -11.397   5.256   1.021  0.00  0.00    -0.267 N 
ATOM     12  C   UNL     1     -12.218   5.254   2.090  0.00  0.00    +0.223 C 
ATOM     13  O   UNL     1     -11.977   4.538   3.038  0.00  0.00    -0.275 OA
ATOM     14  H   UNL     1     -11.590   5.829   0.262  0.00  0.00    +0.157 HD
BRANCH  12  15
ATOM     15  C   UNL     1     -13.436   6.142   2.107  0.00  0.00    +0.131 C 
BRANCH  15  16
ATOM     16  C   UNL     1     -14.178   5.952   3.404  0.00  0.00    -0.039 A 
ATOM     17  C   UNL     1     -15.160   4.985   3.504  0.00  0.00    +0.004 A 
ATOM     18  C   UNL     1     -15.841   4.811   4.694  0.00  0.00    +0.000 A 
ATOM     19  C   UNL     1     -15.539   5.604   5.785  0.00  0.00    +0.000 A 
ATOM     20  C   UNL     1     -14.556   6.571   5.686  0.00  0.00    +0.000 A 
ATOM     21  C   UNL     1     -13.872   6.742   4.497  0.00  0.00    +0.004 A 
ENDBRANCH  15  16
ENDBRANCH  12  15
ENDBRANCH   9  11
ENDBRANCH   7   9
ENDBRANCH   4   7
BRANCH   1  22
ATOM     22  O   UNL     1      -4.837   1.475   0.015  0.00  0.00    -0.455 OA
BRANCH  22  26
ATOM     23  C   UNL     1      -1.268  -0.730  -0.248  0.00  0.00    +0.162 A 
ATOM     24  C   UNL     1      -2.413   0.003  -0.132  0.00  0.00    +0.063 A 
ATOM     25  C   UNL     1      -3.449  -0.176  -1.061  0.00  0.00    +0.044 A 
ATOM     26  C   UNL     1      -4.649   0.565  -0.973  0.00  0.00    +0.139 A 
ATOM     27  C   UNL     1      -5.626   0.334  -1.926  0.00  0.00    +0.064 A 
ATOM     28  C   UNL     1      -5.404  -0.605  -2.925  0.00  0.00    +0.086 A 
ATOM     29  N   UNL     1      -4.286  -1.288  -2.998  0.00  0.00    -0.360 N 
ATOM     30  C   UNL     1      -3.299  -1.115  -2.110  0.00  0.00    +0.054 A 
ATOM     31  C   UNL     1      -2.109  -1.855  -2.203  0.00  0.00    +0.075 A 
ATOM     32  C   UNL     1      -1.114  -1.657  -1.289  0.00  0.00    +0.163 A 
ATOM     33  H   UNL     1      -4.172  -1.934  -3.712  0.00  0.00    +0.165 HD
BRANCH  23  35
ATOM     34  C   UNL     1      -0.480   0.402   1.689  0.00  0.00    +0.277 C 
ATOM     35  O   UNL     1      -0.263  -0.556   0.652  0.00  0.00    -0.491 OA
ENDBRANCH  23  35
BRANCH  32  36
ATOM     36  O   UNL     1       0.038  -2.371  -1.386  0.00  0.00    -0.491 OA
ATOM     37  C   UNL     1       0.136  -3.300  -2.468  0.00  0.00    +0.277 C 
ENDBRANCH  32  36
ENDBRANCH  22  26
ENDBRANCH   1  22
TORSDOF 9
