REMARK  Name = CHEMBL203227
REMARK  9 active torsions:
REMARK  status: ('A' for Active; 'I' for Inactive)
REMARK    1  A    between atoms: C_1  and  C_2
REMARK    2  A    between atoms: C_7  and  C_8
REMARK    3  A    between atoms: N_13  and  C_14
REMARK    4  A    between atoms: C_17  and  O_20
REMARK    5  A    between atoms: O_20  and  C_21
REMARK    6  A    between atoms: C_28  and  O_33
REMARK    7  A    between atoms: C_29  and  O_31
REMARK    8  A    between atoms: O_31  and  C_32
REMARK    9  A    between atoms: O_33  and  C_34
REMARK                            x       y       z     vdW  Elec       q    Type
REMARK                         _______ _______ _______ _____ _____    ______ ____
ROOT
ATOM      1  C   UNL     1      -0.576   0.257   7.024  0.00  0.00    +0.035 A 
ATOM      2  C   UNL     1      -0.688   1.641   7.021  0.00  0.00    +0.027 A 
ATOM      3  C   UNL     1      -0.680   2.337   8.213  0.00  0.00    +0.048 A 
ATOM      4  C   UNL     1      -0.559   1.653   9.415  0.00  0.00    +0.129 A 
ATOM      5  C   UNL     1      -0.446   0.271   9.418  0.00  0.00    +0.048 A 
ATOM      6  C   UNL     1      -0.461  -0.427   8.227  0.00  0.00    +0.027 A 
ENDROOT
BRANCH   1  12
ATOM      7  C   UNL     1      -1.397  -3.704   4.604  0.00  0.00    +0.252 C 
ATOM      8  O   UNL     1      -1.888  -4.202   5.598  0.00  0.00    -0.270 OA
ATOM      9  N   UNL     1      -0.945  -2.435   4.640  0.00  0.00    -0.236 N 
ATOM     10  C   UNL     1      -1.037  -1.718   5.778  0.00  0.00    +0.310 C 
ATOM     11  O   UNL     1      -1.528  -2.217   6.772  0.00  0.00    -0.252 OA
ATOM     12  N   UNL     1      -0.585  -0.449   5.814  0.00  0.00    -0.269 N 
ATOM     13  H   UNL     1      -0.553  -2.037   3.847  0.00  0.00    +0.159 HD
ATOM     14  H   UNL     1      -0.265  -0.025   5.002  0.00  0.00    +0.156 HD
BRANCH   7  21
ATOM     15  C   UNL     1      -2.527  -6.365   4.494  0.00  0.00    +0.044 C 
ATOM     16  C   UNL     1      -1.837  -5.774   3.291  0.00  0.00    -0.038 A 
ATOM     17  C   UNL     1      -1.744  -6.500   2.121  0.00  0.00    +0.004 A 
ATOM     18  C   UNL     1      -1.112  -5.958   1.016  0.00  0.00    +0.000 A 
ATOM     19  C   UNL     1      -0.569  -4.687   1.076  0.00  0.00    +0.001 A 
ATOM     20  C   UNL     1      -0.654  -3.951   2.239  0.00  0.00    +0.013 A 
ATOM     21  C   UNL     1      -1.296  -4.489   3.356  0.00  0.00    +0.040 A 
ENDBRANCH   7  21
ENDBRANCH   1  12
BRANCH   4  22
ATOM     22  O   UNL     1      -0.550   2.339  10.589  0.00  0.00    -0.455 OA
BRANCH  22  23
ATOM     23  C   UNL     1       0.636   2.495  11.226  0.00  0.00    +0.139 A 
ATOM     24  C   UNL     1       1.819   2.069  10.647  0.00  0.00    +0.064 A 
ATOM     25  C   UNL     1       3.019   2.242  11.324  0.00  0.00    +0.086 A 
ATOM     26  N   UNL     1       3.070   2.803  12.510  0.00  0.00    -0.360 N 
ATOM     27  C   UNL     1       1.966   3.237  13.128  0.00  0.00    +0.054 A 
ATOM     28  C   UNL     1       0.704   3.102  12.500  0.00  0.00    +0.044 A 
ATOM     29  C   UNL     1      -0.452   3.564  13.149  0.00  0.00    +0.063 A 
ATOM     30  C   UNL     1      -0.349   4.146  14.379  0.00  0.00    +0.162 A 
ATOM     31  C   UNL     1       0.900   4.286  15.001  0.00  0.00    +0.163 A 
ATOM     32  C   UNL     1       2.038   3.834  14.398  0.00  0.00    +0.075 A 
ATOM     33  H   UNL     1       3.929   2.904  12.948  0.00  0.00    +0.165 HD
BRANCH  31  34
ATOM     34  O   UNL     1       0.977   4.870  16.226  0.00  0.00    -0.491 OA
ATOM     35  C   UNL     1       2.277   4.985  16.809  0.00  0.00    +0.277 C 
ENDBRANCH  31  34
BRANCH  30  36
ATOM     36  O   UNL     1      -1.468   4.593  15.008  0.00  0.00    -0.491 OA
ATOM     37  C   UNL     1      -2.710   4.421  14.322  0.00  0.00    +0.277 C 
ENDBRANCH  30  36
ENDBRANCH  22  23
ENDBRANCH   4  22
TORSDOF 6
