REMARK  Name = CHEMBL186718
REMARK  9 active torsions:
REMARK  status: ('A' for Active; 'I' for Inactive)
REMARK    1  A    between atoms: C_1  and  O_2
REMARK    2  A    between atoms: O_2  and  C_3
REMARK    3  A    between atoms: C_8  and  O_9
REMARK    4  A    between atoms: O_9  and  C_10
REMARK    5  A    between atoms: C_10  and  C_11
REMARK    6  A    between atoms: C_11  and  C_12
REMARK    7  A    between atoms: C_12  and  N_13
REMARK    8  A    between atoms: N_30  and  C_31
REMARK    9  A    between atoms: C_34  and  C_37
REMARK                            x       y       z     vdW  Elec       q    Type
REMARK                         _______ _______ _______ _____ _____    ______ ____
ROOT
ATOM      1  C   UNL     1      -1.116  -0.623   0.323  0.00  0.00    +0.162 A 
ATOM      2  C   UNL     1      -2.271   0.104   0.273  0.00  0.00    +0.062 A 
ATOM      3  C   UNL     1      -3.506  -0.555   0.242  0.00  0.00    +0.044 A 
ATOM      4  C   UNL     1      -3.550  -1.971   0.264  0.00  0.00    +0.080 A 
ATOM      5  C   UNL     1      -2.354  -2.697   0.316  0.00  0.00    +0.078 A 
ATOM      6  C   UNL     1      -1.153  -2.025   0.340  0.00  0.00    +0.164 A 
ATOM      7  N   UNL     1      -4.747  -2.579   0.232  0.00  0.00    -0.235 NA
ATOM      8  C   UNL     1      -5.851  -1.872   0.183  0.00  0.00    +0.223 A 
ATOM      9  N   UNL     1      -5.857  -0.549   0.161  0.00  0.00    -0.220 NA
ATOM     10  C   UNL     1      -4.731   0.151   0.188  0.00  0.00    +0.132 A 
ATOM     11  N   UNL     1      -4.753   1.530   0.165  0.00  0.00    -0.311 N 
ATOM     12  C   UNL     1      -4.623   2.259  -1.104  0.00  0.00    +0.128 C 
ATOM     13  C   UNL     1      -5.825   3.200  -1.254  0.00  0.00    +0.137 C 
ATOM     14  N   UNL     1      -5.979   3.966  -0.010  0.00  0.00    -0.350 N 
ATOM     15  C   UNL     1      -6.109   3.237   1.260  0.00  0.00    +0.137 C 
ATOM     16  C   UNL     1      -4.913   2.296   1.409  0.00  0.00    +0.128 C 
ATOM     17  C   UNL     1      -6.001   5.333  -0.033  0.00  0.00    +0.146 C 
ATOM     18  N   UNL     1      -6.049   6.036   1.140  0.00  0.00    -0.294 N 
ATOM     19  S   UNL     1      -5.970   6.139  -1.483  0.00  0.00    -0.016 SA
ATOM     20  H   UNL     1      -6.429   5.629   1.934  0.00  0.00    +0.154 HD
ENDROOT
BRANCH  18  21
ATOM     21  C   UNL     1      -5.549   7.341   1.194  0.00  0.00    +0.051 A 
ATOM     22  C   UNL     1      -4.474   7.718   0.391  0.00  0.00    +0.027 A 
ATOM     23  C   UNL     1      -4.012   9.018   0.476  0.00  0.00    +0.030 A 
ATOM     24  C   UNL     1      -4.633   9.903   1.356  0.00  0.00    +0.071 A 
ATOM     25  N   UNL     1      -5.655   9.508   2.105  0.00  0.00    -0.253 NA
ATOM     26  C   UNL     1      -6.123   8.278   2.044  0.00  0.00    +0.134 A 
BRANCH  24  27
ATOM     27  C   UNL     1      -4.147  11.300   1.457  0.00  0.00    +0.000 A 
ATOM     28  C   UNL     1      -3.078  11.727   0.671  0.00  0.00    +0.010 A 
ATOM     29  C   UNL     1      -2.629  13.028   0.769  0.00  0.00    +0.001 A 
ATOM     30  C   UNL     1      -3.239  13.909   1.645  0.00  0.00    +0.000 A 
ATOM     31  C   UNL     1      -4.300  13.490   2.428  0.00  0.00    +0.001 A 
ATOM     32  C   UNL     1      -4.761  12.193   2.333  0.00  0.00    +0.010 A 
ENDBRANCH  24  27
ENDBRANCH  18  21
BRANCH   1  34
ATOM     33  C   UNL     1       0.054   1.447   0.334  0.00  0.00    +0.277 C 
ATOM     34  O   UNL     1       0.082   0.018   0.353  0.00  0.00    -0.491 OA
ENDBRANCH   1  34
BRANCH   6  35
ATOM     35  O   UNL     1       0.010  -2.726   0.385  0.00  0.00    -0.488 OA
BRANCH  35  36
ATOM     36  C   UNL     1      -0.093  -4.152   0.400  0.00  0.00    +0.227 C 
BRANCH  36  37
ATOM     37  C   UNL     1       1.308  -4.764   0.452  0.00  0.00    +0.022 C 
BRANCH  37  38
ATOM     38  C   UNL     1       1.198  -6.290   0.468  0.00  0.00    -0.076 C 
BRANCH  38  39
ATOM     39  N   UNL     1       2.543  -6.877   0.517  0.00  0.00    +0.380 N 
ATOM     40  C   UNL     1       3.267  -6.544  -0.716  0.00  0.00    -0.079 C 
ATOM     41  C   UNL     1       4.696  -7.085  -0.634  0.00  0.00    -0.019 C 
ATOM     42  C   UNL     1       4.652  -8.606  -0.461  0.00  0.00    -0.004 C 
ATOM     43  C   UNL     1       3.831  -8.944   0.787  0.00  0.00    -0.019 C 
ATOM     44  C   UNL     1       2.434  -8.335   0.653  0.00  0.00    -0.079 C 
ATOM     45  H   UNL     1       3.043  -6.503   1.310  0.00  0.00    -0.082 HD
ENDBRANCH  38  39
ENDBRANCH  37  38
ENDBRANCH  36  37
ENDBRANCH  35  36
ENDBRANCH   6  35
TORSDOF 8
