REMARK  Name = CHEMBL505830
REMARK  9 active torsions:
REMARK  status: ('A' for Active; 'I' for Inactive)
REMARK    1  A    between atoms: C_1  and  N_2
REMARK    2  A    between atoms: N_5  and  C_8
REMARK    3  A    between atoms: C_8  and  C_9
REMARK    4  A    between atoms: C_9  and  C_10
REMARK    5  A    between atoms: C_13  and  N_16
REMARK    6  A    between atoms: C_23  and  C_37
REMARK    7  A    between atoms: N_25  and  C_28
REMARK    8  A    between atoms: N_39  and  O_40
REMARK    9  A    between atoms: O_40  and  C_41
REMARK                            x       y       z     vdW  Elec       q    Type
REMARK                         _______ _______ _______ _____ _____    ______ ____
ROOT
ATOM      1  N   UNL     1      -0.178 -10.147   3.115  0.00  0.00    -0.284 N 
ATOM      2  C   UNL     1       0.867 -10.800   2.491  0.00  0.00    +0.221 A 
ATOM      3  N   UNL     1       1.894 -10.084   2.047  0.00  0.00    -0.222 NA
ATOM      4  C   UNL     1       2.918 -10.662   1.445  0.00  0.00    +0.129 A 
ATOM      5  C   UNL     1       2.898 -12.048   1.284  0.00  0.00    +0.083 A 
ATOM      6  C   UNL     1       3.995 -12.773   0.626  0.00  0.00    +0.205 A 
ATOM      7  O   UNL     1       4.973 -12.189   0.191  0.00  0.00    -0.286 OA
ATOM      8  C   UNL     1       3.861 -14.236   0.515  0.00  0.00    +0.102 A 
ATOM      9  C   UNL     1       2.733 -14.841   1.025  0.00  0.00    +0.110 A 
ATOM     10  N   UNL     1       1.750 -14.143   1.620  0.00  0.00    -0.300 N 
ATOM     11  C   UNL     1       1.794 -12.779   1.766  0.00  0.00    +0.154 A 
ATOM     12  N   UNL     1       0.809 -12.117   2.364  0.00  0.00    -0.196 NA
ATOM     13  H   UNL     1      -0.900 -10.657   3.515  0.00  0.00    +0.155 HD
ENDROOT
BRANCH  10  14
ATOM     14  C   UNL     1       0.637 -14.836   2.112  0.00  0.00    +0.048 A 
ATOM     15  C   UNL     1       0.798 -15.812   3.086  0.00  0.00    +0.026 A 
ATOM     16  C   UNL     1      -0.302 -16.491   3.567  0.00  0.00    +0.006 A 
ATOM     17  C   UNL     1      -1.568 -16.204   3.082  0.00  0.00    -0.044 A 
ATOM     18  C   UNL     1      -1.732 -15.233   2.112  0.00  0.00    -0.042 A 
ATOM     19  C   UNL     1      -0.632 -14.545   1.631  0.00  0.00    +0.030 A 
ATOM     20  C   UNL     1      -3.197 -15.110   1.754  0.00  0.00    +0.036 C 
ATOM     21  C   UNL     1      -3.853 -16.402   2.284  0.00  0.00    +0.009 C 
ATOM     22  C   UNL     1      -2.913 -16.800   3.442  0.00  0.00    +0.036 C 
ENDBRANCH  10  14
BRANCH   1  26
ATOM     23  C   UNL     1      -0.234  -5.985   3.275  0.00  0.00    -0.046 A 
ATOM     24  C   UNL     1       0.303  -6.626   2.174  0.00  0.00    +0.005 A 
ATOM     25  C   UNL     1       0.323  -8.005   2.118  0.00  0.00    +0.023 A 
ATOM     26  C   UNL     1      -0.197  -8.750   3.169  0.00  0.00    +0.034 A 
ATOM     27  C   UNL     1      -0.736  -8.103   4.273  0.00  0.00    +0.023 A 
ATOM     28  C   UNL     1      -0.749  -6.723   4.326  0.00  0.00    +0.005 A 
BRANCH  23  29
ATOM     29  C   UNL     1      -0.255  -4.479   3.333  0.00  0.00    +0.050 C 
BRANCH  29  30
ATOM     30  C   UNL     1       1.036  -3.977   3.983  0.00  0.00    +0.089 C 
BRANCH  30  35
ATOM     31  C   UNL     1       1.217   1.484   5.359  0.00  0.00    -0.096 C 
ATOM     32  N   UNL     1       1.248   0.015   5.356  0.00  0.00    +0.379 N 
ATOM     33  C   UNL     1       2.284  -0.450   4.425  0.00  0.00    -0.064 C 
ATOM     34  C   UNL     1       2.330  -1.980   4.436  0.00  0.00    +0.066 C 
ATOM     35  N   UNL     1       1.017  -2.509   4.040  0.00  0.00    -0.306 NA
ATOM     36  C   UNL     1      -0.035  -2.031   4.948  0.00  0.00    +0.066 C 
ATOM     37  C   UNL     1      -0.061  -0.501   4.933  0.00  0.00    -0.064 C 
ATOM     38  H   UNL     1       1.456  -0.318   6.285  0.00  0.00    -0.082 HD
ENDBRANCH  30  35
ENDBRANCH  29  30
ENDBRANCH  23  29
ENDBRANCH   1  26
BRANCH   8  39
ATOM     39  C   UNL     1       4.913 -15.037  -0.130  0.00  0.00    +0.272 C 
ATOM     40  O   UNL     1       4.746 -16.229  -0.309  0.00  0.00    -0.268 OA
ATOM     41  N   UNL     1       6.062 -14.451  -0.521  0.00  0.00    -0.191 N 
ATOM     42  H   UNL     1       6.228 -13.520  -0.307  0.00  0.00    +0.183 HD
BRANCH  41  43
ATOM     43  O   UNL     1       7.026 -15.195  -1.244  0.00  0.00    -0.283 OA
ATOM     44  C   UNL     1       8.193 -14.449  -1.593  0.00  0.00    +0.226 C 
ENDBRANCH  41  43
ENDBRANCH   8  39
TORSDOF 7
