REMARK  Name = CHEMBL153843
REMARK  6 active torsions:
REMARK  status: ('A' for Active; 'I' for Inactive)
REMARK    1  A    between atoms: C_4  and  N_20
REMARK    2  A    between atoms: C_5  and  C_7
REMARK    3  A    between atoms: N_9  and  C_10
REMARK    4  A    between atoms: C_14  and  C_16
REMARK    5  A    between atoms: N_20  and  C_21
REMARK    6  A    between atoms: C_21  and  C_22
REMARK                            x       y       z     vdW  Elec       q    Type
REMARK                         _______ _______ _______ _____ _____    ______ ____
ROOT
ATOM      1  C   UNL     1      -0.004   1.283   0.042  0.00  0.00    +0.001 A 
ATOM      2  C   UNL     1       1.142   2.039  -0.147  0.00  0.00    +0.002 A 
ATOM      3  C   UNL     1       2.358   1.423  -0.358  0.00  0.00    +0.024 A 
ATOM      4  C   UNL     1       2.441   0.036  -0.382  0.00  0.00    +0.040 A 
ATOM      5  C   UNL     1       1.282  -0.732  -0.191  0.00  0.00    +0.058 A 
ATOM      6  C   UNL     1       0.058  -0.093   0.022  0.00  0.00    +0.015 A 
ENDROOT
BRANCH   5   7
ATOM      7  C   UNL     1       1.356  -2.204  -0.214  0.00  0.00    +0.250 C 
ATOM      8  O   UNL     1       2.436  -2.757  -0.293  0.00  0.00    -0.270 OA
ATOM      9  N   UNL     1       0.227  -2.937  -0.149  0.00  0.00    -0.281 N 
ATOM     10  H   UNL     1      -0.638  -2.497  -0.162  0.00  0.00    +0.155 HD
BRANCH   9  11
ATOM     11  C   UNL     1       0.301  -4.330  -0.062  0.00  0.00    +0.034 A 
ATOM     12  C   UNL     1      -0.674  -5.118  -0.661  0.00  0.00    +0.023 A 
ATOM     13  C   UNL     1      -0.597  -6.494  -0.573  0.00  0.00    +0.002 A 
ATOM     14  C   UNL     1       0.449  -7.088   0.109  0.00  0.00    +0.012 A 
ATOM     15  C   UNL     1       1.421  -6.307   0.707  0.00  0.00    +0.057 A 
ATOM     16  C   UNL     1       1.353  -4.930   0.618  0.00  0.00    +0.035 A 
BRANCH  15  17
ATOM     17  C   UNL     1       2.558  -6.958   1.450  0.00  0.00    +0.417 C 
ATOM     18  F   UNL     1       2.414  -8.349   1.397  0.00  0.00    -0.166 F 
ATOM     19  F   UNL     1       3.772  -6.593   0.858  0.00  0.00    -0.166 F 
ATOM     20  F   UNL     1       2.545  -6.538   2.784  0.00  0.00    -0.166 F 
ENDBRANCH  15  17
ENDBRANCH   9  11
ENDBRANCH   5   7
BRANCH   4  21
ATOM     21  N   UNL     1       3.664  -0.586  -0.595  0.00  0.00    -0.339 N 
ATOM     22  H   UNL     1       3.736  -1.551  -0.525  0.00  0.00    +0.146 HD
BRANCH  21  23
ATOM     23  C   UNL     1       4.846   0.214  -0.923  0.00  0.00    +0.137 C 
BRANCH  23  24
ATOM     24  C   UNL     1       6.035  -0.695  -1.103  0.00  0.00    -0.028 A 
ATOM     25  C   UNL     1       6.845  -1.025  -0.028  0.00  0.00    +0.025 A 
ATOM     26  C   UNL     1       7.926  -1.862  -0.231  0.00  0.00    +0.111 A 
ATOM     27  N   UNL     1       8.190  -2.343  -1.430  0.00  0.00    -0.263 NA
ATOM     28  C   UNL     1       7.442  -2.050  -2.475  0.00  0.00    +0.111 A 
ATOM     29  C   UNL     1       6.341  -1.225  -2.347  0.00  0.00    +0.025 A 
ENDBRANCH  23  24
ENDBRANCH  21  23
ENDBRANCH   4  21
TORSDOF 6
