REMARK  Name = CHEMBL247248
REMARK  7 active torsions:
REMARK  status: ('A' for Active; 'I' for Inactive)
REMARK    1  A    between atoms: C_1  and  N_2
REMARK    2  A    between atoms: C_3  and  C_5
REMARK    3  A    between atoms: C_7  and  C_11
REMARK    4  A    between atoms: C_11  and  N_12
REMARK    5  A    between atoms: N_12  and  C_13
REMARK    6  A    between atoms: C_14  and  C_18
REMARK    7  A    between atoms: N_20  and  C_21
REMARK                            x       y       z     vdW  Elec       q    Type
REMARK                         _______ _______ _______ _____ _____    ______ ____
ROOT
ATOM      1  C   UNL     1      -5.151  -6.055  -1.634  0.00  0.00    +0.138 A 
ATOM      2  C   UNL     1      -5.588  -6.325  -2.934  0.00  0.00    +0.115 A 
ATOM      3  S   UNL     1      -7.064  -7.270  -2.590  0.00  0.00    -0.069 S 
ATOM      4  C   UNL     1      -6.983  -7.230  -0.910  0.00  0.00    +0.158 A 
ATOM      5  N   UNL     1      -5.894  -6.542  -0.664  0.00  0.00    -0.232 NA
ENDROOT
BRANCH   2   6
ATOM      6  C   UNL     1      -5.019  -5.954  -4.176  0.00  0.00    +0.258 C 
ATOM      7  O   UNL     1      -3.994  -5.298  -4.204  0.00  0.00    -0.269 OA
ATOM      8  N   UNL     1      -5.614  -6.326  -5.327  0.00  0.00    -0.281 N 
ATOM      9  H   UNL     1      -6.392  -6.904  -5.306  0.00  0.00    +0.155 HD
BRANCH   8  10
ATOM     10  C   UNL     1      -5.107  -5.878  -6.553  0.00  0.00    +0.037 A 
ATOM     11  C   UNL     1      -5.973  -5.590  -7.599  0.00  0.00    +0.027 A 
ATOM     12  C   UNL     1      -5.475  -5.148  -8.809  0.00  0.00    +0.051 A 
ATOM     13  C   UNL     1      -4.109  -4.990  -8.983  0.00  0.00    +0.173 A 
ATOM     14  C   UNL     1      -3.237  -5.278  -7.935  0.00  0.00    +0.174 A 
ATOM     15  C   UNL     1      -3.738  -5.715  -6.721  0.00  0.00    +0.073 A 
ATOM     16  O   UNL     1      -1.959  -5.044  -8.355  0.00  0.00    -0.395 OA
ATOM     17  C   UNL     1      -2.027  -5.003  -9.792  0.00  0.00    +0.589 C 
ATOM     18  O   UNL     1      -3.376  -4.576 -10.059  0.00  0.00    -0.395 OA
ATOM     19  F   UNL     1      -1.109  -4.079 -10.302  0.00  0.00    -0.125 F 
ATOM     20  F   UNL     1      -1.799  -6.274 -10.332  0.00  0.00    -0.125 F 
ENDBRANCH   8  10
ENDBRANCH   2   6
BRANCH   1  21
ATOM     21  N   UNL     1      -3.999  -5.321  -1.383  0.00  0.00    -0.324 N 
ATOM     22  H   UNL     1      -3.473  -4.975  -2.120  0.00  0.00    +0.148 HD
BRANCH  21  23
ATOM     23  C   UNL     1      -3.579  -5.068  -0.002  0.00  0.00    +0.138 C 
BRANCH  23  26
ATOM     24  C   UNL     1      -1.160  -2.155   0.005  0.00  0.00    +0.126 A 
ATOM     25  C   UNL     1      -2.355  -2.871   0.007  0.00  0.00    +0.038 A 
ATOM     26  C   UNL     1      -2.310  -4.256  -0.004  0.00  0.00    -0.027 A 
ATOM     27  C   UNL     1      -1.070  -4.877  -0.016  0.00  0.00    +0.025 A 
ATOM     28  C   UNL     1       0.078  -4.102  -0.017  0.00  0.00    +0.112 A 
ATOM     29  N   UNL     1       0.006  -2.788  -0.012  0.00  0.00    -0.250 NA
BRANCH  24  32
ATOM     30  C   UNL     1      -0.068   1.489   0.021  0.00  0.00    +0.128 C 
ATOM     31  N   UNL     1      -0.038   0.025   0.010  0.00  0.00    -0.313 N 
ATOM     32  C   UNL     1      -1.190  -0.673   0.017  0.00  0.00    +0.262 C 
ATOM     33  O   UNL     1      -2.255  -0.088   0.033  0.00  0.00    -0.269 OA
ATOM     34  H   UNL     1       0.812  -0.443  -0.003  0.00  0.00    +0.149 HD
ENDBRANCH  24  32
ENDBRANCH  23  26
ENDBRANCH  21  23
ENDBRANCH   1  21
TORSDOF 6
