REMARK  Name = CHEMBL493670
REMARK  8 active torsions:
REMARK  status: ('A' for Active; 'I' for Inactive)
REMARK    1  A    between atoms: C_1  and  C_2
REMARK    2  A    between atoms: C_5  and  C_22
REMARK    3  A    between atoms: C_7  and  C_8
REMARK    4  A    between atoms: C_17  and  O_18
REMARK    5  A    between atoms: O_18  and  C_19
REMARK    6  A    between atoms: C_19  and  C_20
REMARK    7  A    between atoms: C_19  and  C_21
REMARK    8  A    between atoms: N_24  and  C_25
REMARK                            x       y       z     vdW  Elec       q    Type
REMARK                         _______ _______ _______ _____ _____    ______ ____
ROOT
ATOM      1  C   UNL     1      -0.018   1.503   0.010  0.00  0.00    +0.044 C 
ATOM      2  C   UNL     1       0.002  -0.004   0.002  0.00  0.00    -0.043 A 
ATOM      3  C   UNL     1       0.006  -0.686  -1.199  0.00  0.00    +0.005 A 
ATOM      4  C   UNL     1       0.024  -2.067  -1.216  0.00  0.00    +0.013 A 
ATOM      5  C   UNL     1       0.040  -2.781  -0.016  0.00  0.00    +0.037 A 
ATOM      6  C   UNL     1       0.037  -2.097   1.199  0.00  0.00    +0.021 A 
ATOM      7  C   UNL     1       0.023  -0.706   1.207  0.00  0.00    -0.014 A 
ENDROOT
BRANCH   7   8
ATOM      8  C   UNL     1       0.025   0.030   2.495  0.00  0.00    -0.017 A 
ATOM      9  C   UNL     1       0.943   1.072   2.699  0.00  0.00    +0.009 A 
ATOM     10  C   UNL     1       0.967   1.764   3.871  0.00  0.00    +0.014 A 
ATOM     11  C   UNL     1       0.065   1.435   4.890  0.00  0.00    +0.047 A 
ATOM     12  C   UNL     1      -0.869   0.383   4.695  0.00  0.00    +0.008 A 
ATOM     13  C   UNL     1      -0.883  -0.315   3.482  0.00  0.00    +0.018 A 
ATOM     14  C   UNL     1      -1.756   0.089   5.748  0.00  0.00    +0.143 A 
ATOM     15  N   UNL     1      -1.685   0.792   6.856  0.00  0.00    -0.154 NA
ATOM     16  N   UNL     1      -0.845   1.742   7.037  0.00  0.00    -0.111 NA
ATOM     17  C   UNL     1       0.037   2.112   6.128  0.00  0.00    +0.242 A 
BRANCH  17  18
ATOM     18  O   UNL     1       0.901   3.126   6.378  0.00  0.00    -0.472 OA
BRANCH  18  19
ATOM     19  C   UNL     1       0.806   3.759   7.656  0.00  0.00    +0.169 C 
ATOM     20  C   UNL     1       2.184   4.280   8.071  0.00  0.00    +0.051 C 
ATOM     21  C   UNL     1      -0.178   4.927   7.574  0.00  0.00    +0.051 C 
ENDBRANCH  18  19
ENDBRANCH  17  18
ENDBRANCH   7   8
BRANCH   5  22
ATOM     22  C   UNL     1       0.059  -4.259  -0.034  0.00  0.00    +0.244 C 
ATOM     23  O   UNL     1       0.072  -4.880   1.012  0.00  0.00    -0.270 OA
ATOM     24  N   UNL     1       0.061  -4.919  -1.209  0.00  0.00    -0.308 N 
ATOM     25  H   UNL     1       0.051  -4.424  -2.043  0.00  0.00    +0.149 HD
BRANCH  24  26
ATOM     26  C   UNL     1       0.080  -6.384  -1.226  0.00  0.00    +0.073 C 
ATOM     27  C   UNL     1       1.020  -7.066  -2.222  0.00  0.00    +0.024 C 
ATOM     28  C   UNL     1      -0.491  -7.083  -2.462  0.00  0.00    +0.024 C 
ENDBRANCH  24  26
ENDBRANCH   5  22
TORSDOF 5
