REMARK  Name = CHEMBL376307
REMARK  4 active torsions:
REMARK  status: ('A' for Active; 'I' for Inactive)
REMARK    1  A    between atoms: C_3  and  C_12
REMARK    2  A    between atoms: C_10  and  N_11
REMARK    3  A    between atoms: C_15  and  N_18
REMARK    4  A    between atoms: N_21  and  C_22
REMARK                            x       y       z     vdW  Elec       q    Type
REMARK                         _______ _______ _______ _____ _____    ______ ____
ROOT
ATOM      1  C   UNL     1       3.579   2.417   0.205  0.00  0.00    -0.017 A 
ATOM      2  C   UNL     1       4.545   2.300   1.204  0.00  0.00    +0.010 A 
ATOM      3  C   UNL     1       5.697   3.054   1.139  0.00  0.00    +0.024 A 
ATOM      4  C   UNL     1       5.896   3.930   0.078  0.00  0.00    +0.035 A 
ATOM      5  C   UNL     1       4.935   4.049  -0.919  0.00  0.00    +0.024 A 
ATOM      6  C   UNL     1       3.784   3.293  -0.862  0.00  0.00    +0.010 A 
ENDROOT
BRANCH   1   9
ATOM      7  C   UNL     1      -0.071   1.452   0.179  0.00  0.00    +0.003 A 
ATOM      8  C   UNL     1       1.101   2.200   0.118  0.00  0.00    +0.009 A 
ATOM      9  C   UNL     1       2.340   1.608   0.272  0.00  0.00    -0.005 A 
ATOM     10  C   UNL     1       2.402   0.167   0.503  0.00  0.00    +0.049 A 
ATOM     11  C   UNL     1       1.141  -0.588   0.560  0.00  0.00    +0.095 A 
ATOM     12  C   UNL     1      -0.073   0.112   0.390  0.00  0.00    +0.030 A 
ATOM     13  N   UNL     1       1.462  -1.851   0.775  0.00  0.00    -0.172 NA
ATOM     14  H   UNL     1       3.338  -2.789   1.015  0.00  0.00    +0.190 HD
ATOM     15  N   UNL     1       2.854  -1.963   0.861  0.00  0.00    -0.263 N 
ATOM     16  C   UNL     1       3.422  -0.755   0.698  0.00  0.00    +0.120 A 
BRANCH  16  17
ATOM     17  N   UNL     1       4.781  -0.479   0.721  0.00  0.00    -0.343 N 
ATOM     18  H   UNL     1       5.093   0.430   0.592  0.00  0.00    +0.144 HD
ATOM     19  H   UNL     1       5.419  -1.195   0.865  0.00  0.00    +0.144 HD
ENDBRANCH  16  17
ENDBRANCH   1   9
BRANCH   4  20
ATOM     20  N   UNL     1       7.065   4.694   0.015  0.00  0.00    -0.269 N 
ATOM     21  C   UNL     1       8.225   4.192   0.484  0.00  0.00    +0.308 C 
ATOM     22  O   UNL     1       8.274   3.042   0.877  0.00  0.00    -0.252 OA
ATOM     23  N   UNL     1       9.328   4.965   0.519  0.00  0.00    -0.269 N 
ATOM     24  H   UNL     1       7.042   5.585  -0.368  0.00  0.00    +0.156 HD
ATOM     25  H   UNL     1       9.273   5.901   0.272  0.00  0.00    +0.156 HD
BRANCH  23  26
ATOM     26  C   UNL     1      10.562   4.412   0.914  0.00  0.00    +0.042 A 
ATOM     27  C   UNL     1      11.749   4.883   0.377  0.00  0.00    +0.031 A 
ATOM     28  C   UNL     1      12.918   4.328   0.781  0.00  0.00    +0.047 A 
ATOM     29  S   UNL     1      12.363   3.103   1.955  0.00  0.00    -0.103 S 
ATOM     30  C   UNL     1      10.609   3.413   1.834  0.00  0.00    +0.068 A 
ENDBRANCH  23  26
ENDBRANCH   4  20
TORSDOF 4
