REMARK  Name = CHEMBL204225
REMARK  10 active torsions:
REMARK  status: ('A' for Active; 'I' for Inactive)
REMARK    1  A    between atoms: C_1  and  O_2
REMARK    2  A    between atoms: O_2  and  C_3
REMARK    3  A    between atoms: C_8  and  O_9
REMARK    4  A    between atoms: O_9  and  C_10
REMARK    5  A    between atoms: C_14  and  O_15
REMARK    6  A    between atoms: O_15  and  C_16
REMARK    7  A    between atoms: C_19  and  N_22
REMARK    8  A    between atoms: N_25  and  C_26
REMARK    9  A    between atoms: C_26  and  C_27
REMARK   10  A    between atoms: C_27  and  C_28
REMARK                            x       y       z     vdW  Elec       q    Type
REMARK                         _______ _______ _______ _____ _____    ______ ____
ROOT
ATOM      1  C   UNL     1      -5.989   2.212  -0.007  0.00  0.00    +0.131 A 
ATOM      2  C   UNL     1      -7.212   1.558   0.041  0.00  0.00    +0.048 A 
ATOM      3  C   UNL     1      -8.386   2.287   0.022  0.00  0.00    +0.027 A 
ATOM      4  C   UNL     1      -8.341   3.673  -0.044  0.00  0.00    +0.035 A 
ATOM      5  C   UNL     1      -7.117   4.326  -0.090  0.00  0.00    +0.027 A 
ATOM      6  C   UNL     1      -5.944   3.597  -0.067  0.00  0.00    +0.048 A 
ENDROOT
BRANCH   4   7
ATOM      7  N   UNL     1      -9.531   4.412  -0.063  0.00  0.00    -0.269 N 
ATOM      8  C   UNL     1     -10.599   3.989   0.642  0.00  0.00    +0.304 C 
ATOM      9  O   UNL     1     -10.557   2.924   1.228  0.00  0.00    -0.253 OA
ATOM     10  N   UNL     1     -11.712   4.746   0.699  0.00  0.00    -0.299 N 
ATOM     11  H   UNL     1      -9.587   5.228  -0.584  0.00  0.00    +0.156 HD
ATOM     12  H   UNL     1     -11.745   5.596   0.232  0.00  0.00    +0.150 HD
BRANCH  10  13
ATOM     13  C   UNL     1     -12.873   4.287   1.466  0.00  0.00    +0.106 C 
BRANCH  13  14
ATOM     14  C   UNL     1     -13.993   5.324   1.366  0.00  0.00    +0.022 C 
BRANCH  14  15
ATOM     15  C   UNL     1     -15.205   4.843   2.167  0.00  0.00    -0.010 C 
ATOM     16  C   UNL     1     -15.770   3.575   1.526  0.00  0.00    +0.003 C 
ATOM     17  C   UNL     1     -16.982   3.094   2.326  0.00  0.00    +0.000 C 
ATOM     18  C   UNL     1     -18.055   4.185   2.331  0.00  0.00    +0.000 C 
ATOM     19  C   UNL     1     -17.490   5.454   2.973  0.00  0.00    +0.000 C 
ATOM     20  C   UNL     1     -16.278   5.934   2.172  0.00  0.00    +0.003 C 
ENDBRANCH  14  15
ENDBRANCH  13  14
ENDBRANCH  10  13
ENDBRANCH   4   7
BRANCH   1  21
ATOM     21  O   UNL     1      -4.835   1.494   0.012  0.00  0.00    -0.437 OA
BRANCH  21  31
ATOM     22  C   UNL     1      -1.148  -0.528  -0.258  0.00  0.00    +0.162 A 
ATOM     23  C   UNL     1      -2.333   0.140  -0.128  0.00  0.00    +0.064 A 
ATOM     24  C   UNL     1      -3.231   0.173  -1.202  0.00  0.00    +0.066 A 
ATOM     25  C   UNL     1      -2.907  -0.484  -2.416  0.00  0.00    +0.082 A 
ATOM     26  C   UNL     1      -1.687  -1.162  -2.526  0.00  0.00    +0.078 A 
ATOM     27  C   UNL     1      -0.818  -1.175  -1.457  0.00  0.00    +0.164 A 
ATOM     28  N   UNL     1      -3.785  -0.436  -3.429  0.00  0.00    -0.235 NA
ATOM     29  C   UNL     1      -4.920   0.207  -3.295  0.00  0.00    +0.225 A 
ATOM     30  N   UNL     1      -5.263   0.835  -2.180  0.00  0.00    -0.201 NA
ATOM     31  C   UNL     1      -4.470   0.849  -1.120  0.00  0.00    +0.231 A 
BRANCH  22  33
ATOM     32  C   UNL     1      -0.669   0.119   1.980  0.00  0.00    +0.277 C 
ATOM     33  O   UNL     1      -0.277  -0.559   0.785  0.00  0.00    -0.491 OA
ENDBRANCH  22  33
BRANCH  27  34
ATOM     34  O   UNL     1       0.368  -1.828  -1.564  0.00  0.00    -0.491 OA
ATOM     35  C   UNL     1       0.647  -2.468  -2.811  0.00  0.00    +0.277 C 
ENDBRANCH  27  34
ENDBRANCH  21  31
ENDBRANCH   1  21
TORSDOF 8
