REMARK  Name = CHEMBL124035
REMARK  12 active torsions:
REMARK  status: ('A' for Active; 'I' for Inactive)
REMARK    1  A    between atoms: C_1  and  C_2
REMARK    2  A    between atoms: C_2  and  C_3
REMARK    3  A    between atoms: C_2  and  O_4
REMARK    4  A    between atoms: O_4  and  C_5
REMARK    5  A    between atoms: C_8  and  N_11
REMARK    6  A    between atoms: C_23  and  O_35
REMARK    7  A    between atoms: C_24  and  O_30
REMARK    8  A    between atoms: O_30  and  C_31
REMARK    9  A    between atoms: C_31  and  C_32
REMARK   10  A    between atoms: C_32  and  O_33
REMARK   11  A    between atoms: O_33  and  C_34
REMARK   12  A    between atoms: O_35  and  C_36
REMARK                            x       y       z     vdW  Elec       q    Type
REMARK                         _______ _______ _______ _____ _____    ______ ____
ROOT
ATOM      1  N   UNL     1      -2.405  -1.725   5.562  0.00  0.00    -0.269 N 
ATOM      2  C   UNL     1      -1.820  -2.121   6.710  0.00  0.00    +0.307 C 
ATOM      3  O   UNL     1      -0.615  -2.282   6.755  0.00  0.00    -0.252 OA
ATOM      4  N   UNL     1      -2.570  -2.341   7.808  0.00  0.00    -0.282 N 
ATOM      5  C   UNL     1      -4.037  -2.335   7.725  0.00  0.00    +0.128 C 
ATOM      6  C   UNL     1      -4.564  -3.664   8.281  0.00  0.00    +0.125 C 
ATOM      7  N   UNL     1      -3.930  -3.913   9.583  0.00  0.00    -0.312 N 
ATOM      8  C   UNL     1      -2.462  -3.918   9.666  0.00  0.00    +0.125 C 
ATOM      9  C   UNL     1      -1.935  -2.595   9.109  0.00  0.00    +0.128 C 
ATOM     10  C   UNL     1      -4.698  -4.137  10.707  0.00  0.00    +0.132 A 
ATOM     11  C   UNL     1      -5.015  -5.453  11.119  0.00  0.00    +0.044 A 
ATOM     12  C   UNL     1      -4.570  -6.578  10.414  0.00  0.00    +0.062 A 
ATOM     13  C   UNL     1      -4.904  -7.827  10.853  0.00  0.00    +0.162 A 
ATOM     14  C   UNL     1      -5.688  -7.997  12.003  0.00  0.00    +0.164 A 
ATOM     15  C   UNL     1      -6.138  -6.907  12.714  0.00  0.00    +0.078 A 
ATOM     16  C   UNL     1      -5.807  -5.616  12.282  0.00  0.00    +0.080 A 
ATOM     17  N   UNL     1      -6.220  -4.522  12.940  0.00  0.00    -0.235 NA
ATOM     18  C   UNL     1      -5.895  -3.325  12.511  0.00  0.00    +0.223 A 
ATOM     19  N   UNL     1      -5.153  -3.125  11.433  0.00  0.00    -0.220 NA
ATOM     20  H   UNL     1      -3.372  -1.707   5.492  0.00  0.00    +0.156 HD
ENDROOT
BRANCH   1  24
ATOM     21  C   UNL     1      -0.056  -0.576   2.314  0.00  0.00    +0.121 A 
ATOM     22  C   UNL     1      -1.333  -0.057   2.464  0.00  0.00    +0.047 A 
ATOM     23  C   UNL     1      -2.112  -0.437   3.539  0.00  0.00    +0.027 A 
ATOM     24  C   UNL     1      -1.615  -1.339   4.470  0.00  0.00    +0.035 A 
ATOM     25  C   UNL     1      -0.337  -1.859   4.320  0.00  0.00    +0.027 A 
ATOM     26  C   UNL     1       0.439  -1.481   3.241  0.00  0.00    +0.047 A 
BRANCH  21  27
ATOM     27  O   UNL     1       0.710  -0.201   1.255  0.00  0.00    -0.489 OA
BRANCH  27  29
ATOM     28  C   UNL     1       1.885  -2.213   0.613  0.00  0.00    +0.051 C 
ATOM     29  C   UNL     1       2.010  -0.787   1.154  0.00  0.00    +0.167 C 
ATOM     30  C   UNL     1       2.873   0.045   0.204  0.00  0.00    +0.051 C 
ENDBRANCH  27  29
ENDBRANCH  21  27
ENDBRANCH   1  24
BRANCH  13  31
ATOM     31  O   UNL     1      -4.471  -8.919  10.168  0.00  0.00    -0.491 OA
ATOM     32  C   UNL     1      -3.676  -8.681   9.004  0.00  0.00    +0.277 C 
ENDBRANCH  13  31
BRANCH  14  33
ATOM     33  O   UNL     1      -6.008  -9.249  12.420  0.00  0.00    -0.486 OA
BRANCH  33  34
ATOM     34  C   UNL     1      -6.809  -9.357  13.598  0.00  0.00    +0.257 C 
BRANCH  34  35
ATOM     35  C   UNL     1      -7.064 -10.833  13.909  0.00  0.00    +0.200 C 
BRANCH  35  36
ATOM     36  O   UNL     1      -5.827 -11.471  14.234  0.00  0.00    -0.380 OA
ATOM     37  C   UNL     1      -5.954 -12.861  14.543  0.00  0.00    +0.194 C 
ENDBRANCH  35  36
ENDBRANCH  34  35
ENDBRANCH  33  34
ENDBRANCH  14  33
TORSDOF 8
