REMARK  Name = CHEMBL247435
REMARK  8 active torsions:
REMARK  status: ('A' for Active; 'I' for Inactive)
REMARK    1  A    between atoms: C_1  and  N_2
REMARK    2  A    between atoms: C_3  and  C_5
REMARK    3  A    between atoms: C_7  and  C_11
REMARK    4  A    between atoms: C_11  and  N_12
REMARK    5  A    between atoms: N_12  and  C_13
REMARK    6  A    between atoms: C_14  and  C_19
REMARK    7  A    between atoms: N_17  and  C_18
REMARK    8  A    between atoms: N_21  and  C_22
REMARK                            x       y       z     vdW  Elec       q    Type
REMARK                         _______ _______ _______ _____ _____    ______ ____
ROOT
ATOM      1  C   UNL     1      -5.440  -6.139  -1.562  0.00  0.00    +0.127 A 
ATOM      2  C   UNL     1      -5.777  -6.582  -2.839  0.00  0.00    +0.094 A 
ATOM      3  C   UNL     1      -6.712  -7.632  -2.678  0.00  0.00    +0.118 A 
ATOM      4  N   UNL     1      -6.917  -7.802  -1.402  0.00  0.00    -0.303 N 
ATOM      5  N   UNL     1      -6.134  -6.891  -0.684  0.00  0.00    -0.276 N 
ATOM      6  C   UNL     1      -6.080  -6.773   0.775  0.00  0.00    +0.172 C 
ATOM      7  H   UNL     1      -7.514  -8.459  -1.012  0.00  0.00    +0.186 HD
ENDROOT
BRANCH   2   8
ATOM      8  C   UNL     1      -5.262  -6.059  -4.109  0.00  0.00    +0.253 C 
ATOM      9  O   UNL     1      -4.456  -5.147  -4.110  0.00  0.00    -0.270 OA
ATOM     10  N   UNL     1      -5.680  -6.589  -5.276  0.00  0.00    -0.281 N 
ATOM     11  H   UNL     1      -6.270  -7.359  -5.275  0.00  0.00    +0.155 HD
BRANCH  10  12
ATOM     12  C   UNL     1      -5.264  -6.028  -6.489  0.00  0.00    +0.037 A 
ATOM     13  C   UNL     1      -6.135  -5.986  -7.570  0.00  0.00    +0.027 A 
ATOM     14  C   UNL     1      -5.726  -5.433  -8.768  0.00  0.00    +0.051 A 
ATOM     15  C   UNL     1      -4.446  -4.918  -8.895  0.00  0.00    +0.173 A 
ATOM     16  C   UNL     1      -3.570  -4.957  -7.813  0.00  0.00    +0.174 A 
ATOM     17  C   UNL     1      -3.983  -5.507  -6.611  0.00  0.00    +0.073 A 
ATOM     18  O   UNL     1      -2.385  -4.394  -8.190  0.00  0.00    -0.395 OA
ATOM     19  C   UNL     1      -2.406  -4.380  -9.629  0.00  0.00    +0.589 C 
ATOM     20  O   UNL     1      -3.809  -4.329  -9.950  0.00  0.00    -0.395 OA
ATOM     21  F   UNL     1      -1.748  -3.247 -10.119  0.00  0.00    -0.125 F 
ATOM     22  F   UNL     1      -1.827  -5.546 -10.140  0.00  0.00    -0.125 F 
ENDBRANCH  10  12
ENDBRANCH   2   8
BRANCH   1  23
ATOM     23  N   UNL     1      -4.556  -5.125  -1.253  0.00  0.00    -0.325 N 
ATOM     24  H   UNL     1      -4.148  -4.604  -1.962  0.00  0.00    +0.148 HD
BRANCH  23  25
ATOM     25  C   UNL     1      -4.235  -4.834   0.146  0.00  0.00    +0.138 C 
BRANCH  25  28
ATOM     26  C   UNL     1      -3.134  -1.220   0.403  0.00  0.00    +0.126 A 
ATOM     27  C   UNL     1      -3.958  -2.341   0.338  0.00  0.00    +0.038 A 
ATOM     28  C   UNL     1      -3.380  -3.595   0.219  0.00  0.00    -0.027 A 
ATOM     29  C   UNL     1      -1.998  -3.684   0.168  0.00  0.00    +0.025 A 
ATOM     30  C   UNL     1      -1.240  -2.526   0.237  0.00  0.00    +0.112 A 
ATOM     31  N   UNL     1      -1.815  -1.348   0.345  0.00  0.00    -0.250 NA
BRANCH  26  34
ATOM     32  C   UNL     1      -3.541   2.550   0.714  0.00  0.00    +0.128 C 
ATOM     33  N   UNL     1      -2.945   1.217   0.588  0.00  0.00    -0.313 N 
ATOM     34  C   UNL     1      -3.737   0.128   0.531  0.00  0.00    +0.262 C 
ATOM     35  O   UNL     1      -4.944   0.251   0.584  0.00  0.00    -0.269 OA
ATOM     36  H   UNL     1      -1.981   1.119   0.545  0.00  0.00    +0.149 HD
ENDBRANCH  26  34
ENDBRANCH  25  28
ENDBRANCH  23  25
ENDBRANCH   1  23
TORSDOF 6
