REMARK  Name = CHEMBL1172887
REMARK  5 active torsions:
REMARK  status: ('A' for Active; 'I' for Inactive)
REMARK    1  A    between atoms: C_4  and  O_7
REMARK    2  A    between atoms: O_7  and  C_8
REMARK    3  A    between atoms: C_11  and  N_14
REMARK    4  A    between atoms: N_17  and  C_18
REMARK    5  A    between atoms: C_28  and  C_29
REMARK                            x       y       z     vdW  Elec       q    Type
REMARK                         _______ _______ _______ _____ _____    ______ ____
ROOT
ATOM      1  N   UNL     1       3.177  -6.371  -0.860  0.00  0.00    -0.269 N 
ATOM      2  C   UNL     1       4.229  -7.172  -0.601  0.00  0.00    +0.308 C 
ATOM      3  O   UNL     1       5.356  -6.803  -0.874  0.00  0.00    -0.252 OA
ATOM      4  N   UNL     1       4.034  -8.382  -0.041  0.00  0.00    -0.269 N 
ATOM      5  H   UNL     1       2.274  -6.690  -0.703  0.00  0.00    +0.156 HD
ATOM      6  H   UNL     1       3.132  -8.710   0.103  0.00  0.00    +0.156 HD
ENDROOT
BRANCH   4   7
ATOM      7  C   UNL     1       5.131  -9.165   0.334  0.00  0.00    +0.037 A 
ATOM      8  C   UNL     1       6.281  -8.554   0.823  0.00  0.00    +0.024 A 
ATOM      9  C   UNL     1       7.365  -9.321   1.194  0.00  0.00    +0.012 A 
ATOM     10  C   UNL     1       7.306 -10.706   1.077  0.00  0.00    +0.008 A 
ATOM     11  C   UNL     1       6.150 -11.329   0.584  0.00  0.00    +0.043 A 
ATOM     12  C   UNL     1       5.062 -10.545   0.219  0.00  0.00    +0.047 A 
ATOM     13  N   UNL     1       6.345 -12.705   0.567  0.00  0.00    -0.281 N 
ATOM     14  C   UNL     1       7.567 -13.032   1.021  0.00  0.00    +0.249 C 
ATOM     15  O   UNL     1       8.016 -14.160   1.119  0.00  0.00    -0.270 OA
ATOM     16  C   UNL     1       8.267 -11.791   1.378  0.00  0.00    +0.048 C 
ATOM     17  C   UNL     1       9.546 -11.663   1.885  0.00  0.00    +0.039 C 
ATOM     18  H   UNL     1       5.684 -13.347   0.266  0.00  0.00    +0.155 HD
BRANCH  17  19
ATOM     19  C   UNL     1      10.460 -12.731   1.768  0.00  0.00    +0.040 A 
ATOM     20  C   UNL     1      11.633 -12.889   2.490  0.00  0.00    +0.027 A 
ATOM     21  C   UNL     1      12.223 -14.078   2.057  0.00  0.00    +0.019 A 
ATOM     22  C   UNL     1      11.427 -14.616   1.100  0.00  0.00    +0.083 A 
ATOM     23  N   UNL     1      10.349 -13.811   0.919  0.00  0.00    -0.361 N 
ATOM     24  H   UNL     1       9.624 -13.968   0.295  0.00  0.00    +0.165 HD
ENDBRANCH  17  19
ENDBRANCH   4   7
BRANCH   1  28
ATOM     25  C   UNL     1       3.800  -2.520  -2.335  0.00  0.00    +0.129 A 
ATOM     26  C   UNL     1       4.641  -3.555  -2.719  0.00  0.00    +0.048 A 
ATOM     27  C   UNL     1       4.435  -4.830  -2.231  0.00  0.00    +0.027 A 
ATOM     28  C   UNL     1       3.386  -5.077  -1.355  0.00  0.00    +0.035 A 
ATOM     29  C   UNL     1       2.545  -4.041  -0.970  0.00  0.00    +0.027 A 
ATOM     30  C   UNL     1       2.755  -2.765  -1.455  0.00  0.00    +0.048 A 
BRANCH  25  31
ATOM     31  O   UNL     1       4.003  -1.265  -2.816  0.00  0.00    -0.456 OA
BRANCH  31  35
ATOM     32  C   UNL     1       2.878  -0.477  -6.706  0.00  0.00    +0.000 A 
ATOM     33  C   UNL     1       2.784  -1.764  -6.208  0.00  0.00    +0.004 A 
ATOM     34  C   UNL     1       3.160  -2.030  -4.905  0.00  0.00    +0.046 A 
ATOM     35  C   UNL     1       3.633  -1.006  -4.097  0.00  0.00    +0.128 A 
ATOM     36  C   UNL     1       3.726   0.284  -4.600  0.00  0.00    +0.046 A 
ATOM     37  C   UNL     1       3.349   0.545  -5.903  0.00  0.00    +0.004 A 
ENDBRANCH  31  35
ENDBRANCH  25  31
ENDBRANCH   1  28
TORSDOF 5
