REMARK  Name = CHEMBL369908
REMARK  7 active torsions:
REMARK  status: ('A' for Active; 'I' for Inactive)
REMARK    1  A    between atoms: C_1  and  C_2
REMARK    2  A    between atoms: C_6  and  N_8
REMARK    3  A    between atoms: N_11  and  C_12
REMARK    4  A    between atoms: C_15  and  C_18
REMARK    5  A    between atoms: C_19  and  C_28
REMARK    6  A    between atoms: C_23  and  N_27
REMARK    7  A    between atoms: C_28  and  C_29
REMARK                            x       y       z     vdW  Elec       q    Type
REMARK                         _______ _______ _______ _____ _____    ______ ____
ROOT
ATOM      1  C   UNL     1      -0.147  -6.221   3.394  0.00  0.00    +0.035 A 
ATOM      2  C   UNL     1      -0.067  -6.928   2.200  0.00  0.00    +0.024 A 
ATOM      3  C   UNL     1      -0.037  -8.306   2.214  0.00  0.00    +0.010 A 
ATOM      4  C   UNL     1      -0.088  -8.991   3.428  0.00  0.00    -0.016 A 
ATOM      5  C   UNL     1      -0.169  -8.280   4.624  0.00  0.00    +0.010 A 
ATOM      6  C   UNL     1      -0.193  -6.901   4.605  0.00  0.00    +0.024 A 
ENDROOT
BRANCH   4   7
ATOM      7  C   UNL     1      -0.057 -10.473   3.446  0.00  0.00    +0.005 A 
ATOM      8  C   UNL     1      -1.166 -11.182   3.762  0.00  0.00    +0.005 A 
ATOM      9  S   UNL     1      -0.625 -12.876   3.644  0.00  0.00    -0.073 S 
ATOM     10  C   UNL     1       1.063 -12.600   3.176  0.00  0.00    +0.114 A 
ATOM     11  C   UNL     1       1.167 -11.195   3.117  0.00  0.00    +0.055 A 
ATOM     12  C   UNL     1       2.445 -10.693   2.752  0.00  0.00    +0.128 A 
ATOM     13  N   UNL     1       3.425 -11.545   2.495  0.00  0.00    -0.220 NA
ATOM     14  C   UNL     1       3.255 -12.853   2.566  0.00  0.00    +0.224 A 
ATOM     15  N   UNL     1       2.094 -13.378   2.908  0.00  0.00    -0.228 NA
BRANCH  12  16
ATOM     16  N   UNL     1       2.663  -9.330   2.667  0.00  0.00    -0.343 N 
ATOM     17  H   UNL     1       1.989  -8.710   2.987  0.00  0.00    +0.144 HD
ATOM     18  H   UNL     1       3.490  -8.993   2.287  0.00  0.00    +0.144 HD
ENDBRANCH  12  16
BRANCH   8  19
ATOM     19  C   UNL     1      -2.533 -10.662   4.128  0.00  0.00    +0.078 C 
BRANCH  19  20
ATOM     20  C   UNL     1      -3.364 -10.513   2.880  0.00  0.00    -0.040 A 
ATOM     21  C   UNL     1      -3.360  -9.327   2.162  0.00  0.00    +0.023 A 
ATOM     22  C   UNL     1      -4.135  -9.226   1.022  0.00  0.00    +0.111 A 
ATOM     23  N   UNL     1      -4.872 -10.242   0.616  0.00  0.00    -0.263 NA
ATOM     24  C   UNL     1      -4.900 -11.385   1.273  0.00  0.00    +0.111 A 
ATOM     25  C   UNL     1      -4.146 -11.561   2.418  0.00  0.00    +0.023 A 
ENDBRANCH  19  20
ENDBRANCH   8  19
ENDBRANCH   4   7
BRANCH   1  29
ATOM     26  N   UNL     1      -0.720  -2.829   2.289  0.00  0.00    -0.269 N 
ATOM     27  C   UNL     1      -0.782  -4.173   2.362  0.00  0.00    +0.308 C 
ATOM     28  O   UNL     1      -1.385  -4.801   1.512  0.00  0.00    -0.252 OA
ATOM     29  N   UNL     1      -0.177  -4.822   3.376  0.00  0.00    -0.269 N 
ATOM     30  H   UNL     1      -0.178  -2.333   2.923  0.00  0.00    +0.156 HD
ATOM     31  H   UNL     1       0.238  -4.319   4.095  0.00  0.00    +0.156 HD
BRANCH  26  37
ATOM     32  C   UNL     1      -1.076   0.956  -0.829  0.00  0.00    +0.044 C 
ATOM     33  C   UNL     1      -1.632  -0.311  -0.230  0.00  0.00    -0.049 A 
ATOM     34  C   UNL     1      -2.852  -0.801  -0.660  0.00  0.00    +0.003 A 
ATOM     35  C   UNL     1      -3.365  -1.962  -0.113  0.00  0.00    +0.002 A 
ATOM     36  C   UNL     1      -2.661  -2.637   0.865  0.00  0.00    +0.023 A 
ATOM     37  C   UNL     1      -1.436  -2.148   1.298  0.00  0.00    +0.035 A 
ATOM     38  C   UNL     1      -0.921  -0.984   0.743  0.00  0.00    +0.026 A 
ENDBRANCH  26  37
ENDBRANCH   1  29
TORSDOF 6
