REMARK  Name = CHEMBL203279
REMARK  9 active torsions:
REMARK  status: ('A' for Active; 'I' for Inactive)
REMARK    1  A    between atoms: C_1  and  C_2
REMARK    2  A    between atoms: C_7  and  C_8
REMARK    3  A    between atoms: N_13  and  C_14
REMARK    4  A    between atoms: C_17  and  O_20
REMARK    5  A    between atoms: O_20  and  C_21
REMARK    6  A    between atoms: C_24  and  O_33
REMARK    7  A    between atoms: C_25  and  O_31
REMARK    8  A    between atoms: O_31  and  C_32
REMARK    9  A    between atoms: O_33  and  C_34
REMARK                            x       y       z     vdW  Elec       q    Type
REMARK                         _______ _______ _______ _____ _____    ______ ____
ROOT
ATOM      1  C   UNL     1      -0.575   0.271   7.016  0.00  0.00    +0.035 A 
ATOM      2  C   UNL     1      -0.698   1.654   7.018  0.00  0.00    +0.027 A 
ATOM      3  C   UNL     1      -0.691   2.345   8.214  0.00  0.00    +0.048 A 
ATOM      4  C   UNL     1      -0.561   1.658   9.412  0.00  0.00    +0.131 A 
ATOM      5  C   UNL     1      -0.439   0.276   9.410  0.00  0.00    +0.048 A 
ATOM      6  C   UNL     1      -0.451  -0.417   8.216  0.00  0.00    +0.027 A 
ENDROOT
BRANCH   1  12
ATOM      7  C   UNL     1      -1.374  -3.687   4.583  0.00  0.00    +0.252 C 
ATOM      8  O   UNL     1      -1.858  -4.193   5.577  0.00  0.00    -0.270 OA
ATOM      9  N   UNL     1      -0.931  -2.415   4.623  0.00  0.00    -0.236 N 
ATOM     10  C   UNL     1      -1.025  -1.704   5.764  0.00  0.00    +0.310 C 
ATOM     11  O   UNL     1      -1.509  -2.210   6.758  0.00  0.00    -0.252 OA
ATOM     12  N   UNL     1      -0.583  -0.431   5.803  0.00  0.00    -0.269 N 
ATOM     13  H   UNL     1      -0.545  -2.011   3.830  0.00  0.00    +0.159 HD
ATOM     14  H   UNL     1      -0.269  -0.002   4.992  0.00  0.00    +0.156 HD
BRANCH   7  21
ATOM     15  C   UNL     1      -2.483  -6.357   4.467  0.00  0.00    +0.044 C 
ATOM     16  C   UNL     1      -1.802  -5.756   3.264  0.00  0.00    -0.038 A 
ATOM     17  C   UNL     1      -1.707  -6.477   2.091  0.00  0.00    +0.004 A 
ATOM     18  C   UNL     1      -1.082  -5.926   0.986  0.00  0.00    +0.000 A 
ATOM     19  C   UNL     1      -0.549  -4.651   1.049  0.00  0.00    +0.001 A 
ATOM     20  C   UNL     1      -0.637  -3.920   2.215  0.00  0.00    +0.013 A 
ATOM     21  C   UNL     1      -1.271  -4.467   3.333  0.00  0.00    +0.040 A 
ENDBRANCH   7  21
ENDBRANCH   1  12
BRANCH   4  22
ATOM     22  O   UNL     1      -0.554   2.339  10.589  0.00  0.00    -0.437 OA
BRANCH  22  23
ATOM     23  C   UNL     1      -1.731   2.818  11.053  0.00  0.00    +0.231 A 
ATOM     24  C   UNL     1      -1.779   3.626  12.211  0.00  0.00    +0.066 A 
ATOM     25  C   UNL     1      -0.624   3.967  12.927  0.00  0.00    +0.064 A 
ATOM     26  C   UNL     1      -0.729   4.752  14.039  0.00  0.00    +0.162 A 
ATOM     27  C   UNL     1      -1.978   5.219  14.472  0.00  0.00    +0.164 A 
ATOM     28  C   UNL     1      -3.120   4.900  13.792  0.00  0.00    +0.078 A 
ATOM     29  C   UNL     1      -3.042   4.097  12.647  0.00  0.00    +0.082 A 
ATOM     30  N   UNL     1      -4.134   3.757  11.945  0.00  0.00    -0.235 NA
ATOM     31  C   UNL     1      -4.028   3.003  10.876  0.00  0.00    +0.225 A 
ATOM     32  N   UNL     1      -2.868   2.546  10.430  0.00  0.00    -0.201 NA
BRANCH  27  33
ATOM     33  O   UNL     1      -2.055   5.997  15.583  0.00  0.00    -0.491 OA
ATOM     34  C   UNL     1      -3.355   6.442  15.974  0.00  0.00    +0.277 C 
ENDBRANCH  27  33
BRANCH  26  35
ATOM     35  O   UNL     1       0.391   5.084  14.736  0.00  0.00    -0.491 OA
ATOM     36  C   UNL     1       1.634   4.578  14.245  0.00  0.00    +0.277 C 
ENDBRANCH  26  35
ENDBRANCH  22  23
ENDBRANCH   4  22
TORSDOF 6
