REMARK  Name = CHEMBL426887
REMARK  4 active torsions:
REMARK  status: ('A' for Active; 'I' for Inactive)
REMARK    1  A    between atoms: C_3  and  C_12
REMARK    2  A    between atoms: C_10  and  N_11
REMARK    3  A    between atoms: C_15  and  N_18
REMARK    4  A    between atoms: N_21  and  C_22
REMARK                            x       y       z     vdW  Elec       q    Type
REMARK                         _______ _______ _______ _____ _____    ______ ____
ROOT
ATOM      1  C   UNL     1       3.619   2.361  -0.003  0.00  0.00    -0.017 A 
ATOM      2  C   UNL     1       4.567   2.222   1.011  0.00  0.00    +0.010 A 
ATOM      3  C   UNL     1       5.710   2.991   0.995  0.00  0.00    +0.024 A 
ATOM      4  C   UNL     1       5.919   3.906  -0.030  0.00  0.00    +0.035 A 
ATOM      5  C   UNL     1       4.976   4.048  -1.042  0.00  0.00    +0.024 A 
ATOM      6  C   UNL     1       3.834   3.276  -1.034  0.00  0.00    +0.010 A 
ENDROOT
BRANCH   1   9
ATOM      7  C   UNL     1      -0.018   1.355  -0.137  0.00  0.00    +0.003 A 
ATOM      8  C   UNL     1       1.146   2.119  -0.147  0.00  0.00    +0.009 A 
ATOM      9  C   UNL     1       2.389   1.536   0.012  0.00  0.00    -0.005 A 
ATOM     10  C   UNL     1       2.465   0.089   0.194  0.00  0.00    +0.046 A 
ATOM     11  C   UNL     1       1.212  -0.682   0.200  0.00  0.00    +0.066 A 
ATOM     12  C   UNL     1      -0.007   0.009   0.029  0.00  0.00    +0.028 A 
ATOM     13  N   UNL     1       1.544  -1.948   0.378  0.00  0.00    -0.298 N 
ATOM     14  H   UNL     1       3.427  -2.872   0.623  0.00  0.00    +0.188 HD
ATOM     15  N   UNL     1       2.936  -2.046   0.487  0.00  0.00    -0.286 N 
ATOM     16  C   UNL     1       3.491  -0.827   0.378  0.00  0.00    +0.118 A 
ATOM     17  H   UNL     1       0.923  -2.691   0.425  0.00  0.00    +0.187 HD
BRANCH  16  18
ATOM     18  N   UNL     1       4.846  -0.536   0.437  0.00  0.00    -0.343 N 
ATOM     19  H   UNL     1       5.150   0.381   0.346  0.00  0.00    +0.144 HD
ATOM     20  H   UNL     1       5.490  -1.249   0.570  0.00  0.00    +0.144 HD
ENDBRANCH  16  18
ENDBRANCH   1   9
BRANCH   4  21
ATOM     21  N   UNL     1       7.079   4.686  -0.044  0.00  0.00    -0.269 N 
ATOM     22  C   UNL     1       8.236   4.181   0.430  0.00  0.00    +0.304 C 
ATOM     23  O   UNL     1       8.293   3.018   0.780  0.00  0.00    -0.253 OA
ATOM     24  N   UNL     1       9.328   4.966   0.517  0.00  0.00    -0.296 N 
ATOM     25  H   UNL     1       7.052   5.590  -0.394  0.00  0.00    +0.156 HD
ATOM     26  H   UNL     1       9.282   5.894   0.238  0.00  0.00    +0.151 HD
BRANCH  24  27
ATOM     27  C   UNL     1      10.585   4.417   1.032  0.00  0.00    +0.074 C 
ATOM     28  C   UNL     1      10.632   4.555   2.568  0.00  0.00    +0.022 C 
ATOM     29  C   UNL     1      12.113   4.886   2.874  0.00  0.00    +0.002 C 
ATOM     30  C   UNL     1      12.505   5.820   1.703  0.00  0.00    +0.002 C 
ATOM     31  C   UNL     1      11.776   5.221   0.482  0.00  0.00    +0.022 C 
ENDBRANCH  24  27
ENDBRANCH   4  21
TORSDOF 4
