REMARK  Name = CHEMBL187280
REMARK  9 active torsions:
REMARK  status: ('A' for Active; 'I' for Inactive)
REMARK    1  A    between atoms: C_1  and  C_2
REMARK    2  A    between atoms: C_5  and  C_8
REMARK    3  A    between atoms: C_8  and  N_9
REMARK    4  A    between atoms: C_20  and  O_36
REMARK    5  A    between atoms: C_21  and  O_27
REMARK    6  A    between atoms: O_27  and  C_28
REMARK    7  A    between atoms: C_28  and  C_29
REMARK    8  A    between atoms: C_29  and  N_30
REMARK    9  A    between atoms: O_36  and  C_37
REMARK                            x       y       z     vdW  Elec       q    Type
REMARK                         _______ _______ _______ _____ _____    ______ ____
ROOT
ATOM      1  N   UNL     1       0.159  -3.768   0.631  0.00  0.00    -0.361 N 
ATOM      2  C   UNL     1       0.339  -4.817  -0.226  0.00  0.00    +0.142 C 
ATOM      3  N   UNL     1       1.267  -5.779   0.057  0.00  0.00    -0.308 N 
ATOM      4  C   UNL     1       1.342  -6.376   1.397  0.00  0.00    +0.126 C 
ATOM      5  C   UNL     1       1.221  -7.899   1.263  0.00  0.00    +0.125 C 
ATOM      6  N   UNL     1       2.163  -8.355   0.231  0.00  0.00    -0.312 N 
ATOM      7  C   UNL     1       2.089  -7.758  -1.110  0.00  0.00    +0.125 C 
ATOM      8  C   UNL     1       2.205  -6.239  -0.977  0.00  0.00    +0.126 C 
ATOM      9  C   UNL     1       3.101  -9.326   0.516  0.00  0.00    +0.132 A 
ATOM     10  C   UNL     1       2.776 -10.700   0.421  0.00  0.00    +0.044 A 
ATOM     11  C   UNL     1       1.501 -11.135   0.037  0.00  0.00    +0.062 A 
ATOM     12  C   UNL     1       1.238 -12.473  -0.040  0.00  0.00    +0.162 A 
ATOM     13  C   UNL     1       2.230 -13.417   0.262  0.00  0.00    +0.164 A 
ATOM     14  C   UNL     1       3.491 -13.015   0.641  0.00  0.00    +0.078 A 
ATOM     15  C   UNL     1       3.783 -11.648   0.727  0.00  0.00    +0.080 A 
ATOM     16  N   UNL     1       4.996 -11.205   1.092  0.00  0.00    -0.235 NA
ATOM     17  C   UNL     1       5.241  -9.918   1.163  0.00  0.00    +0.223 A 
ATOM     18  N   UNL     1       4.333  -8.997   0.882  0.00  0.00    -0.220 NA
ATOM     19  S   UNL     1      -0.572  -4.923  -1.610  0.00  0.00    -0.016 SA
ATOM     20  H   UNL     1      -0.565  -3.140   0.484  0.00  0.00    +0.162 HD
ENDROOT
BRANCH  12  21
ATOM     21  O   UNL     1      -0.000 -12.894  -0.413  0.00  0.00    -0.491 OA
ATOM     22  C   UNL     1      -0.968 -11.884  -0.707  0.00  0.00    +0.277 C 
ENDBRANCH  12  21
BRANCH   1  23
ATOM     23  C   UNL     1       1.061  -3.592   1.772  0.00  0.00    +0.171 C 
BRANCH  23  28
ATOM     24  C   UNL     1      -0.146   1.302   4.409  0.00  0.00    +0.067 C 
ATOM     25  C   UNL     1       0.165  -0.002   3.719  0.00  0.00    +0.056 A 
ATOM     26  C   UNL     1       1.016  -0.021   2.628  0.00  0.00    +0.134 A 
ATOM     27  N   UNL     1       1.289  -1.164   2.023  0.00  0.00    -0.255 NA
ATOM     28  C   UNL     1       0.750  -2.288   2.461  0.00  0.00    +0.078 A 
ATOM     29  C   UNL     1      -0.100  -2.269   3.552  0.00  0.00    +0.136 A 
ATOM     30  N   UNL     1      -0.370  -1.127   4.160  0.00  0.00    -0.257 NA
ENDBRANCH  23  28
ENDBRANCH   1  23
BRANCH  13  31
ATOM     31  O   UNL     1       1.943 -14.742   0.178  0.00  0.00    -0.490 OA
BRANCH  31  32
ATOM     32  C   UNL     1       2.996 -15.655   0.498  0.00  0.00    +0.211 C 
BRANCH  32  33
ATOM     33  C   UNL     1       2.489 -17.091   0.349  0.00  0.00    -0.037 C 
BRANCH  33  34
ATOM     34  N   UNL     1       2.095 -17.328  -1.047  0.00  0.00    +0.382 N 
ATOM     35  C   UNL     1       1.490 -18.660  -1.163  0.00  0.00    -0.079 C 
ATOM     36  C   UNL     1       1.005 -18.881  -2.597  0.00  0.00    -0.019 C 
ATOM     37  C   UNL     1       2.196 -18.775  -3.554  0.00  0.00    -0.004 C 
ATOM     38  C   UNL     1       2.865 -17.410  -3.372  0.00  0.00    -0.019 C 
ATOM     39  C   UNL     1       3.280 -17.243  -1.909  0.00  0.00    -0.079 C 
ATOM     40  H   UNL     1       1.424 -16.630  -1.329  0.00  0.00    -0.082 HD
ENDBRANCH  33  34
ENDBRANCH  32  33
ENDBRANCH  31  32
ENDBRANCH  13  31
TORSDOF 7
