REMARK  Name = CHEMBL211464
REMARK  8 active torsions:
REMARK  status: ('A' for Active; 'I' for Inactive)
REMARK    1  A    between atoms: C_1  and  N_2
REMARK    2  A    between atoms: N_5  and  C_8
REMARK    3  A    between atoms: C_8  and  C_9
REMARK    4  A    between atoms: C_17  and  C_21
REMARK    5  A    between atoms: C_24  and  C_26
REMARK    6  A    between atoms: C_26  and  N_27
REMARK    7  A    between atoms: N_27  and  C_28
REMARK    8  A    between atoms: N_31  and  C_32
REMARK                            x       y       z     vdW  Elec       q    Type
REMARK                         _______ _______ _______ _____ _____    ______ ____
ROOT
ATOM      1  C   UNL     1      -0.141  -4.427   2.550  0.00  0.00    -0.033 A 
ATOM      2  C   UNL     1       1.215  -4.659   2.694  0.00  0.00    +0.005 A 
ATOM      3  C   UNL     1       1.719  -5.097   3.906  0.00  0.00    +0.005 A 
ATOM      4  C   UNL     1       0.870  -5.303   4.974  0.00  0.00    -0.034 A 
ATOM      5  C   UNL     1      -0.495  -5.072   4.838  0.00  0.00    +0.006 A 
ATOM      6  C   UNL     1      -0.996  -4.625   3.614  0.00  0.00    +0.015 A 
ATOM      7  C   UNL     1      -1.178  -5.367   6.123  0.00  0.00    +0.097 A 
ATOM      8  C   UNL     1      -0.227  -5.786   7.067  0.00  0.00    +0.010 A 
ATOM      9  C   UNL     1      -0.878  -6.051   8.236  0.00  0.00    +0.076 A 
ATOM     10  N   UNL     1      -2.205  -5.804   8.030  0.00  0.00    -0.276 N 
ATOM     11  H   UNL     1      -2.913  -5.905   8.685  0.00  0.00    +0.189 HD
ATOM     12  N   UNL     1      -2.363  -5.380   6.705  0.00  0.00    -0.173 NA
ATOM     13  C   UNL     1       1.120  -5.767   6.388  0.00  0.00    +0.075 C 
ENDROOT
BRANCH   9  14
ATOM     14  C   UNL     1      -0.262  -6.519   9.491  0.00  0.00    +0.038 A 
ATOM     15  C   UNL     1      -0.482  -6.089  10.774  0.00  0.00    +0.018 A 
ATOM     16  C   UNL     1       0.218  -6.683  11.800  0.00  0.00    +0.013 A 
ATOM     17  C   UNL     1       1.103  -7.673  11.511  0.00  0.00    +0.008 A 
ATOM     18  S   UNL     1       0.959  -7.798   9.737  0.00  0.00    -0.090 S 
BRANCH  17  19
ATOM     19  C   UNL     1       1.977  -8.465  12.449  0.00  0.00    +0.151 C 
BRANCH  19  20
ATOM     20  N   UNL     1       1.256  -9.660  12.895  0.00  0.00    -0.284 N 
ATOM     21  C   UNL     1       1.364 -10.907  12.134  0.00  0.00    +0.134 C 
ATOM     22  C   UNL     1       0.495  -9.613  14.006  0.00  0.00    +0.307 C 
ATOM     23  O   UNL     1       0.405  -8.578  14.638  0.00  0.00    -0.252 OA
ATOM     24  N   UNL     1      -0.168 -10.712  14.416  0.00  0.00    -0.269 N 
ATOM     25  H   UNL     1      -0.151 -11.518  13.877  0.00  0.00    +0.156 HD
BRANCH  24  26
ATOM     26  C   UNL     1      -0.881 -10.691  15.621  0.00  0.00    +0.035 A 
ATOM     27  C   UNL     1      -0.936 -11.827  16.417  0.00  0.00    +0.024 A 
ATOM     28  C   UNL     1      -1.641 -11.804  17.605  0.00  0.00    +0.017 A 
ATOM     29  C   UNL     1      -2.291 -10.649  18.002  0.00  0.00    +0.018 A 
ATOM     30  C   UNL     1      -2.238  -9.515  17.210  0.00  0.00    +0.017 A 
ATOM     31  C   UNL     1      -1.530  -9.531  16.025  0.00  0.00    +0.024 A 
ATOM     32 BR   UNL     1      -3.255 -10.620  19.628  0.00  0.00    -0.050 Br
ENDBRANCH  24  26
ENDBRANCH  19  20
ENDBRANCH  17  19
ENDBRANCH   9  14
BRANCH   1  33
ATOM     33  C   UNL     1      -0.685  -3.950   1.228  0.00  0.00    +0.119 C 
BRANCH  33  38
ATOM     34  C   UNL     1      -0.059   1.527   0.062  0.00  0.00    -0.096 C 
ATOM     35  N   UNL     1      -0.044   0.058   0.048  0.00  0.00    +0.379 N 
ATOM     36  C   UNL     1      -1.424  -0.446   0.062  0.00  0.00    -0.064 C 
ATOM     37  C   UNL     1      -1.409  -1.975   0.028  0.00  0.00    +0.066 C 
ATOM     38  N   UNL     1      -0.673  -2.482   1.195  0.00  0.00    -0.302 NA
ATOM     39  C   UNL     1       0.704  -1.966   1.207  0.00  0.00    +0.066 C 
ATOM     40  C   UNL     1       0.672  -0.436   1.232  0.00  0.00    -0.064 C 
ATOM     41  H   UNL     1       0.423  -0.266  -0.786  0.00  0.00    -0.082 HD
ENDBRANCH  33  38
ENDBRANCH   1  33
TORSDOF 6
