REMARK  Name = CHEMBL184129
REMARK  12 active torsions:
REMARK  status: ('A' for Active; 'I' for Inactive)
REMARK    1  A    between atoms: C_1  and  C_2
REMARK    2  A    between atoms: C_5  and  C_7
REMARK    3  A    between atoms: C_7  and  N_8
REMARK    4  A    between atoms: N_8  and  C_9
REMARK    5  A    between atoms: C_9  and  N_10
REMARK    6  A    between atoms: C_19  and  O_36
REMARK    7  A    between atoms: C_20  and  O_26
REMARK    8  A    between atoms: O_26  and  C_27
REMARK    9  A    between atoms: C_27  and  C_28
REMARK   10  A    between atoms: C_28  and  C_29
REMARK   11  A    between atoms: C_29  and  N_30
REMARK   12  A    between atoms: O_36  and  C_37
REMARK                            x       y       z     vdW  Elec       q    Type
REMARK                         _______ _______ _______ _____ _____    ______ ____
ROOT
ATOM      1  N   UNL     1       3.262  -3.292  -3.355  0.00  0.00    -0.310 N 
ATOM      2  C   UNL     1       4.408  -2.704  -4.063  0.00  0.00    +0.125 C 
ATOM      3  C   UNL     1       5.230  -3.836  -4.690  0.00  0.00    +0.125 C 
ATOM      4  N   UNL     1       4.321  -4.724  -5.428  0.00  0.00    -0.312 N 
ATOM      5  C   UNL     1       3.175  -5.312  -4.720  0.00  0.00    +0.125 C 
ATOM      6  C   UNL     1       2.356  -4.184  -4.092  0.00  0.00    +0.125 C 
ATOM      7  C   UNL     1       4.539  -5.000  -6.762  0.00  0.00    +0.132 A 
ATOM      8  C   UNL     1       5.248  -6.159  -7.158  0.00  0.00    +0.044 A 
ATOM      9  C   UNL     1       5.756  -7.071  -6.225  0.00  0.00    +0.062 A 
ATOM     10  C   UNL     1       6.433  -8.175  -6.659  0.00  0.00    +0.162 A 
ATOM     11  C   UNL     1       6.625  -8.406  -8.028  0.00  0.00    +0.164 A 
ATOM     12  C   UNL     1       6.136  -7.524  -8.966  0.00  0.00    +0.078 A 
ATOM     13  C   UNL     1       5.438  -6.386  -8.544  0.00  0.00    +0.080 A 
ATOM     14  N   UNL     1       4.940  -5.496  -9.417  0.00  0.00    -0.235 NA
ATOM     15  C   UNL     1       4.291  -4.439  -8.992  0.00  0.00    +0.223 A 
ATOM     16  N   UNL     1       4.084  -4.189  -7.708  0.00  0.00    -0.220 NA
ENDROOT
BRANCH   1  17
ATOM     17  C   UNL     1       3.049  -3.022  -2.052  0.00  0.00    +0.133 C 
ATOM     18  S   UNL     1       1.795  -3.823  -1.205  0.00  0.00    -0.019 S 
BRANCH  17  19
ATOM     19  N   UNL     1       3.824  -2.122  -1.415  0.00  0.00    -0.319 N 
ATOM     20  H   UNL     1       4.579  -1.721  -1.873  0.00  0.00    +0.148 HD
BRANCH  19  21
ATOM     21  C   UNL     1       3.525  -1.747  -0.030  0.00  0.00    +0.177 C 
BRANCH  21  26
ATOM     22  C   UNL     1       7.680   0.256   2.011  0.00  0.00    +0.086 C 
ATOM     23  C   UNL     1       6.339   0.138   1.333  0.00  0.00    +0.102 A 
ATOM     24  C   UNL     1       5.580   1.164   0.908  0.00  0.00    +0.045 A 
ATOM     25  C   UNL     1       4.415   0.603   0.336  0.00  0.00    +0.046 A 
ATOM     26  C   UNL     1       4.533  -0.733   0.445  0.00  0.00    +0.122 A 
ATOM     27  O   UNL     1       5.703  -1.008   1.044  0.00  0.00    -0.463 OA
ENDBRANCH  21  26
ENDBRANCH  19  21
ENDBRANCH  17  19
ENDBRANCH   1  17
BRANCH  10  28
ATOM     28  O   UNL     1       6.926  -9.061  -5.752  0.00  0.00    -0.491 OA
ATOM     29  C   UNL     1       6.698  -8.771  -4.372  0.00  0.00    +0.277 C 
ENDBRANCH  10  28
BRANCH  11  30
ATOM     30  O   UNL     1       7.303  -9.511  -8.434  0.00  0.00    -0.488 OA
BRANCH  30  31
ATOM     31  C   UNL     1       7.466  -9.690  -9.843  0.00  0.00    +0.227 C 
BRANCH  31  32
ATOM     32  C   UNL     1       8.248 -10.979 -10.106  0.00  0.00    +0.022 C 
BRANCH  32  33
ATOM     33  C   UNL     1       8.423 -11.171 -11.613  0.00  0.00    -0.076 C 
BRANCH  33  34
ATOM     34  N   UNL     1       9.174 -12.408 -11.866  0.00  0.00    +0.380 N 
ATOM     35  C   UNL     1      10.531 -12.275 -11.322  0.00  0.00    -0.079 C 
ATOM     36  C   UNL     1      11.291 -13.589 -11.511  0.00  0.00    -0.019 C 
ATOM     37  C   UNL     1      11.367 -13.919 -13.004  0.00  0.00    -0.004 C 
ATOM     38  C   UNL     1       9.948 -13.983 -13.576  0.00  0.00    -0.019 C 
ATOM     39  C   UNL     1       9.238 -12.654 -13.311  0.00  0.00    -0.079 C 
ATOM     40  H   UNL     1       8.708 -13.181 -11.415  0.00  0.00    -0.082 HD
ENDBRANCH  33  34
ENDBRANCH  32  33
ENDBRANCH  31  32
ENDBRANCH  30  31
ENDBRANCH  11  30
TORSDOF 10
