REMARK  Name = CHEMBL404367
REMARK  5 active torsions:
REMARK  status: ('A' for Active; 'I' for Inactive)
REMARK    1  A    between atoms: C_1  and  C_2
REMARK    2  A    between atoms: C_6  and  N_8
REMARK    3  A    between atoms: N_11  and  C_12
REMARK    4  A    between atoms: C_15  and  C_18
REMARK    5  A    between atoms: N_26  and  C_27
REMARK                            x       y       z     vdW  Elec       q    Type
REMARK                         _______ _______ _______ _____ _____    ______ ____
ROOT
ATOM      1  C   UNL     1      -0.066  -6.217   3.647  0.00  0.00    +0.035 A 
ATOM      2  C   UNL     1      -0.055  -6.909   2.442  0.00  0.00    +0.024 A 
ATOM      3  C   UNL     1      -0.032  -8.287   2.437  0.00  0.00    +0.010 A 
ATOM      4  C   UNL     1      -0.020  -8.987   3.643  0.00  0.00    -0.016 A 
ATOM      5  C   UNL     1      -0.031  -8.291   4.851  0.00  0.00    +0.010 A 
ATOM      6  C   UNL     1      -0.049  -6.912   4.851  0.00  0.00    +0.024 A 
ENDROOT
BRANCH   4   7
ATOM      7  C   UNL     1       0.004 -10.469   3.640  0.00  0.00    +0.013 A 
ATOM      8  C   UNL     1      -0.895 -11.193   2.869  0.00  0.00    +0.120 A 
ATOM      9  N   UNL     1      -0.878 -12.514   2.863  0.00  0.00    -0.261 NA
ATOM     10  C   UNL     1      -0.024 -13.218   3.575  0.00  0.00    +0.138 A 
ATOM     11  C   UNL     1       0.917 -12.586   4.382  0.00  0.00    +0.089 A 
ATOM     12  C   UNL     1       0.943 -11.177   4.417  0.00  0.00    +0.052 A 
ATOM     13  C   UNL     1       2.020 -10.805   5.326  0.00  0.00    +0.147 A 
ATOM     14  N   UNL     1       2.566 -11.910   5.767  0.00  0.00    -0.156 NA
ATOM     15  N   UNL     1       1.912 -13.018   5.218  0.00  0.00    -0.263 N 
ATOM     16  C   UNL     1       2.249 -14.419   5.482  0.00  0.00    +0.173 C 
ATOM     17  N   UNL     1       2.402  -9.504   5.665  0.00  0.00    -0.341 N 
ATOM     18  H   UNL     1       1.933  -8.745   5.283  0.00  0.00    +0.144 HD
ATOM     19  H   UNL     1       3.136  -9.359   6.283  0.00  0.00    +0.144 HD
ENDBRANCH   4   7
BRANCH   1  23
ATOM     20  N   UNL     1      -0.679  -2.809   2.618  0.00  0.00    -0.269 N 
ATOM     21  C   UNL     1      -0.744  -4.154   2.676  0.00  0.00    +0.308 C 
ATOM     22  O   UNL     1      -1.392  -4.768   1.851  0.00  0.00    -0.252 OA
ATOM     23  N   UNL     1      -0.089  -4.819   3.649  0.00  0.00    -0.269 N 
ATOM     24  H   UNL     1      -0.103  -2.325   3.230  0.00  0.00    +0.156 HD
ATOM     25  H   UNL     1       0.365  -4.327   4.351  0.00  0.00    +0.156 HD
BRANCH  20  31
ATOM     26  C   UNL     1      -1.190   1.026  -0.415  0.00  0.00    +0.044 C 
ATOM     27  C   UNL     1      -1.716  -0.250   0.190  0.00  0.00    -0.049 A 
ATOM     28  C   UNL     1      -2.956  -0.734  -0.186  0.00  0.00    +0.003 A 
ATOM     29  C   UNL     1      -3.442  -1.905   0.366  0.00  0.00    +0.002 A 
ATOM     30  C   UNL     1      -2.689  -2.595   1.296  0.00  0.00    +0.023 A 
ATOM     31  C   UNL     1      -1.444  -2.112   1.676  0.00  0.00    +0.035 A 
ATOM     32  C   UNL     1      -0.957  -0.939   1.115  0.00  0.00    +0.026 A 
ENDBRANCH  20  31
ENDBRANCH   1  23
TORSDOF 3
