REMARK  Name = CHEMBL184082
REMARK  7 active torsions:
REMARK  status: ('A' for Active; 'I' for Inactive)
REMARK    1  A    between atoms: C_1  and  O_2
REMARK    2  A    between atoms: O_2  and  C_3
REMARK    3  A    between atoms: C_8  and  O_9
REMARK    4  A    between atoms: O_9  and  C_10
REMARK    5  A    between atoms: C_10  and  C_11
REMARK    6  A    between atoms: C_11  and  N_12
REMARK    7  A    between atoms: N_29  and  C_30
REMARK                            x       y       z     vdW  Elec       q    Type
REMARK                         _______ _______ _______ _____ _____    ______ ____
ROOT
ATOM      1  C   UNL     1      -0.763  -1.991   1.758  0.00  0.00    +0.162 A 
ATOM      2  C   UNL     1       0.061  -1.171   2.475  0.00  0.00    +0.062 A 
ATOM      3  C   UNL     1       0.968  -1.726   3.387  0.00  0.00    +0.044 A 
ATOM      4  C   UNL     1       1.024  -3.131   3.561  0.00  0.00    +0.080 A 
ATOM      5  C   UNL     1       0.170  -3.952   2.815  0.00  0.00    +0.078 A 
ATOM      6  C   UNL     1      -0.716  -3.381   1.929  0.00  0.00    +0.164 A 
ATOM      7  N   UNL     1       1.902  -3.636   4.442  0.00  0.00    -0.235 NA
ATOM      8  C   UNL     1       2.689  -2.842   5.127  0.00  0.00    +0.223 A 
ATOM      9  N   UNL     1       2.671  -1.524   4.998  0.00  0.00    -0.220 NA
ATOM     10  C   UNL     1       1.843  -0.922   4.155  0.00  0.00    +0.132 A 
ATOM     11  N   UNL     1       1.835   0.452   4.031  0.00  0.00    -0.311 N 
ATOM     12  C   UNL     1       1.041   1.282   4.948  0.00  0.00    +0.128 C 
ATOM     13  C   UNL     1       1.968   2.313   5.604  0.00  0.00    +0.137 C 
ATOM     14  N   UNL     1       2.755   2.973   4.552  0.00  0.00    -0.350 N 
ATOM     15  C   UNL     1       3.549   2.143   3.635  0.00  0.00    +0.137 C 
ATOM     16  C   UNL     1       2.626   1.113   2.983  0.00  0.00    +0.128 C 
ATOM     17  C   UNL     1       2.747   4.334   4.429  0.00  0.00    +0.146 C 
ATOM     18  N   UNL     1       3.572   4.943   3.523  0.00  0.00    -0.294 N 
ATOM     19  S   UNL     1       1.737   5.248   5.378  0.00  0.00    -0.016 SA
ATOM     20  H   UNL     1       4.417   4.532   3.284  0.00  0.00    +0.154 HD
ENDROOT
BRANCH  18  21
ATOM     21  C   UNL     1       3.196   6.160   2.943  0.00  0.00    +0.051 A 
ATOM     22  C   UNL     1       1.851   6.462   2.743  0.00  0.00    +0.028 A 
ATOM     23  C   UNL     1       1.528   7.679   2.166  0.00  0.00    +0.042 A 
ATOM     24  C   UNL     1       2.545   8.548   1.808  0.00  0.00    +0.129 A 
ATOM     25  N   UNL     1       3.809   8.231   2.011  0.00  0.00    -0.242 NA
ATOM     26  C   UNL     1       4.158   7.086   2.563  0.00  0.00    +0.135 A 
ATOM     27 CL   UNL     1       2.150  10.075   1.083  0.00  0.00    -0.062 Cl
ENDBRANCH  18  21
BRANCH   1  29
ATOM     28  C   UNL     1      -1.644  -0.028   0.744  0.00  0.00    +0.277 C 
ATOM     29  O   UNL     1      -1.644  -1.451   0.873  0.00  0.00    -0.491 OA
ENDBRANCH   1  29
BRANCH   6  30
ATOM     30  O   UNL     1      -1.550  -4.175   1.208  0.00  0.00    -0.490 OA
BRANCH  30  31
ATOM     31  C   UNL     1      -1.455  -5.584   1.426  0.00  0.00    +0.211 C 
BRANCH  31  32
ATOM     32  C   UNL     1      -2.463  -6.308   0.532  0.00  0.00    -0.037 C 
BRANCH  32  33
ATOM     33  N   UNL     1      -2.111  -6.093  -0.878  0.00  0.00    +0.382 N 
ATOM     34  C   UNL     1      -3.160  -6.660  -1.734  0.00  0.00    -0.079 C 
ATOM     35  C   UNL     1      -2.839  -6.368  -3.201  0.00  0.00    -0.019 C 
ATOM     36  C   UNL     1      -1.490  -6.999  -3.558  0.00  0.00    -0.004 C 
ATOM     37  C   UNL     1      -0.417  -6.456  -2.610  0.00  0.00    -0.019 C 
ATOM     38  C   UNL     1      -0.828  -6.745  -1.165  0.00  0.00    -0.079 C 
ATOM     39  H   UNL     1      -2.032  -5.104  -1.056  0.00  0.00    -0.082 HD
ENDBRANCH  32  33
ENDBRANCH  31  32
ENDBRANCH  30  31
ENDBRANCH   6  30
TORSDOF 6
