REMARK  Name = CHEMBL205674
REMARK  10 active torsions:
REMARK  status: ('A' for Active; 'I' for Inactive)
REMARK    1  A    between atoms: C_1  and  O_2
REMARK    2  A    between atoms: O_2  and  C_3
REMARK    3  A    between atoms: C_6  and  O_15
REMARK    4  A    between atoms: C_12  and  O_13
REMARK    5  A    between atoms: O_13  and  C_14
REMARK    6  A    between atoms: O_15  and  C_16
REMARK    7  A    between atoms: C_19  and  N_22
REMARK    8  A    between atoms: N_22  and  C_23
REMARK    9  A    between atoms: C_23  and  N_24
REMARK   10  A    between atoms: N_24  and  C_25
REMARK                            x       y       z     vdW  Elec       q    Type
REMARK                         _______ _______ _______ _____ _____    ______ ____
ROOT
ATOM      1  C   UNL     1      -5.981   2.210  -0.004  0.00  0.00    +0.129 A 
ATOM      2  C   UNL     1      -7.171   1.652   0.439  0.00  0.00    +0.048 A 
ATOM      3  C   UNL     1      -8.333   2.398   0.420  0.00  0.00    +0.027 A 
ATOM      4  C   UNL     1      -8.310   3.707  -0.043  0.00  0.00    +0.033 A 
ATOM      5  C   UNL     1      -7.118   4.265  -0.486  0.00  0.00    +0.027 A 
ATOM      6  C   UNL     1      -5.956   3.519  -0.462  0.00  0.00    +0.048 A 
ENDROOT
BRANCH   4   7
ATOM      7  N   UNL     1      -9.488   4.464  -0.063  0.00  0.00    -0.297 N 
ATOM      8  H   UNL     1      -9.713   4.990  -0.846  0.00  0.00    +0.154 HD
BRANCH   7   9
ATOM      9  C   UNL     1     -10.308   4.463   1.006  0.00  0.00    +0.135 C 
ATOM     10  S   UNL     1      -9.967   3.452   2.345  0.00  0.00    -0.019 S 
BRANCH   9  11
ATOM     11  N   UNL     1     -11.397   5.257   1.021  0.00  0.00    -0.323 N 
ATOM     12  H   UNL     1     -11.591   5.829   0.263  0.00  0.00    +0.148 HD
BRANCH  11  13
ATOM     13  C   UNL     1     -12.289   5.255   2.184  0.00  0.00    +0.072 C 
ATOM     14  C   UNL     1     -11.751   6.221   3.241  0.00  0.00    +0.022 C 
ATOM     15  C   UNL     1     -12.682   6.219   4.455  0.00  0.00    +0.002 C 
ATOM     16  C   UNL     1     -14.082   6.662   4.024  0.00  0.00    +0.000 C 
ATOM     17  C   UNL     1     -14.620   5.696   2.967  0.00  0.00    +0.002 C 
ATOM     18  C   UNL     1     -13.689   5.698   1.753  0.00  0.00    +0.022 C 
ENDBRANCH  11  13
ENDBRANCH   9  11
ENDBRANCH   7   9
ENDBRANCH   4   7
BRANCH   1  19
ATOM     19  O   UNL     1      -4.837   1.475   0.015  0.00  0.00    -0.455 OA
BRANCH  19  23
ATOM     20  C   UNL     1      -1.268  -0.730  -0.248  0.00  0.00    +0.162 A 
ATOM     21  C   UNL     1      -2.413   0.003  -0.132  0.00  0.00    +0.063 A 
ATOM     22  C   UNL     1      -3.449  -0.177  -1.060  0.00  0.00    +0.044 A 
ATOM     23  C   UNL     1      -4.649   0.565  -0.973  0.00  0.00    +0.139 A 
ATOM     24  C   UNL     1      -5.626   0.333  -1.925  0.00  0.00    +0.064 A 
ATOM     25  C   UNL     1      -5.405  -0.606  -2.924  0.00  0.00    +0.086 A 
ATOM     26  N   UNL     1      -4.287  -1.289  -2.997  0.00  0.00    -0.360 N 
ATOM     27  C   UNL     1      -3.300  -1.116  -2.110  0.00  0.00    +0.054 A 
ATOM     28  C   UNL     1      -2.109  -1.856  -2.202  0.00  0.00    +0.075 A 
ATOM     29  C   UNL     1      -1.114  -1.657  -1.289  0.00  0.00    +0.163 A 
ATOM     30  H   UNL     1      -4.173  -1.936  -3.710  0.00  0.00    +0.165 HD
BRANCH  20  32
ATOM     31  C   UNL     1      -0.480   0.402   1.689  0.00  0.00    +0.277 C 
ATOM     32  O   UNL     1      -0.263  -0.556   0.652  0.00  0.00    -0.491 OA
ENDBRANCH  20  32
BRANCH  29  33
ATOM     33  O   UNL     1       0.038  -2.371  -1.387  0.00  0.00    -0.491 OA
ATOM     34  C   UNL     1       0.136  -3.300  -2.468  0.00  0.00    +0.277 C 
ENDBRANCH  29  33
ENDBRANCH  19  23
ENDBRANCH   1  19
TORSDOF 8
