REMARK  Name = CHEMBL186851
REMARK  8 active torsions:
REMARK  status: ('A' for Active; 'I' for Inactive)
REMARK    1  A    between atoms: C_1  and  O_2
REMARK    2  A    between atoms: O_2  and  C_3
REMARK    3  A    between atoms: C_8  and  O_9
REMARK    4  A    between atoms: O_9  and  C_10
REMARK    5  A    between atoms: C_10  and  C_11
REMARK    6  A    between atoms: C_11  and  N_12
REMARK    7  A    between atoms: N_29  and  C_30
REMARK    8  A    between atoms: C_33  and  C_36
REMARK                            x       y       z     vdW  Elec       q    Type
REMARK                         _______ _______ _______ _____ _____    ______ ____
ROOT
ATOM      1  C   UNL     1       1.909  -1.710  -0.252  0.00  0.00    +0.162 A 
ATOM      2  C   UNL     1       2.122  -0.928  -1.351  0.00  0.00    +0.062 A 
ATOM      3  C   UNL     1       2.471  -1.525  -2.569  0.00  0.00    +0.044 A 
ATOM      4  C   UNL     1       2.601  -2.933  -2.654  0.00  0.00    +0.080 A 
ATOM      5  C   UNL     1       2.378  -3.715  -1.514  0.00  0.00    +0.078 A 
ATOM      6  C   UNL     1       2.041  -3.104  -0.327  0.00  0.00    +0.164 A 
ATOM      7  N   UNL     1       2.938  -3.480  -3.833  0.00  0.00    -0.235 NA
ATOM      8  C   UNL     1       3.141  -2.721  -4.883  0.00  0.00    +0.223 A 
ATOM      9  N   UNL     1       3.031  -1.403  -4.851  0.00  0.00    -0.220 NA
ATOM     10  C   UNL     1       2.703  -0.761  -3.737  0.00  0.00    +0.132 A 
ATOM     11  N   UNL     1       2.591   0.614  -3.719  0.00  0.00    -0.311 N 
ATOM     12  C   UNL     1       3.776   1.458  -3.510  0.00  0.00    +0.128 C 
ATOM     13  C   UNL     1       3.884   2.448  -4.676  0.00  0.00    +0.137 C 
ATOM     14  N   UNL     1       2.578   3.095  -4.865  0.00  0.00    -0.350 N 
ATOM     15  C   UNL     1       1.393   2.251  -5.074  0.00  0.00    +0.137 C 
ATOM     16  C   UNL     1       1.286   1.261  -3.913  0.00  0.00    +0.128 C 
ATOM     17  C   UNL     1       2.467   4.457  -4.847  0.00  0.00    +0.146 C 
ATOM     18  N   UNL     1       1.270   5.050  -5.139  0.00  0.00    -0.295 N 
ATOM     19  S   UNL     1       3.786   5.392  -4.470  0.00  0.00    -0.016 SA
ATOM     20  H   UNL     1       0.648   4.615  -5.744  0.00  0.00    +0.154 HD
ENDROOT
BRANCH  18  21
ATOM     21  C   UNL     1       0.942   6.282  -4.567  0.00  0.00    +0.033 A 
ATOM     22  C   UNL     1       0.135   7.176  -5.260  0.00  0.00    +0.024 A 
ATOM     23  C   UNL     1      -0.190   8.392  -4.697  0.00  0.00    +0.012 A 
ATOM     24  C   UNL     1       0.291   8.724  -3.431  0.00  0.00    +0.000 A 
ATOM     25  C   UNL     1       1.100   7.824  -2.737  0.00  0.00    +0.012 A 
ATOM     26  C   UNL     1       1.418   6.608  -3.302  0.00  0.00    +0.024 A 
BRANCH  24  27
ATOM     27  C   UNL     1      -0.056  10.031  -2.824  0.00  0.00    +0.071 A 
ATOM     28  C   UNL     1       0.433  10.358  -1.560  0.00  0.00    +0.028 A 
ATOM     29  C   UNL     1       0.100  11.581  -1.007  0.00  0.00    +0.004 A 
ATOM     30  C   UNL     1      -0.713  12.439  -1.735  0.00  0.00    +0.020 A 
ATOM     31  C   UNL     1      -1.162  12.051  -2.983  0.00  0.00    +0.111 A 
ATOM     32  N   UNL     1      -0.826  10.882  -3.490  0.00  0.00    -0.255 NA
ENDBRANCH  24  27
ENDBRANCH  18  21
BRANCH   1  34
ATOM     33  C   UNL     1       1.451   0.294   0.944  0.00  0.00    +0.277 C 
ATOM     34  O   UNL     1       1.571  -1.130   0.931  0.00  0.00    -0.491 OA
ENDBRANCH   1  34
BRANCH   6  35
ATOM     35  O   UNL     1       1.830  -3.859   0.782  0.00  0.00    -0.490 OA
BRANCH  35  36
ATOM     36  C   UNL     1       1.980  -5.274   0.642  0.00  0.00    +0.211 C 
BRANCH  36  37
ATOM     37  C   UNL     1       1.704  -5.952   1.985  0.00  0.00    -0.037 C 
BRANCH  37  38
ATOM     38  N   UNL     1       0.303  -5.728   2.368  0.00  0.00    +0.382 N 
ATOM     39  C   UNL     1       0.078  -6.249   3.722  0.00  0.00    -0.079 C 
ATOM     40  C   UNL     1      -1.357  -5.947   4.157  0.00  0.00    -0.019 C 
ATOM     41  C   UNL     1      -2.332  -6.615   3.182  0.00  0.00    -0.004 C 
ATOM     42  C   UNL     1      -2.039  -6.120   1.763  0.00  0.00    -0.019 C 
ATOM     43  C   UNL     1      -0.578  -6.416   1.417  0.00  0.00    -0.079 C 
ATOM     44  H   UNL     1       0.105  -4.739   2.353  0.00  0.00    -0.082 HD
ENDBRANCH  37  38
ENDBRANCH  36  37
ENDBRANCH  35  36
ENDBRANCH   6  35
TORSDOF 7
