REMARK  Name = CHEMBL205953
REMARK  8 active torsions:
REMARK  status: ('A' for Active; 'I' for Inactive)
REMARK    1  A    between atoms: C_1  and  O_2
REMARK    2  A    between atoms: O_2  and  C_3
REMARK    3  A    between atoms: C_6  and  O_15
REMARK    4  A    between atoms: C_12  and  O_13
REMARK    5  A    between atoms: O_13  and  C_14
REMARK    6  A    between atoms: O_15  and  C_16
REMARK    7  A    between atoms: C_19  and  N_22
REMARK    8  A    between atoms: N_25  and  C_26
REMARK                            x       y       z     vdW  Elec       q    Type
REMARK                         _______ _______ _______ _____ _____    ______ ____
ROOT
ATOM      1  C   UNL     1      -5.968   2.229  -0.015  0.00  0.00    +0.129 A 
ATOM      2  C   UNL     1      -7.198   1.588   0.031  0.00  0.00    +0.048 A 
ATOM      3  C   UNL     1      -8.364   2.328   0.016  0.00  0.00    +0.027 A 
ATOM      4  C   UNL     1      -8.306   3.713  -0.046  0.00  0.00    +0.035 A 
ATOM      5  C   UNL     1      -7.075   4.355  -0.092  0.00  0.00    +0.027 A 
ATOM      6  C   UNL     1      -5.910   3.614  -0.071  0.00  0.00    +0.048 A 
ENDROOT
BRANCH   4   7
ATOM      7  N   UNL     1      -9.488   4.465  -0.062  0.00  0.00    -0.269 N 
ATOM      8  C   UNL     1     -10.559   4.051   0.644  0.00  0.00    +0.304 C 
ATOM      9  O   UNL     1     -10.527   2.986   1.230  0.00  0.00    -0.253 OA
ATOM     10  N   UNL     1     -11.666   4.818   0.701  0.00  0.00    -0.296 N 
ATOM     11  H   UNL     1      -9.536   5.283  -0.581  0.00  0.00    +0.156 HD
ATOM     12  H   UNL     1     -11.692   5.667   0.234  0.00  0.00    +0.151 HD
BRANCH  10  13
ATOM     13  C   UNL     1     -12.830   4.368   1.468  0.00  0.00    +0.074 C 
ATOM     14  C   UNL     1     -12.658   4.765   2.936  0.00  0.00    +0.022 C 
ATOM     15  C   UNL     1     -13.873   4.295   3.737  0.00  0.00    +0.002 C 
ATOM     16  C   UNL     1     -15.138   4.949   3.177  0.00  0.00    +0.000 C 
ATOM     17  C   UNL     1     -15.310   4.553   1.709  0.00  0.00    +0.002 C 
ATOM     18  C   UNL     1     -14.094   5.022   0.908  0.00  0.00    +0.022 C 
ENDBRANCH  10  13
ENDBRANCH   4   7
BRANCH   1  19
ATOM     19  O   UNL     1      -4.821   1.500   0.001  0.00  0.00    -0.455 OA
BRANCH  19  23
ATOM     20  C   UNL     1      -1.163  -0.556  -0.258  0.00  0.00    +0.162 A 
ATOM     21  C   UNL     1      -2.343   0.121  -0.139  0.00  0.00    +0.063 A 
ATOM     22  C   UNL     1      -3.230   0.167  -1.224  0.00  0.00    +0.044 A 
ATOM     23  C   UNL     1      -4.459   0.858  -1.138  0.00  0.00    +0.139 A 
ATOM     24  C   UNL     1      -5.282   0.860  -2.250  0.00  0.00    +0.064 A 
ATOM     25  C   UNL     1      -4.885   0.193  -3.402  0.00  0.00    +0.086 A 
ATOM     26  N   UNL     1      -3.741  -0.446  -3.472  0.00  0.00    -0.360 N 
ATOM     27  C   UNL     1      -2.896  -0.489  -2.435  0.00  0.00    +0.054 A 
ATOM     28  C   UNL     1      -1.676  -1.178  -2.527  0.00  0.00    +0.075 A 
ATOM     29  C   UNL     1      -0.828  -1.202  -1.457  0.00  0.00    +0.163 A 
ATOM     30  H   UNL     1      -3.502  -0.899  -4.295  0.00  0.00    +0.165 HD
BRANCH  20  32
ATOM     31  C   UNL     1      -0.703   0.075   1.988  0.00  0.00    +0.277 C 
ATOM     32  O   UNL     1      -0.303  -0.601   0.794  0.00  0.00    -0.491 OA
ENDBRANCH  20  32
BRANCH  29  33
ATOM     33  O   UNL     1       0.355  -1.864  -1.554  0.00  0.00    -0.491 OA
ATOM     34  C   UNL     1       0.641  -2.502  -2.800  0.00  0.00    +0.277 C 
ENDBRANCH  29  33
ENDBRANCH  19  23
ENDBRANCH   1  19
TORSDOF 6
