REMARK  Name = CHEMBL488984
REMARK  4 active torsions:
REMARK  status: ('A' for Active; 'I' for Inactive)
REMARK    1  A    between atoms: C_3  and  C_28
REMARK    2  A    between atoms: C_5  and  N_7
REMARK    3  A    between atoms: C_13  and  C_17
REMARK    4  A    between atoms: N_19  and  C_20
REMARK                            x       y       z     vdW  Elec       q    Type
REMARK                         _______ _______ _______ _____ _____    ______ ____
ROOT
ATOM      1  N   UNL     1       1.201  -2.042   0.038  0.00  0.00    -0.296 N 
ATOM      2  C   UNL     1       0.023  -2.769   0.141  0.00  0.00    +0.174 A 
ATOM      3  C   UNL     1      -0.095  -4.232   0.231  0.00  0.00    +0.064 A 
ATOM      4  C   UNL     1       0.834  -5.274   0.241  0.00  0.00    +0.016 A 
ATOM      5  C   UNL     1       0.406  -6.580   0.337  0.00  0.00    +0.021 A 
ATOM      6  C   UNL     1      -0.945  -6.873   0.425  0.00  0.00    +0.057 A 
ATOM      7  C   UNL     1      -1.891  -5.848   0.417  0.00  0.00    +0.101 A 
ATOM      8  C   UNL     1      -1.466  -4.513   0.319  0.00  0.00    +0.183 A 
ATOM      9  O   UNL     1      -2.120  -3.337   0.286  0.00  0.00    -0.352 OA
ATOM     10  N   UNL     1      -1.186  -2.281   0.183  0.00  0.00    -0.062 NA
ATOM     11 CL   UNL     1      -1.464  -8.526   0.544  0.00  0.00    -0.083 Cl
ATOM     12  H   UNL     1       2.049  -2.503  -0.061  0.00  0.00    +0.154 HD
ENDROOT
BRANCH   1  17
ATOM     13  C   UNL     1       2.142   1.473  -0.481  0.00  0.00    +0.002 A 
ATOM     14  C   UNL     1       1.099   2.120   0.156  0.00  0.00    +0.012 A 
ATOM     15  C   UNL     1       0.090   1.388   0.754  0.00  0.00    +0.057 A 
ATOM     16  C   UNL     1       0.120   0.007   0.716  0.00  0.00    +0.035 A 
ATOM     17  C   UNL     1       1.167  -0.645   0.077  0.00  0.00    +0.033 A 
ATOM     18  C   UNL     1       2.179   0.093  -0.523  0.00  0.00    +0.023 A 
BRANCH  15  19
ATOM     19  C   UNL     1      -1.045   2.097   1.447  0.00  0.00    +0.417 C 
ATOM     20  F   UNL     1      -0.858   3.480   1.353  0.00  0.00    -0.166 F 
ATOM     21  F   UNL     1      -2.255   1.748   0.837  0.00  0.00    -0.166 F 
ATOM     22  F   UNL     1      -1.077   1.721   2.794  0.00  0.00    -0.166 F 
ENDBRANCH  15  19
ENDBRANCH   1  17
BRANCH   7  23
ATOM     23  C   UNL     1      -3.328  -6.163   0.510  0.00  0.00    +0.253 C 
ATOM     24  O   UNL     1      -3.866  -6.235   1.598  0.00  0.00    -0.270 OA
ATOM     25  N   UNL     1      -4.046  -6.373  -0.612  0.00  0.00    -0.279 N 
ATOM     26  H   UNL     1      -3.602  -6.398  -1.474  0.00  0.00    +0.155 HD
BRANCH  25  27
ATOM     27  C   UNL     1      -5.433  -6.556  -0.532  0.00  0.00    +0.070 A 
ATOM     28  C   UNL     1      -6.162  -6.020   0.526  0.00  0.00    +0.139 A 
ATOM     29  N   UNL     1      -7.470  -6.212   0.568  0.00  0.00    -0.221 NA
ATOM     30  C   UNL     1      -8.085  -6.904  -0.379  0.00  0.00    +0.213 A 
ATOM     31  N   UNL     1      -7.424  -7.428  -1.400  0.00  0.00    -0.221 NA
ATOM     32  C   UNL     1      -6.115  -7.272  -1.511  0.00  0.00    +0.139 A 
ATOM     33  N   UNL     1      -9.457  -7.085  -0.300  0.00  0.00    -0.327 N 
ATOM     34  H   UNL     1      -9.954  -6.707   0.442  0.00  0.00    +0.145 HD
ATOM     35  H   UNL     1      -9.921  -7.590  -0.987  0.00  0.00    +0.145 HD
ENDBRANCH  25  27
ENDBRANCH   7  23
TORSDOF 4
