REMARK  Name = CHEMBL223360
REMARK  4 active torsions:
REMARK  status: ('A' for Active; 'I' for Inactive)
REMARK    1  A    between atoms: C_1  and  C_2
REMARK    2  A    between atoms: C_6  and  N_8
REMARK    3  A    between atoms: N_11  and  C_12
REMARK    4  A    between atoms: C_15  and  C_18
REMARK                            x       y       z     vdW  Elec       q    Type
REMARK                         _______ _______ _______ _____ _____    ______ ____
ROOT
ATOM      1  C   UNL     1       0.212  -2.252   6.007  0.00  0.00    +0.035 A 
ATOM      2  C   UNL     1       0.095  -0.867   6.021  0.00  0.00    +0.024 A 
ATOM      3  C   UNL     1       0.089  -0.186   7.220  0.00  0.00    +0.010 A 
ATOM      4  C   UNL     1       0.200  -0.889   8.420  0.00  0.00    -0.017 A 
ATOM      5  C   UNL     1       0.318  -2.279   8.403  0.00  0.00    +0.010 A 
ATOM      6  C   UNL     1       0.317  -2.955   7.202  0.00  0.00    +0.024 A 
ENDROOT
BRANCH   4   7
ATOM      7  C   UNL     1       0.195  -0.161   9.710  0.00  0.00    -0.005 A 
ATOM      8  C   UNL     1      -0.862   0.678  10.035  0.00  0.00    +0.009 A 
ATOM      9  C   UNL     1      -0.868   1.360  11.242  0.00  0.00    +0.003 A 
ATOM     10  C   UNL     1       0.169   1.219  12.137  0.00  0.00    +0.028 A 
ATOM     11  C   UNL     1       1.243   0.384  11.838  0.00  0.00    +0.068 A 
ATOM     12  C   UNL     1       1.259  -0.318  10.619  0.00  0.00    +0.049 A 
ATOM     13  C   UNL     1       2.494  -1.098  10.608  0.00  0.00    +0.146 A 
ATOM     14  N   UNL     1       3.123  -0.862  11.730  0.00  0.00    -0.158 NA
ATOM     15  N   UNL     1       2.392   0.045  12.505  0.00  0.00    -0.275 N 
ATOM     16  H   UNL     1       2.653   0.375  13.379  0.00  0.00    +0.189 HD
ATOM     17  N   UNL     1       2.926  -1.945   9.583  0.00  0.00    -0.341 N 
ATOM     18  H   UNL     1       2.429  -1.994   8.752  0.00  0.00    +0.144 HD
ATOM     19  H   UNL     1       3.724  -2.484   9.703  0.00  0.00    +0.144 HD
ENDBRANCH   4   7
BRANCH   1  23
ATOM     20  N   UNL     1       0.575  -2.955   2.483  0.00  0.00    -0.267 N 
ATOM     21  C   UNL     1       0.663  -2.329   3.674  0.00  0.00    +0.308 C 
ATOM     22  O   UNL     1       1.144  -1.214   3.740  0.00  0.00    -0.252 OA
ATOM     23  N   UNL     1       0.217  -2.939   4.790  0.00  0.00    -0.269 N 
ATOM     24  H   UNL     1       0.132  -3.816   2.419  0.00  0.00    +0.156 HD
ATOM     25  H   UNL     1      -0.099  -3.855   4.749  0.00  0.00    +0.156 HD
BRANCH  20  31
ATOM     26  C   UNL     1       1.615   1.097  -0.101  0.00  0.00    +0.044 C 
ATOM     27  C   UNL     1       1.641  -0.401   0.060  0.00  0.00    -0.049 A 
ATOM     28  C   UNL     1       2.207  -1.191  -0.924  0.00  0.00    +0.006 A 
ATOM     29  C   UNL     1       2.233  -2.566  -0.781  0.00  0.00    +0.040 A 
ATOM     30  C   UNL     1       1.693  -3.155   0.348  0.00  0.00    +0.145 A 
ATOM     31  C   UNL     1       1.123  -2.362   1.338  0.00  0.00    +0.070 A 
ATOM     32  C   UNL     1       1.105  -0.982   1.193  0.00  0.00    +0.029 A 
ATOM     33  F   UNL     1       1.717  -4.499   0.488  0.00  0.00    -0.204 F 
ENDBRANCH  20  31
ENDBRANCH   1  23
TORSDOF 3
