REMARK  Name = CHEMBL247585
REMARK  3 active torsions:
REMARK  status: ('A' for Active; 'I' for Inactive)
REMARK    1  A    between atoms: C_4  and  C_7
REMARK    2  A    between atoms: N_9  and  C_10
REMARK    3  A    between atoms: C_22  and  C_23
REMARK                            x       y       z     vdW  Elec       q    Type
REMARK                         _______ _______ _______ _____ _____    ______ ____
ROOT
ATOM      1  C   UNL     1       4.960  -2.664  -0.154  0.00  0.00    +0.038 A 
ATOM      2  C   UNL     1       6.129  -1.910  -0.148  0.00  0.00    +0.023 A 
ATOM      3  C   UNL     1       7.356  -2.536  -0.255  0.00  0.00    +0.002 A 
ATOM      4  C   UNL     1       7.433  -3.909  -0.368  0.00  0.00    +0.010 A 
ATOM      5  C   UNL     1       6.265  -4.677  -0.375  0.00  0.00    +0.005 A 
ATOM      6  C   UNL     1       5.030  -4.042  -0.261  0.00  0.00    -0.013 A 
ATOM      7  C   UNL     1       3.975  -5.120  -0.291  0.00  0.00    +0.077 C 
ATOM      8  C   UNL     1       4.724  -6.424  -0.426  0.00  0.00    +0.010 A 
ATOM      9  C   UNL     1       6.055  -6.138  -0.482  0.00  0.00    +0.070 A 
ATOM     10  N   UNL     1       6.721  -7.325  -0.609  0.00  0.00    -0.276 N 
ATOM     11  N   UNL     1       5.770  -8.352  -0.647  0.00  0.00    -0.173 NA
ATOM     12  H   UNL     1       7.683  -7.436  -0.662  0.00  0.00    +0.189 HD
ATOM     13  C   UNL     1       4.573  -7.816  -0.523  0.00  0.00    +0.097 A 
ENDROOT
BRANCH  13  14
ATOM     14  C   UNL     1       3.285  -8.555  -0.516  0.00  0.00    +0.009 A 
ATOM     15  C   UNL     1       3.121  -9.706  -1.279  0.00  0.00    +0.017 A 
ATOM     16  C   UNL     1       1.933 -10.351  -1.246  0.00  0.00    +0.046 A 
ATOM     17  S   UNL     1       0.986  -9.342  -0.119  0.00  0.00    -0.104 S 
ATOM     18  C   UNL     1       2.236  -8.122   0.245  0.00  0.00    +0.055 A 
ENDBRANCH  13  14
BRANCH   1  21
ATOM     19  C   UNL     1       3.624  -0.825   0.547  0.00  0.00    +0.248 C 
ATOM     20  O   UNL     1       4.601  -0.331   1.076  0.00  0.00    -0.270 OA
ATOM     21  N   UNL     1       3.717  -2.032  -0.046  0.00  0.00    -0.281 N 
ATOM     22  H   UNL     1       2.922  -2.462  -0.397  0.00  0.00    +0.155 HD
BRANCH  19  26
ATOM     23  C   UNL     1      -0.079   1.254   0.565  0.00  0.00    +0.000 A 
ATOM     24  C   UNL     1       1.030   1.818   1.169  0.00  0.00    +0.001 A 
ATOM     25  C   UNL     1       2.236   1.148   1.167  0.00  0.00    +0.013 A 
ATOM     26  C   UNL     1       2.335  -0.102   0.554  0.00  0.00    +0.037 A 
ATOM     27  C   UNL     1       1.212  -0.666  -0.053  0.00  0.00    +0.013 A 
ATOM     28  C   UNL     1       0.012   0.015  -0.045  0.00  0.00    +0.001 A 
ENDBRANCH  19  26
ENDBRANCH   1  21
TORSDOF 3
