REMARK  Name = CHEMBL566635
REMARK  7 active torsions:
REMARK  status: ('A' for Active; 'I' for Inactive)
REMARK    1  A    between atoms: C_1  and  N_2
REMARK    2  A    between atoms: C_6  and  C_9
REMARK    3  A    between atoms: N_21  and  C_22
REMARK    4  A    between atoms: C_25  and  N_28
REMARK    5  A    between atoms: C_29  and  C_31
REMARK    6  A    between atoms: C_31  and  C_32
REMARK    7  A    between atoms: C_32  and  N_33
REMARK                            x       y       z     vdW  Elec       q    Type
REMARK                         _______ _______ _______ _____ _____    ______ ____
ROOT
ATOM      1  C   UNL     1       0.039   1.339   0.005  0.00  0.00    +0.154 C 
ATOM      2  N   UNL     1       0.041  -0.124  -0.059  0.00  0.00    -0.295 N 
ATOM      3  C   UNL     1      -1.151  -0.805  -0.075  0.00  0.00    +0.148 A 
ATOM      4  C   UNL     1      -1.167  -2.215  -0.136  0.00  0.00    +0.037 A 
ATOM      5  C   UNL     1       0.047  -2.939  -0.180  0.00  0.00    +0.027 A 
ATOM      6  C   UNL     1       1.231  -2.252  -0.163  0.00  0.00    +0.050 A 
ATOM      7  C   UNL     1       1.212  -0.788  -0.106  0.00  0.00    +0.260 A 
ATOM      8  O   UNL     1       2.260  -0.169  -0.095  0.00  0.00    -0.267 OA
ATOM      9  C   UNL     1      -2.406  -2.873  -0.151  0.00  0.00    +0.126 A 
ATOM     10  N   UNL     1      -3.507  -2.146  -0.109  0.00  0.00    -0.222 NA
ATOM     11  C   UNL     1      -3.454  -0.820  -0.052  0.00  0.00    +0.221 A 
ATOM     12  N   UNL     1      -2.308  -0.155  -0.035  0.00  0.00    -0.196 NA
ATOM     13  N   UNL     1      -4.637  -0.107  -0.009  0.00  0.00    -0.284 N 
ATOM     14  H   UNL     1      -4.619   0.858   0.088  0.00  0.00    +0.155 HD
ENDROOT
BRANCH   6  15
ATOM     15  C   UNL     1       2.519  -2.981  -0.209  0.00  0.00    +0.024 A 
ATOM     16  C   UNL     1       3.139  -3.383   0.975  0.00  0.00    +0.050 A 
ATOM     17  C   UNL     1       4.340  -4.063   0.925  0.00  0.00    +0.021 A 
ATOM     18  C   UNL     1       4.930  -4.345  -0.294  0.00  0.00    +0.003 A 
ATOM     19  C   UNL     1       4.321  -3.949  -1.471  0.00  0.00    +0.021 A 
ATOM     20  C   UNL     1       3.116  -3.274  -1.436  0.00  0.00    +0.050 A 
ATOM     21 CL   UNL     1       2.350  -2.784  -2.915  0.00  0.00    -0.083 Cl
ATOM     22 CL   UNL     1       2.402  -3.030   2.506  0.00  0.00    -0.083 Cl
ENDBRANCH   6  15
BRANCH  13  23
ATOM     23  C   UNL     1      -5.861  -0.778  -0.105  0.00  0.00    +0.034 A 
ATOM     24  C   UNL     1      -6.015  -2.031   0.476  0.00  0.00    +0.025 A 
ATOM     25  C   UNL     1      -7.223  -2.692   0.382  0.00  0.00    +0.025 A 
ATOM     26  C   UNL     1      -8.284  -2.106  -0.294  0.00  0.00    +0.033 A 
ATOM     27  C   UNL     1      -8.131  -0.854  -0.875  0.00  0.00    +0.025 A 
ATOM     28  C   UNL     1      -6.925  -0.190  -0.776  0.00  0.00    +0.025 A 
BRANCH  26  29
ATOM     29  N   UNL     1      -9.510  -2.778  -0.391  0.00  0.00    -0.286 N 
ATOM     30  C   UNL     1      -9.944  -3.539   0.633  0.00  0.00    +0.215 C 
ATOM     31  O   UNL     1      -9.241  -3.702   1.608  0.00  0.00    -0.276 OA
ATOM     32  H   UNL     1     -10.047  -2.695  -1.195  0.00  0.00    +0.155 HD
BRANCH  30  33
ATOM     33  C   UNL     1     -11.302  -4.188   0.567  0.00  0.00    +0.076 C 
BRANCH  33  34
ATOM     34  C   UNL     1     -11.547  -4.990   1.847  0.00  0.00    -0.077 C 
BRANCH  34  35
ATOM     35  N   UNL     1     -12.871  -5.623   1.782  0.00  0.00    +0.378 N 
ATOM     36  H   UNL     1     -13.580  -4.911   1.691  0.00  0.00    -0.090 HD
ATOM     37  H   UNL     1     -12.910  -6.241   0.986  0.00  0.00    -0.090 HD
ATOM     38  H   UNL     1     -13.032  -6.152   2.626  0.00  0.00    -0.090 HD
ENDBRANCH  34  35
ENDBRANCH  33  34
ENDBRANCH  30  33
ENDBRANCH  26  29
ENDBRANCH  13  23
TORSDOF 6
