REMARK  Name = CHEMBL414001
REMARK  5 active torsions:
REMARK  status: ('A' for Active; 'I' for Inactive)
REMARK    1  A    between atoms: C_1  and  N_2
REMARK    2  A    between atoms: N_5  and  C_8
REMARK    3  A    between atoms: C_11  and  N_14
REMARK    4  A    between atoms: C_21  and  C_35
REMARK    5  A    between atoms: N_23  and  C_26
REMARK                            x       y       z     vdW  Elec       q    Type
REMARK                         _______ _______ _______ _____ _____    ______ ____
ROOT
ATOM      1  N   UNL     1      -2.500  -6.983   3.899  0.00  0.00    -0.284 N 
ATOM      2  C   UNL     1      -1.671  -7.459   4.896  0.00  0.00    +0.221 A 
ATOM      3  N   UNL     1      -0.538  -6.812   5.147  0.00  0.00    -0.222 NA
ATOM      4  C   UNL     1       0.289  -7.227   6.091  0.00  0.00    +0.129 A 
ATOM      5  C   UNL     1      -0.055  -8.366   6.822  0.00  0.00    +0.083 A 
ATOM      6  C   UNL     1       0.805  -8.896   7.889  0.00  0.00    +0.204 A 
ATOM      7  O   UNL     1       1.861  -8.360   8.181  0.00  0.00    -0.286 OA
ATOM      8  C   UNL     1       0.336 -10.104   8.591  0.00  0.00    +0.100 A 
ATOM      9  C   UNL     1      -0.866 -10.665   8.218  0.00  0.00    +0.110 A 
ATOM     10  N   UNL     1      -1.625 -10.150   7.235  0.00  0.00    -0.300 N 
ATOM     11  C   UNL     1      -1.264  -9.029   6.530  0.00  0.00    +0.154 A 
ATOM     12  N   UNL     1      -2.038  -8.539   5.568  0.00  0.00    -0.196 NA
ATOM     13  H   UNL     1      -3.371  -7.387   3.759  0.00  0.00    +0.155 HD
ENDROOT
BRANCH  10  14
ATOM     14  C   UNL     1      -2.833 -10.782   6.918  0.00  0.00    +0.048 A 
ATOM     15  C   UNL     1      -3.870 -10.809   7.843  0.00  0.00    +0.026 A 
ATOM     16  C   UNL     1      -5.058 -11.433   7.525  0.00  0.00    +0.006 A 
ATOM     17  C   UNL     1      -5.223 -12.034   6.287  0.00  0.00    -0.044 A 
ATOM     18  C   UNL     1      -4.193 -12.009   5.364  0.00  0.00    -0.042 A 
ATOM     19  C   UNL     1      -3.002 -11.380   5.677  0.00  0.00    +0.030 A 
ATOM     20  C   UNL     1      -4.620 -12.729   4.102  0.00  0.00    +0.036 C 
ATOM     21  C   UNL     1      -5.848 -13.569   4.511  0.00  0.00    +0.009 C 
ATOM     22  C   UNL     1      -6.411 -12.772   5.707  0.00  0.00    +0.036 C 
ENDBRANCH  10  14
BRANCH   1  26
ATOM     23  C   UNL     1      -1.262  -3.809   1.494  0.00  0.00    +0.030 A 
ATOM     24  C   UNL     1      -0.336  -4.740   1.947  0.00  0.00    +0.025 A 
ATOM     25  C   UNL     1      -0.746  -5.790   2.744  0.00  0.00    +0.025 A 
ATOM     26  C   UNL     1      -2.084  -5.917   3.091  0.00  0.00    +0.034 A 
ATOM     27  C   UNL     1      -3.011  -4.987   2.638  0.00  0.00    +0.025 A 
ATOM     28  C   UNL     1      -2.600  -3.933   1.846  0.00  0.00    +0.025 A 
BRANCH  23  33
ATOM     29  C   UNL     1       0.117  -1.060  -3.034  0.00  0.00    +0.105 C 
ATOM     30  N   UNL     1      -0.144  -1.343  -1.617  0.00  0.00    -0.302 NA
ATOM     31  C   UNL     1       0.758  -2.388  -1.113  0.00  0.00    +0.103 C 
ATOM     32  C   UNL     1       0.580  -2.525   0.402  0.00  0.00    +0.120 C 
ATOM     33  N   UNL     1      -0.846  -2.744   0.687  0.00  0.00    -0.327 N 
ATOM     34  C   UNL     1      -1.824  -1.815   0.102  0.00  0.00    +0.120 C 
ATOM     35  C   UNL     1      -1.552  -1.705  -1.402  0.00  0.00    +0.103 C 
ENDBRANCH  23  33
ENDBRANCH   1  26
BRANCH   8  36
ATOM     36  C   UNL     1       1.137 -10.700   9.671  0.00  0.00    +0.247 C 
ATOM     37  O   UNL     1       0.696 -11.637  10.309  0.00  0.00    -0.270 OA
ATOM     38  N   UNL     1       2.359 -10.208   9.954  0.00  0.00    -0.325 N 
ATOM     39  H   UNL     1       2.681  -9.416   9.496  0.00  0.00    +0.145 HD
ATOM     40  H   UNL     1       2.917 -10.646  10.616  0.00  0.00    +0.145 HD
ENDBRANCH   8  36
TORSDOF 4
