REMARK  Name = CHEMBL398872
REMARK  10 active torsions:
REMARK  status: ('A' for Active; 'I' for Inactive)
REMARK    1  A    between atoms: C_4  and  N_21
REMARK    2  A    between atoms: C_5  and  C_7
REMARK    3  A    between atoms: N_9  and  C_10
REMARK    4  A    between atoms: N_21  and  C_22
REMARK    5  A    between atoms: C_22  and  C_23
REMARK    6  A    between atoms: C_27  and  C_29
REMARK    7  A    between atoms: N_31  and  C_32
REMARK    8  A    between atoms: C_32  and  C_33
REMARK    9  A    between atoms: C_33  and  C_34
REMARK   10  A    between atoms: C_34  and  N_35
REMARK                            x       y       z     vdW  Elec       q    Type
REMARK                         _______ _______ _______ _____ _____    ______ ____
ROOT
ATOM      1  N   UNL     1       3.664  -0.587  -0.593  0.00  0.00    -0.339 N 
ATOM      2  H   UNL     1       3.735  -1.552  -0.524  0.00  0.00    +0.146 HD
ENDROOT
BRANCH   1   6
ATOM      3  C   UNL     1      -0.004   1.285   0.042  0.00  0.00    +0.001 A 
ATOM      4  C   UNL     1       1.143   2.040  -0.147  0.00  0.00    +0.002 A 
ATOM      5  C   UNL     1       2.359   1.423  -0.357  0.00  0.00    +0.024 A 
ATOM      6  C   UNL     1       2.441   0.036  -0.381  0.00  0.00    +0.040 A 
ATOM      7  C   UNL     1       1.282  -0.732  -0.190  0.00  0.00    +0.058 A 
ATOM      8  C   UNL     1       0.058  -0.091   0.021  0.00  0.00    +0.015 A 
BRANCH   7   9
ATOM      9  C   UNL     1       1.355  -2.204  -0.214  0.00  0.00    +0.250 C 
ATOM     10  O   UNL     1       2.434  -2.758  -0.292  0.00  0.00    -0.270 OA
ATOM     11  N   UNL     1       0.225  -2.935  -0.148  0.00  0.00    -0.281 N 
ATOM     12  H   UNL     1      -0.640  -2.495  -0.162  0.00  0.00    +0.155 HD
BRANCH  11  13
ATOM     13  C   UNL     1       0.298  -4.331  -0.061  0.00  0.00    +0.037 A 
ATOM     14  C   UNL     1      -0.677  -5.117  -0.660  0.00  0.00    +0.027 A 
ATOM     15  C   UNL     1      -0.606  -6.494  -0.575  0.00  0.00    +0.051 A 
ATOM     16  C   UNL     1       0.439  -7.095   0.108  0.00  0.00    +0.173 A 
ATOM     17  C   UNL     1       1.419  -6.310   0.710  0.00  0.00    +0.174 A 
ATOM     18  C   UNL     1       1.350  -4.929   0.619  0.00  0.00    +0.073 A 
ATOM     19  O   UNL     1       2.328  -7.131   1.313  0.00  0.00    -0.395 OA
ATOM     20  C   UNL     1       1.675  -8.410   1.423  0.00  0.00    +0.589 C 
ATOM     21  O   UNL     1       0.734  -8.409   0.334  0.00  0.00    -0.395 OA
ATOM     22  F   UNL     1       2.601  -9.449   1.273  0.00  0.00    -0.125 F 
ATOM     23  F   UNL     1       1.009  -8.518   2.649  0.00  0.00    -0.125 F 
ENDBRANCH  11  13
ENDBRANCH   7   9
ENDBRANCH   1   6
BRANCH   1  24
ATOM     24  C   UNL     1       4.847   0.212  -0.922  0.00  0.00    +0.137 C 
BRANCH  24  25
ATOM     25  C   UNL     1       6.035  -0.698  -1.101  0.00  0.00    -0.027 A 
ATOM     26  C   UNL     1       6.843  -1.028  -0.024  0.00  0.00    +0.025 A 
ATOM     27  C   UNL     1       7.927  -1.868  -0.222  0.00  0.00    +0.112 A 
ATOM     28  N   UNL     1       8.198  -2.353  -1.414  0.00  0.00    -0.250 NA
ATOM     29  C   UNL     1       7.449  -2.061  -2.470  0.00  0.00    +0.126 A 
ATOM     30  C   UNL     1       6.340  -1.228  -2.344  0.00  0.00    +0.038 A 
BRANCH  29  31
ATOM     31  C   UNL     1       7.793  -2.632  -3.794  0.00  0.00    +0.262 C 
ATOM     32  O   UNL     1       7.111  -2.368  -4.765  0.00  0.00    -0.269 OA
ATOM     33  N   UNL     1       8.861  -3.443  -3.921  0.00  0.00    -0.310 N 
ATOM     34  H   UNL     1       9.406  -3.653  -3.147  0.00  0.00    +0.149 HD
BRANCH  33  35
ATOM     35  C   UNL     1       9.201  -4.007  -5.230  0.00  0.00    +0.106 C 
BRANCH  35  36
ATOM     36  C   UNL     1      10.447  -4.885  -5.099  0.00  0.00    +0.034 C 
BRANCH  36  37
ATOM     37  C   UNL     1      10.802  -5.474  -6.466  0.00  0.00    +0.086 C 
BRANCH  37  38
ATOM     38  N   UNL     1      11.998  -6.317  -6.341  0.00  0.00    -0.298 NA
ATOM     39  C   UNL     1      13.178  -5.510  -5.998  0.00  0.00    +0.112 C 
ATOM     40  C   UNL     1      14.386  -6.433  -5.819  0.00  0.00    +0.175 C 
ATOM     41  O   UNL     1      14.580  -7.195  -7.013  0.00  0.00    -0.377 OA
ATOM     42  C   UNL     1      13.450  -7.993  -7.376  0.00  0.00    +0.175 C 
ATOM     43  C   UNL     1      12.232  -7.086  -7.572  0.00  0.00    +0.112 C 
ENDBRANCH  37  38
ENDBRANCH  36  37
ENDBRANCH  35  36
ENDBRANCH  33  35
ENDBRANCH  29  31
ENDBRANCH  24  25
ENDBRANCH   1  24
TORSDOF 10
