REMARK  Name = CHEMBL184129
REMARK  10 active torsions:
REMARK  status: ('A' for Active; 'I' for Inactive)
REMARK    1  A    between atoms: C_1  and  C_2
REMARK    2  A    between atoms: C_5  and  C_7
REMARK    3  A    between atoms: C_7  and  N_8
REMARK    4  A    between atoms: C_19  and  O_36
REMARK    5  A    between atoms: C_20  and  O_26
REMARK    6  A    between atoms: O_26  and  C_27
REMARK    7  A    between atoms: C_27  and  C_28
REMARK    8  A    between atoms: C_28  and  C_29
REMARK    9  A    between atoms: C_29  and  N_30
REMARK   10  A    between atoms: O_36  and  C_37
REMARK                            x       y       z     vdW  Elec       q    Type
REMARK                         _______ _______ _______ _____ _____    ______ ____
ROOT
ATOM      1  N   UNL     1       0.011  -4.440  -0.893  0.00  0.00    -0.360 N 
ATOM      2  C   UNL     1       1.364  -4.626  -0.853  0.00  0.00    +0.142 C 
ATOM      3  N   UNL     1       1.927  -5.325   0.177  0.00  0.00    -0.308 N 
ATOM      4  C   UNL     1       1.371  -6.620   0.595  0.00  0.00    +0.126 C 
ATOM      5  C   UNL     1       2.487  -7.670   0.548  0.00  0.00    +0.125 C 
ATOM      6  N   UNL     1       3.660  -7.141   1.258  0.00  0.00    -0.312 N 
ATOM      7  C   UNL     1       4.216  -5.847   0.840  0.00  0.00    +0.125 C 
ATOM      8  C   UNL     1       3.104  -4.798   0.883  0.00  0.00    +0.126 C 
ATOM      9  C   UNL     1       4.229  -7.847   2.298  0.00  0.00    +0.132 A 
ATOM     10  C   UNL     1       5.189  -8.857   2.051  0.00  0.00    +0.044 A 
ATOM     11  C   UNL     1       5.603  -9.185   0.754  0.00  0.00    +0.062 A 
ATOM     12  C   UNL     1       6.533 -10.168   0.569  0.00  0.00    +0.162 A 
ATOM     13  C   UNL     1       7.078 -10.853   1.664  0.00  0.00    +0.164 A 
ATOM     14  C   UNL     1       6.688 -10.550   2.949  0.00  0.00    +0.078 A 
ATOM     15  C   UNL     1       5.736  -9.545   3.162  0.00  0.00    +0.080 A 
ATOM     16  N   UNL     1       5.322  -9.211   4.395  0.00  0.00    -0.235 NA
ATOM     17  C   UNL     1       4.429  -8.266   4.563  0.00  0.00    +0.223 A 
ATOM     18  N   UNL     1       3.894  -7.593   3.556  0.00  0.00    -0.220 NA
ATOM     19  S   UNL     1       2.323  -4.003  -2.056  0.00  0.00    -0.016 SA
ATOM     20  H   UNL     1      -0.399  -4.029  -1.671  0.00  0.00    +0.162 HD
ENDROOT
BRANCH  12  21
ATOM     21  O   UNL     1       6.934 -10.485  -0.691  0.00  0.00    -0.491 OA
ATOM     22  C   UNL     1       6.342  -9.752  -1.764  0.00  0.00    +0.277 C 
ENDBRANCH  12  21
BRANCH   1  23
ATOM     23  C   UNL     1      -0.820  -4.860   0.237  0.00  0.00    +0.189 C 
BRANCH  23  28
ATOM     24  C   UNL     1      -4.998  -2.034   0.281  0.00  0.00    +0.086 C 
ATOM     25  C   UNL     1      -4.058  -3.185   0.029  0.00  0.00    +0.102 A 
ATOM     26  C   UNL     1      -4.369  -4.330  -0.604  0.00  0.00    +0.045 A 
ATOM     27  C   UNL     1      -3.198  -5.122  -0.617  0.00  0.00    +0.047 A 
ATOM     28  C   UNL     1      -2.241  -4.414   0.010  0.00  0.00    +0.124 A 
ATOM     29  O   UNL     1      -2.767  -3.239   0.394  0.00  0.00    -0.463 OA
ENDBRANCH  23  28
ENDBRANCH   1  23
BRANCH  13  30
ATOM     30  O   UNL     1       8.001 -11.828   1.454  0.00  0.00    -0.488 OA
BRANCH  30  31
ATOM     31  C   UNL     1       8.519 -12.490   2.610  0.00  0.00    +0.227 C 
BRANCH  31  32
ATOM     32  C   UNL     1       9.538 -13.547   2.178  0.00  0.00    +0.022 C 
BRANCH  32  33
ATOM     33  C   UNL     1      10.093 -14.256   3.416  0.00  0.00    -0.076 C 
BRANCH  33  34
ATOM     34  N   UNL     1      11.070 -15.271   3.001  0.00  0.00    +0.380 N 
ATOM     35  C   UNL     1      10.392 -16.311   2.219  0.00  0.00    -0.079 C 
ATOM     36  C   UNL     1      11.419 -17.328   1.716  0.00  0.00    -0.019 C 
ATOM     37  C   UNL     1      12.125 -17.968   2.916  0.00  0.00    -0.004 C 
ATOM     38  C   UNL     1      12.766 -16.866   3.765  0.00  0.00    -0.019 C 
ATOM     39  C   UNL     1      11.689 -15.866   4.191  0.00  0.00    -0.079 C 
ATOM     40  H   UNL     1      11.783 -14.837   2.434  0.00  0.00    -0.082 HD
ENDBRANCH  33  34
ENDBRANCH  32  33
ENDBRANCH  31  32
ENDBRANCH  30  31
ENDBRANCH  13  30
TORSDOF 8
