REMARK  Name = CHEMBL1079545
REMARK  7 active torsions:
REMARK  status: ('A' for Active; 'I' for Inactive)
REMARK    1  A    between atoms: C_1  and  C_2
REMARK    2  A    between atoms: C_2  and  C_3
REMARK    3  A    between atoms: C_2  and  C_4
REMARK    4  A    between atoms: C_2  and  C_5
REMARK    5  A    between atoms: N_13  and  C_14
REMARK    6  A    between atoms: C_17  and  N_20
REMARK    7  A    between atoms: C_21  and  C_23
REMARK                            x       y       z     vdW  Elec       q    Type
REMARK                         _______ _______ _______ _____ _____    ______ ____
ROOT
ATOM      1  C   UNL     1       6.717   0.688  -3.188  0.00  0.00    +0.035 A 
ATOM      2  C   UNL     1       6.916   0.857  -1.824  0.00  0.00    +0.025 A 
ATOM      3  C   UNL     1       7.960   1.638  -1.370  0.00  0.00    +0.025 A 
ATOM      4  C   UNL     1       8.811   2.255  -2.278  0.00  0.00    +0.034 A 
ATOM      5  C   UNL     1       8.612   2.086  -3.642  0.00  0.00    +0.025 A 
ATOM      6  C   UNL     1       7.572   1.300  -4.096  0.00  0.00    +0.025 A 
ENDROOT
BRANCH   1  15
ATOM      7  C   UNL     1       0.685  -0.429  -1.218  0.00  0.00    +0.144 A 
ATOM      8  C   UNL     1       1.960  -0.172  -1.558  0.00  0.00    +0.092 A 
ATOM      9  C   UNL     1       2.229  -0.827  -2.781  0.00  0.00    +0.169 A 
ATOM     10  N   UNL     1       1.140  -1.453  -3.149  0.00  0.00    -0.063 NA
ATOM     11  O   UNL     1       0.150  -1.215  -2.165  0.00  0.00    -0.357 OA
ATOM     12  N   UNL     1       3.439  -0.810  -3.473  0.00  0.00    -0.251 N 
ATOM     13  C   UNL     1       4.488  -0.122  -2.980  0.00  0.00    +0.309 C 
ATOM     14  O   UNL     1       4.378   0.485  -1.932  0.00  0.00    -0.252 OA
ATOM     15  N   UNL     1       5.658  -0.105  -3.649  0.00  0.00    -0.269 N 
ATOM     16  H   UNL     1       3.527  -1.294  -4.309  0.00  0.00    +0.158 HD
ATOM     17  H   UNL     1       5.767  -0.642  -4.449  0.00  0.00    +0.156 HD
BRANCH   7  19
ATOM     18  C   UNL     1      -0.034   1.603   0.008  0.00  0.00    +0.019 C 
ATOM     19  C   UNL     1      -0.019   0.073   0.016  0.00  0.00    +0.023 C 
ATOM     20  C   UNL     1       0.719  -0.422   1.262  0.00  0.00    +0.019 C 
ATOM     21  C   UNL     1      -1.456  -0.452   0.033  0.00  0.00    +0.019 C 
ENDBRANCH   7  19
ENDBRANCH   1  15
BRANCH   4  22
ATOM     22  N   UNL     1       9.869   3.047  -1.817  0.00  0.00    -0.280 N 
ATOM     23  C   UNL     1      10.519   2.712  -0.685  0.00  0.00    +0.270 C 
ATOM     24  O   UNL     1      10.134   1.771  -0.019  0.00  0.00    -0.268 OA
ATOM     25  H   UNL     1      10.134   3.838  -2.313  0.00  0.00    +0.155 HD
BRANCH  23  26
ATOM     26  C   UNL     1      11.700   3.489  -0.254  0.00  0.00    +0.172 A 
ATOM     27  C   UNL     1      12.371   3.138   0.922  0.00  0.00    +0.209 A 
ATOM     28  C   UNL     1      13.482   3.882   1.312  0.00  0.00    +0.054 A 
ATOM     29  C   UNL     1      13.877   4.943   0.517  0.00  0.00    +0.023 A 
ATOM     30  C   UNL     1      13.162   5.233  -0.637  0.00  0.00    +0.112 A 
ATOM     31  N   UNL     1      12.120   4.514  -0.988  0.00  0.00    -0.247 NA
ATOM     32  O   UNL     1      11.947   2.089   1.671  0.00  0.00    -0.285 OA
ENDBRANCH  23  26
ENDBRANCH   4  22
TORSDOF 4
