REMARK  Name = CHEMBL186682
REMARK  10 active torsions:
REMARK  status: ('A' for Active; 'I' for Inactive)
REMARK    1  A    between atoms: C_1  and  O_2
REMARK    2  A    between atoms: O_2  and  C_3
REMARK    3  A    between atoms: C_8  and  O_9
REMARK    4  A    between atoms: O_9  and  C_10
REMARK    5  A    between atoms: C_10  and  C_11
REMARK    6  A    between atoms: C_11  and  N_12
REMARK    7  A    between atoms: N_25  and  C_28
REMARK    8  A    between atoms: C_28  and  N_29
REMARK    9  A    between atoms: N_29  and  C_30
REMARK   10  A    between atoms: C_30  and  C_31
REMARK                            x       y       z     vdW  Elec       q    Type
REMARK                         _______ _______ _______ _____ _____    ______ ____
ROOT
ATOM      1  C   UNL     1      -1.645  -0.387   0.040  0.00  0.00    +0.162 A 
ATOM      2  C   UNL     1      -2.889   0.175   0.069  0.00  0.00    +0.062 A 
ATOM      3  C   UNL     1      -4.020  -0.648   0.126  0.00  0.00    +0.044 A 
ATOM      4  C   UNL     1      -3.869  -2.056   0.154  0.00  0.00    +0.080 A 
ATOM      5  C   UNL     1      -2.583  -2.611   0.123  0.00  0.00    +0.078 A 
ATOM      6  C   UNL     1      -1.487  -1.780   0.062  0.00  0.00    +0.164 A 
ATOM      7  N   UNL     1      -4.970  -2.822   0.209  0.00  0.00    -0.235 NA
ATOM      8  C   UNL     1      -6.161  -2.274   0.236  0.00  0.00    +0.223 A 
ATOM      9  N   UNL     1      -6.351  -0.964   0.212  0.00  0.00    -0.220 NA
ATOM     10  C   UNL     1      -5.332  -0.117   0.158  0.00  0.00    +0.132 A 
ATOM     11  N   UNL     1      -5.545   1.246   0.133  0.00  0.00    -0.312 N 
ATOM     12  C   UNL     1      -5.815   1.938  -1.135  0.00  0.00    +0.125 C 
ATOM     13  C   UNL     1      -7.135   2.709  -1.000  0.00  0.00    +0.125 C 
ATOM     14  N   UNL     1      -7.095   3.494   0.241  0.00  0.00    -0.310 N 
ATOM     15  C   UNL     1      -6.825   2.802   1.509  0.00  0.00    +0.125 C 
ATOM     16  C   UNL     1      -5.511   2.031   1.376  0.00  0.00    +0.125 C 
ENDROOT
BRANCH   1  18
ATOM     17  C   UNL     1      -0.772   1.824  -0.035  0.00  0.00    +0.277 C 
ATOM     18  O   UNL     1      -0.546   0.413  -0.016  0.00  0.00    -0.491 OA
ENDBRANCH   1  18
BRANCH  14  19
ATOM     19  C   UNL     1      -7.303   4.826   0.217  0.00  0.00    +0.133 C 
ATOM     20  S   UNL     1      -7.493   5.636  -1.279  0.00  0.00    -0.019 S 
BRANCH  19  21
ATOM     21  N   UNL     1      -7.362   5.519   1.372  0.00  0.00    -0.322 N 
ATOM     22  H   UNL     1      -7.184   5.074   2.215  0.00  0.00    +0.148 HD
BRANCH  21  23
ATOM     23  C   UNL     1      -7.697   6.946   1.353  0.00  0.00    +0.140 C 
BRANCH  23  24
ATOM     24  C   UNL     1      -7.696   7.480   2.762  0.00  0.00    -0.012 A 
ATOM     25  C   UNL     1      -8.855   7.454   3.523  0.00  0.00    +0.009 A 
ATOM     26  C   UNL     1      -8.808   7.956   4.814  0.00  0.00    +0.040 A 
ATOM     27  C   UNL     1      -7.614   8.464   5.297  0.00  0.00    +0.129 A 
ATOM     28  N   UNL     1      -6.532   8.473   4.543  0.00  0.00    -0.243 NA
ATOM     29  C   UNL     1      -6.539   7.998   3.312  0.00  0.00    +0.117 A 
ATOM     30 CL   UNL     1      -7.542   9.097   6.911  0.00  0.00    -0.062 Cl
ENDBRANCH  23  24
ENDBRANCH  21  23
ENDBRANCH  19  21
ENDBRANCH  14  19
BRANCH   6  31
ATOM     31  O   UNL     1      -0.239  -2.315   0.027  0.00  0.00    -0.490 OA
BRANCH  31  32
ATOM     32  C   UNL     1      -0.144  -3.741   0.051  0.00  0.00    +0.211 C 
BRANCH  32  33
ATOM     33  C   UNL     1       1.329  -4.154   0.006  0.00  0.00    -0.037 C 
BRANCH  33  34
ATOM     34  N   UNL     1       2.016  -3.649   1.201  0.00  0.00    +0.382 N 
ATOM     35  C   UNL     1       3.455  -3.914   1.085  0.00  0.00    -0.079 C 
ATOM     36  C   UNL     1       4.187  -3.318   2.289  0.00  0.00    -0.019 C 
ATOM     37  C   UNL     1       3.650  -3.957   3.574  0.00  0.00    -0.004 C 
ATOM     38  C   UNL     1       2.136  -3.737   3.647  0.00  0.00    -0.019 C 
ATOM     39  C   UNL     1       1.481  -4.318   2.393  0.00  0.00    -0.079 C 
ATOM     40  H   UNL     1       1.865  -2.654   1.279  0.00  0.00    -0.082 HD
ENDBRANCH  33  34
ENDBRANCH  32  33
ENDBRANCH  31  32
ENDBRANCH   6  31
TORSDOF 9
