REMARK  Name = CHEMBL246166
REMARK  9 active torsions:
REMARK  status: ('A' for Active; 'I' for Inactive)
REMARK    1  A    between atoms: C_1  and  O_2
REMARK    2  A    between atoms: O_2  and  C_3
REMARK    3  A    between atoms: C_3  and  C_5
REMARK    4  A    between atoms: N_7  and  C_8
REMARK    5  A    between atoms: C_20  and  C_21
REMARK    6  A    between atoms: C_23  and  C_26
REMARK    7  A    between atoms: C_27  and  C_28
REMARK    8  A    between atoms: C_28  and  O_29
REMARK    9  A    between atoms: O_29  and  C_30
REMARK                            x       y       z     vdW  Elec       q    Type
REMARK                         _______ _______ _______ _____ _____    ______ ____
ROOT
ATOM      1  C   UNL     1      -2.548  -4.141  -0.086  0.00  0.00    +0.038 A 
ATOM      2  C   UNL     1      -1.403  -4.932  -0.090  0.00  0.00    +0.023 A 
ATOM      3  C   UNL     1      -1.512  -6.306  -0.186  0.00  0.00    +0.002 A 
ATOM      4  C   UNL     1      -2.753  -6.904  -0.279  0.00  0.00    +0.010 A 
ATOM      5  C   UNL     1      -3.909  -6.119  -0.276  0.00  0.00    +0.005 A 
ATOM      6  C   UNL     1      -3.795  -4.735  -0.173  0.00  0.00    -0.013 A 
ATOM      7  C   UNL     1      -5.196  -4.174  -0.188  0.00  0.00    +0.077 C 
ATOM      8  C   UNL     1      -6.114  -5.366  -0.302  0.00  0.00    +0.010 A 
ATOM      9  C   UNL     1      -5.341  -6.486  -0.362  0.00  0.00    +0.070 A 
ATOM     10  N   UNL     1      -6.183  -7.557  -0.470  0.00  0.00    -0.276 N 
ATOM     11  N   UNL     1      -7.497  -7.072  -0.493  0.00  0.00    -0.173 NA
ATOM     12  H   UNL     1      -5.918  -8.488  -0.520  0.00  0.00    +0.189 HD
ATOM     13  C   UNL     1      -7.459  -5.761  -0.378  0.00  0.00    +0.097 A 
ENDROOT
BRANCH  13  14
ATOM     14  C   UNL     1      -8.635  -4.854  -0.361  0.00  0.00    +0.011 A 
ATOM     15  C   UNL     1      -9.766  -5.150  -1.104  0.00  0.00    +0.034 A 
ATOM     16  C   UNL     1     -10.827  -4.287  -1.058  0.00  0.00    +0.063 A 
ATOM     17  S   UNL     1     -10.235  -3.022   0.054  0.00  0.00    -0.088 S 
ATOM     18  C   UNL     1      -8.624  -3.713   0.395  0.00  0.00    +0.056 A 
BRANCH  16  19
ATOM     19  C   UNL     1     -12.089  -4.374  -1.730  0.00  0.00    -0.056 C 
ATOM     20  C   UNL     1     -13.123  -4.446  -2.281  0.00  0.00    -0.056 C 
BRANCH  20  21
ATOM     21  C   UNL     1     -14.420  -4.537  -2.972  0.00  0.00    +0.318 C 
BRANCH  21  22
ATOM     22  O   UNL     1     -15.223  -3.406  -2.626  0.00  0.00    -0.480 OA
BRANCH  22  23
ATOM     23  C   UNL     1     -16.461  -3.336  -3.183  0.00  0.00    +0.122 A 
ATOM     24  C   UNL     1     -16.895  -4.337  -4.040  0.00  0.00    +0.046 A 
ATOM     25  C   UNL     1     -18.154  -4.263  -4.605  0.00  0.00    +0.004 A 
ATOM     26  C   UNL     1     -18.980  -3.192  -4.317  0.00  0.00    +0.000 A 
ATOM     27  C   UNL     1     -18.549  -2.193  -3.464  0.00  0.00    +0.004 A 
ATOM     28  C   UNL     1     -17.294  -2.265  -2.892  0.00  0.00    +0.046 A 
ENDBRANCH  22  23
ENDBRANCH  21  22
ENDBRANCH  20  21
ENDBRANCH  16  19
ENDBRANCH  13  14
BRANCH   1  31
ATOM     29  C   UNL     1      -1.402  -2.115  -0.569  0.00  0.00    +0.326 C 
ATOM     30  O   UNL     1      -0.520  -2.754  -1.105  0.00  0.00    -0.263 OA
ATOM     31  N   UNL     1      -2.439  -2.752   0.011  0.00  0.00    -0.276 N 
ATOM     32  H   UNL     1      -3.109  -2.245   0.495  0.00  0.00    +0.155 HD
BRANCH  29  33
ATOM     33  C   UNL     1      -1.337  -0.623  -0.551  0.00  0.00    +0.395 C 
ATOM     34  O   UNL     1      -2.218   0.016  -0.016  0.00  0.00    -0.240 OA
BRANCH  33  36
ATOM     35  C   UNL     1      -0.305   1.440  -1.076  0.00  0.00    +0.280 C 
ATOM     36  O   UNL     1      -0.302   0.012  -1.130  0.00  0.00    -0.461 OA
ENDBRANCH  33  36
ENDBRANCH  29  33
ENDBRANCH   1  31
TORSDOF 8
