REMARK  Name = CHEMBL453057
REMARK  7 active torsions:
REMARK  status: ('A' for Active; 'I' for Inactive)
REMARK    1  A    between atoms: C_1  and  C_2
REMARK    2  A    between atoms: C_6  and  N_8
REMARK    3  A    between atoms: N_11  and  C_12
REMARK    4  A    between atoms: C_15  and  C_18
REMARK    5  A    between atoms: C_22  and  C_28
REMARK    6  A    between atoms: C_26  and  N_27
REMARK    7  A    between atoms: N_31  and  C_33
REMARK                            x       y       z     vdW  Elec       q    Type
REMARK                         _______ _______ _______ _____ _____    ______ ____
ROOT
ATOM      1  C   UNL     1      -0.065  -6.219   3.647  0.00  0.00    +0.035 A 
ATOM      2  C   UNL     1      -0.054  -6.910   2.442  0.00  0.00    +0.024 A 
ATOM      3  C   UNL     1      -0.032  -8.289   2.437  0.00  0.00    +0.010 A 
ATOM      4  C   UNL     1      -0.019  -8.989   3.643  0.00  0.00    -0.013 A 
ATOM      5  C   UNL     1      -0.030  -8.293   4.851  0.00  0.00    +0.010 A 
ATOM      6  C   UNL     1      -0.047  -6.914   4.850  0.00  0.00    +0.024 A 
ENDROOT
BRANCH   4   7
ATOM      7  C   UNL     1       0.005 -10.471   3.640  0.00  0.00    +0.038 A 
ATOM      8  C   UNL     1      -1.081 -11.202   3.122  0.00  0.00    +0.125 A 
ATOM      9  N   UNL     1      -1.056 -12.514   3.122  0.00  0.00    -0.236 NA
ATOM     10  C   UNL     1      -0.008 -13.194   3.610  0.00  0.00    +0.147 A 
ATOM     11  C   UNL     1       0.245 -14.560   3.717  0.00  0.00    +0.029 A 
ATOM     12  C   UNL     1       1.515 -14.697   4.315  0.00  0.00    +0.030 A 
ATOM     13  C   UNL     1       1.998 -13.459   4.552  0.00  0.00    +0.095 A 
ATOM     14  N   UNL     1       1.084 -12.533   4.130  0.00  0.00    -0.288 N 
ATOM     15  C   UNL     1       1.101 -11.159   4.144  0.00  0.00    +0.111 A 
BRANCH  11  16
ATOM     16  C   UNL     1      -0.652 -15.661   3.286  0.00  0.00    +0.023 A 
ATOM     17  C   UNL     1      -2.019 -15.792   3.600  0.00  0.00    +0.143 A 
ATOM     18  N   UNL     1      -2.462 -16.887   3.041  0.00  0.00    -0.179 NA
ATOM     19  N   UNL     1      -1.405 -17.496   2.353  0.00  0.00    -0.274 N 
ATOM     20  C   UNL     1      -0.304 -16.727   2.509  0.00  0.00    +0.116 A 
ATOM     21  C   UNL     1      -1.481 -18.745   1.591  0.00  0.00    +0.172 C 
ENDBRANCH  11  16
BRANCH  15  22
ATOM     22  N   UNL     1       2.182 -10.478   4.653  0.00  0.00    -0.344 N 
ATOM     23  H   UNL     1       2.184  -9.508   4.662  0.00  0.00    +0.144 HD
ATOM     24  H   UNL     1       2.943 -10.967   5.002  0.00  0.00    +0.144 HD
ENDBRANCH  15  22
ENDBRANCH   4   7
BRANCH   1  28
ATOM     25  N   UNL     1      -0.678  -2.809   2.618  0.00  0.00    -0.269 N 
ATOM     26  C   UNL     1      -0.742  -4.154   2.676  0.00  0.00    +0.308 C 
ATOM     27  O   UNL     1      -1.389  -4.768   1.850  0.00  0.00    -0.252 OA
ATOM     28  N   UNL     1      -0.088  -4.819   3.650  0.00  0.00    -0.269 N 
ATOM     29  H   UNL     1      -0.102  -2.325   3.230  0.00  0.00    +0.156 HD
ATOM     30  H   UNL     1       0.365  -4.327   4.352  0.00  0.00    +0.156 HD
BRANCH  25  36
ATOM     31  C   UNL     1      -1.185   1.025  -0.417  0.00  0.00    +0.044 C 
ATOM     32  C   UNL     1      -1.712  -0.251   0.188  0.00  0.00    -0.049 A 
ATOM     33  C   UNL     1      -2.951  -0.734  -0.189  0.00  0.00    +0.003 A 
ATOM     34  C   UNL     1      -3.438  -1.904   0.363  0.00  0.00    +0.002 A 
ATOM     35  C   UNL     1      -2.687  -2.595   1.294  0.00  0.00    +0.023 A 
ATOM     36  C   UNL     1      -1.441  -2.112   1.675  0.00  0.00    +0.035 A 
ATOM     37  C   UNL     1      -0.953  -0.939   1.114  0.00  0.00    +0.026 A 
ENDBRANCH  25  36
ENDBRANCH   1  28
TORSDOF 5
