REMARK  Name = CHEMBL382399
REMARK  9 active torsions:
REMARK  status: ('A' for Active; 'I' for Inactive)
REMARK    1  A    between atoms: C_1  and  O_2
REMARK    2  A    between atoms: O_2  and  C_3
REMARK    3  A    between atoms: C_8  and  O_9
REMARK    4  A    between atoms: O_9  and  C_10
REMARK    5  A    between atoms: C_14  and  O_15
REMARK    6  A    between atoms: O_15  and  C_16
REMARK    7  A    between atoms: C_19  and  N_22
REMARK    8  A    between atoms: N_24  and  C_25
REMARK    9  A    between atoms: C_25  and  C_26
REMARK                            x       y       z     vdW  Elec       q    Type
REMARK                         _______ _______ _______ _____ _____    ______ ____
ROOT
ATOM      1  C   UNL     1       4.394   1.247  -5.747  0.00  0.00    +0.131 A 
ATOM      2  C   UNL     1       4.540   1.119  -7.121  0.00  0.00    +0.048 A 
ATOM      3  C   UNL     1       4.659   2.246  -7.911  0.00  0.00    +0.027 A 
ATOM      4  C   UNL     1       4.633   3.507  -7.330  0.00  0.00    +0.033 A 
ATOM      5  C   UNL     1       4.488   3.634  -5.955  0.00  0.00    +0.027 A 
ATOM      6  C   UNL     1       4.363   2.507  -5.167  0.00  0.00    +0.048 A 
ENDROOT
BRANCH   4   7
ATOM      7  N   UNL     1       4.755   4.650  -8.130  0.00  0.00    -0.295 N 
ATOM      8  C   UNL     1       4.231   4.659  -9.394  0.00  0.00    +0.143 C 
ATOM      9  N   UNL     1       4.761   5.482 -10.347  0.00  0.00    -0.367 N 
ATOM     10  S   UNL     1       2.952   3.670  -9.769  0.00  0.00    -0.016 SA
ATOM     11  H   UNL     1       5.210   5.435  -7.788  0.00  0.00    +0.154 HD
ATOM     12  H   UNL     1       5.509   6.060 -10.128  0.00  0.00    +0.161 HD
BRANCH   9  13
ATOM     13  C   UNL     1       4.201   5.491 -11.700  0.00  0.00    +0.118 C 
BRANCH  13  14
ATOM     14  C   UNL     1       4.970   6.493 -12.564  0.00  0.00    +0.008 C 
ATOM     15  C   UNL     1       4.750   7.907 -12.025  0.00  0.00    +0.005 C 
ATOM     16  C   UNL     1       5.519   8.908 -12.889  0.00  0.00    +0.000 C 
ATOM     17  C   UNL     1       5.017   8.829 -14.332  0.00  0.00    +0.000 C 
ATOM     18  C   UNL     1       5.238   7.414 -14.871  0.00  0.00    +0.000 C 
ATOM     19  C   UNL     1       4.468   6.413 -14.007  0.00  0.00    +0.005 C 
ENDBRANCH  13  14
ENDBRANCH   9  13
ENDBRANCH   4   7
BRANCH   1  20
ATOM     20  O   UNL     1       4.277   0.138  -4.970  0.00  0.00    -0.437 OA
BRANCH  20  30
ATOM     21  C   UNL     1       4.200  -3.164  -2.354  0.00  0.00    +0.162 A 
ATOM     22  C   UNL     1       4.181  -2.088  -3.195  0.00  0.00    +0.064 A 
ATOM     23  C   UNL     1       5.364  -1.676  -3.821  0.00  0.00    +0.066 A 
ATOM     24  C   UNL     1       6.572  -2.376  -3.578  0.00  0.00    +0.082 A 
ATOM     25  C   UNL     1       6.569  -3.476  -2.712  0.00  0.00    +0.078 A 
ATOM     26  C   UNL     1       5.393  -3.857  -2.105  0.00  0.00    +0.164 A 
ATOM     27  N   UNL     1       7.692  -1.960  -4.190  0.00  0.00    -0.235 NA
ATOM     28  C   UNL     1       7.663  -0.926  -4.996  0.00  0.00    +0.225 A 
ATOM     29  N   UNL     1       6.558  -0.243  -5.252  0.00  0.00    -0.201 NA
ATOM     30  C   UNL     1       5.399  -0.570  -4.700  0.00  0.00    +0.231 A 
BRANCH  21  32
ATOM     31  C   UNL     1       1.869  -2.816  -2.040  0.00  0.00    +0.277 C 
ATOM     32  O   UNL     1       3.051  -3.563  -1.746  0.00  0.00    -0.491 OA
ENDBRANCH  21  32
BRANCH  26  33
ATOM     33  O   UNL     1       5.387  -4.921  -1.260  0.00  0.00    -0.491 OA
ATOM     34  C   UNL     1       6.634  -5.587  -1.047  0.00  0.00    +0.277 C 
ENDBRANCH  26  33
ENDBRANCH  20  30
ENDBRANCH   1  20
TORSDOF 7
