REMARK  Name = CHEMBL352308
REMARK  17 active torsions:
REMARK  status: ('A' for Active; 'I' for Inactive)
REMARK    1  A    between atoms: C_1  and  C_2
REMARK    2  A    between atoms: C_2  and  C_3
REMARK    3  A    between atoms: C_2  and  C_4
REMARK    4  A    between atoms: C_2  and  C_5
REMARK    5  A    between atoms: C_8  and  N_11
REMARK    6  A    between atoms: N_11  and  C_12
REMARK    7  A    between atoms: C_15  and  O_18
REMARK    8  A    between atoms: O_18  and  C_19
REMARK    9  A    between atoms: C_26  and  O_36
REMARK   10  A    between atoms: C_27  and  O_29
REMARK   11  A    between atoms: O_29  and  C_30
REMARK   12  A    between atoms: C_30  and  C_31
REMARK   13  A    between atoms: C_31  and  N_32
REMARK   14  A    between atoms: N_32  and  C_33
REMARK   15  A    between atoms: C_33  and  C_34
REMARK   16  A    between atoms: C_34  and  O_35
REMARK   17  A    between atoms: O_36  and  C_37
REMARK                            x       y       z     vdW  Elec       q    Type
REMARK                         _______ _______ _______ _____ _____    ______ ____
ROOT
ATOM      1  C   UNL     1       8.398  -1.093  -7.097  0.00  0.00    +0.139 A 
ATOM      2  C   UNL     1       7.608  -1.818  -7.971  0.00  0.00    +0.064 A 
ATOM      3  C   UNL     1       8.112  -2.185  -9.212  0.00  0.00    +0.086 A 
ATOM      4  N   UNL     1       9.328  -1.864  -9.588  0.00  0.00    -0.360 N 
ATOM      5  C   UNL     1      10.146  -1.165  -8.793  0.00  0.00    +0.054 A 
ATOM      6  C   UNL     1       9.703  -0.748  -7.514  0.00  0.00    +0.044 A 
ATOM      7  C   UNL     1      10.562  -0.010  -6.684  0.00  0.00    +0.063 A 
ATOM      8  C   UNL     1      11.816   0.305  -7.120  0.00  0.00    +0.162 A 
ATOM      9  C   UNL     1      12.255  -0.101  -8.389  0.00  0.00    +0.164 A 
ATOM     10  C   UNL     1      11.446  -0.830  -9.210  0.00  0.00    +0.075 A 
ATOM     11  H   UNL     1       9.642  -2.141 -10.463  0.00  0.00    +0.165 HD
ENDROOT
BRANCH   8  12
ATOM     12  O   UNL     1      12.648   1.020  -6.317  0.00  0.00    -0.491 OA
ATOM     13  C   UNL     1      12.142   1.405  -5.037  0.00  0.00    +0.277 C 
ENDBRANCH   8  12
BRANCH   1  14
ATOM     14  O   UNL     1       7.933  -0.720  -5.879  0.00  0.00    -0.455 OA
BRANCH  14  18
ATOM     15  C   UNL     1       4.002  -1.586  -4.960  0.00  0.00    +0.032 A 
ATOM     16  C   UNL     1       4.362  -0.295  -5.325  0.00  0.00    +0.027 A 
ATOM     17  C   UNL     1       5.677  -0.006  -5.632  0.00  0.00    +0.048 A 
ATOM     18  C   UNL     1       6.638  -1.005  -5.576  0.00  0.00    +0.129 A 
ATOM     19  C   UNL     1       6.279  -2.295  -5.212  0.00  0.00    +0.048 A 
ATOM     20  C   UNL     1       4.966  -2.584  -4.899  0.00  0.00    +0.027 A 
BRANCH  15  21
ATOM     21  N   UNL     1       2.670  -1.879  -4.648  0.00  0.00    -0.314 N 
ATOM     22  H   UNL     1       2.465  -2.560  -3.988  0.00  0.00    +0.152 HD
BRANCH  21  26
ATOM     23  C   UNL     1      -0.414   0.171  -6.552  0.00  0.00    -0.042 A 
ATOM     24  C   UNL     1      -0.624  -0.387  -5.305  0.00  0.00    +0.006 A 
ATOM     25  C   UNL     1       0.396  -1.068  -4.670  0.00  0.00    +0.023 A 
ATOM     26  C   UNL     1       1.635  -1.192  -5.287  0.00  0.00    +0.031 A 
ATOM     27  C   UNL     1       1.843  -0.630  -6.541  0.00  0.00    +0.023 A 
ATOM     28  C   UNL     1       0.816   0.045  -7.171  0.00  0.00    +0.006 A 
BRANCH  23  30
ATOM     29  C   UNL     1      -1.853   0.228  -8.571  0.00  0.00    +0.015 C 
ATOM     30  C   UNL     1      -1.530   0.913  -7.242  0.00  0.00    -0.013 C 
ATOM     31  C   UNL     1      -1.097   2.357  -7.504  0.00  0.00    +0.015 C 
ATOM     32  C   UNL     1      -2.773   0.907  -6.350  0.00  0.00    +0.015 C 
ENDBRANCH  23  30
ENDBRANCH  21  26
ENDBRANCH  15  21
ENDBRANCH  14  18
ENDBRANCH   1  14
BRANCH   9  33
ATOM     33  O   UNL     1      13.509   0.225  -8.800  0.00  0.00    -0.490 OA
BRANCH  33  34
ATOM     34  C   UNL     1      13.900  -0.216 -10.102  0.00  0.00    +0.210 C 
BRANCH  34  35
ATOM     35  C   UNL     1      15.331   0.242 -10.387  0.00  0.00    -0.041 C 
BRANCH  35  36
ATOM     36  N   UNL     1      16.253  -0.424  -9.457  0.00  0.00    +0.383 N 
ATOM     37  H   UNL     1      16.006  -0.184  -8.509  0.00  0.00    -0.086 HD
ATOM     38  H   UNL     1      16.189  -1.424  -9.579  0.00  0.00    -0.086 HD
BRANCH  36  39
ATOM     39  C   UNL     1      17.628   0.016  -9.731  0.00  0.00    -0.054 C 
BRANCH  39  40
ATOM     40  C   UNL     1      18.588  -0.678  -8.763  0.00  0.00    +0.137 C 
BRANCH  40  41
ATOM     41  O   UNL     1      18.584  -2.085  -9.015  0.00  0.00    -0.397 OA
ATOM     42  H   UNL     1      19.172  -2.590  -8.436  0.00  0.00    +0.209 HD
ENDBRANCH  40  41
ENDBRANCH  39  40
ENDBRANCH  36  39
ENDBRANCH  35  36
ENDBRANCH  34  35
ENDBRANCH  33  34
ENDBRANCH   9  33
TORSDOF 13
