REMARK  Name = CHEMBL222315
REMARK  3 active torsions:
REMARK  status: ('A' for Active; 'I' for Inactive)
REMARK    1  A    between atoms: C_3  and  C_12
REMARK    2  A    between atoms: C_15  and  N_18
REMARK    3  A    between atoms: C_19  and  C_21
REMARK                            x       y       z     vdW  Elec       q    Type
REMARK                         _______ _______ _______ _____ _____    ______ ____
ROOT
ATOM      1  C   UNL     1       3.737   2.098   0.349  0.00  0.00    -0.017 A 
ATOM      2  C   UNL     1       4.675   1.948   1.372  0.00  0.00    +0.010 A 
ATOM      3  C   UNL     1       5.818   2.718   1.375  0.00  0.00    +0.024 A 
ATOM      4  C   UNL     1       6.038   3.642   0.360  0.00  0.00    +0.033 A 
ATOM      5  C   UNL     1       5.106   3.792  -0.660  0.00  0.00    +0.024 A 
ATOM      6  C   UNL     1       3.963   3.022  -0.671  0.00  0.00    +0.010 A 
ENDROOT
BRANCH   1   9
ATOM      7  C   UNL     1       1.061  -0.309  -0.751  0.00  0.00    +0.003 A 
ATOM      8  C   UNL     1       2.212   0.465  -0.745  0.00  0.00    +0.009 A 
ATOM      9  C   UNL     1       2.508   1.272   0.344  0.00  0.00    -0.005 A 
ATOM     10  C   UNL     1       1.629   1.299   1.444  0.00  0.00    +0.049 A 
ATOM     11  C   UNL     1       0.465   0.509   1.426  0.00  0.00    +0.068 A 
ATOM     12  C   UNL     1       0.194  -0.291   0.318  0.00  0.00    +0.028 A 
ATOM     13  N   UNL     1      -0.186   0.736   2.611  0.00  0.00    -0.275 N 
ATOM     14  H   UNL     1      -1.023   0.326   2.880  0.00  0.00    +0.189 HD
ATOM     15  N   UNL     1       0.549   1.652   3.371  0.00  0.00    -0.158 NA
ATOM     16  C   UNL     1       1.625   2.010   2.721  0.00  0.00    +0.146 A 
ATOM     17  N   UNL     1       2.597   2.909   3.167  0.00  0.00    -0.341 N 
ATOM     18  H   UNL     1       3.309   3.190   2.571  0.00  0.00    +0.144 HD
ATOM     19  H   UNL     1       2.561   3.253   4.074  0.00  0.00    +0.144 HD
ENDBRANCH   1   9
BRANCH   4  20
ATOM     20  N   UNL     1       7.199   4.421   0.365  0.00  0.00    -0.285 N 
ATOM     21  C   UNL     1       8.359   3.900   0.810  0.00  0.00    +0.220 C 
ATOM     22  O   UNL     1       8.380   2.782   1.282  0.00  0.00    -0.275 OA
ATOM     23  H   UNL     1       7.169   5.338   0.049  0.00  0.00    +0.155 HD
BRANCH  21  24
ATOM     24  C   UNL     1       9.630   4.704   0.721  0.00  0.00    +0.075 C 
ATOM     25  C   UNL     1       9.916   5.047  -0.742  0.00  0.00    +0.013 C 
ATOM     26  C   UNL     1      11.206   5.864  -0.833  0.00  0.00    +0.001 C 
ATOM     27  C   UNL     1      12.368   5.046  -0.264  0.00  0.00    +0.000 C 
ATOM     28  C   UNL     1      12.082   4.704   1.200  0.00  0.00    +0.001 C 
ATOM     29  C   UNL     1      10.792   3.887   1.290  0.00  0.00    +0.013 C 
ENDBRANCH  21  24
ENDBRANCH   4  20
TORSDOF 3
