REMARK  Name = CHEMBL372388
REMARK  8 active torsions:
REMARK  status: ('A' for Active; 'I' for Inactive)
REMARK    1  A    between atoms: C_1  and  C_2
REMARK    2  A    between atoms: C_6  and  N_8
REMARK    3  A    between atoms: N_11  and  C_12
REMARK    4  A    between atoms: C_15  and  C_18
REMARK    5  A    between atoms: C_19  and  C_28
REMARK    6  A    between atoms: C_23  and  N_27
REMARK    7  A    between atoms: C_28  and  N_29
REMARK    8  A    between atoms: N_32  and  C_35
REMARK                            x       y       z     vdW  Elec       q    Type
REMARK                         _______ _______ _______ _____ _____    ______ ____
ROOT
ATOM      1  C   UNL     1      -0.075 -10.475   3.380  0.00  0.00    +0.006 A 
ATOM      2  C   UNL     1      -1.190 -11.184   3.671  0.00  0.00    +0.014 A 
ATOM      3  S   UNL     1      -0.644 -12.878   3.573  0.00  0.00    -0.072 S 
ATOM      4  C   UNL     1       1.055 -12.601   3.148  0.00  0.00    +0.114 A 
ATOM      5  C   UNL     1       1.159 -11.196   3.086  0.00  0.00    +0.055 A 
ATOM      6  C   UNL     1       2.445 -10.693   2.752  0.00  0.00    +0.128 A 
ATOM      7  N   UNL     1       3.432 -11.545   2.523  0.00  0.00    -0.220 NA
ATOM      8  C   UNL     1       3.262 -12.852   2.594  0.00  0.00    +0.224 A 
ATOM      9  N   UNL     1       2.094 -13.378   2.909  0.00  0.00    -0.228 NA
ENDROOT
BRANCH   1  13
ATOM     10  C   UNL     1      -0.170  -6.223   3.308  0.00  0.00    +0.035 A 
ATOM     11  C   UNL     1       0.001  -6.933   2.126  0.00  0.00    +0.024 A 
ATOM     12  C   UNL     1       0.032  -8.311   2.146  0.00  0.00    +0.010 A 
ATOM     13  C   UNL     1      -0.108  -8.993   3.355  0.00  0.00    -0.016 A 
ATOM     14  C   UNL     1      -0.279  -8.278   4.540  0.00  0.00    +0.010 A 
ATOM     15  C   UNL     1      -0.305  -6.899   4.514  0.00  0.00    +0.024 A 
BRANCH  10  19
ATOM     16  N   UNL     1      -0.661  -2.835   2.151  0.00  0.00    -0.269 N 
ATOM     17  C   UNL     1      -0.727  -4.180   2.223  0.00  0.00    +0.308 C 
ATOM     18  O   UNL     1      -1.261  -4.811   1.331  0.00  0.00    -0.252 OA
ATOM     19  N   UNL     1      -0.202  -4.824   3.284  0.00  0.00    -0.269 N 
ATOM     20  H   UNL     1      -0.172  -2.337   2.823  0.00  0.00    +0.156 HD
ATOM     21  H   UNL     1       0.155  -4.318   4.031  0.00  0.00    +0.156 HD
BRANCH  16  27
ATOM     22  C   UNL     1      -0.786   0.942  -0.993  0.00  0.00    +0.044 C 
ATOM     23  C   UNL     1      -1.383  -0.325  -0.438  0.00  0.00    -0.049 A 
ATOM     24  C   UNL     1      -2.563  -0.821  -0.961  0.00  0.00    +0.003 A 
ATOM     25  C   UNL     1      -3.113  -1.984  -0.454  0.00  0.00    +0.002 A 
ATOM     26  C   UNL     1      -2.485  -2.654   0.577  0.00  0.00    +0.023 A 
ATOM     27  C   UNL     1      -1.300  -2.159   1.105  0.00  0.00    +0.035 A 
ATOM     28  C   UNL     1      -0.747  -0.993   0.590  0.00  0.00    +0.026 A 
ENDBRANCH  16  27
ENDBRANCH  10  19
ENDBRANCH   1  13
BRANCH   6  29
ATOM     29  N   UNL     1       2.663  -9.330   2.666  0.00  0.00    -0.343 N 
ATOM     30  H   UNL     1       1.989  -8.710   2.987  0.00  0.00    +0.144 HD
ATOM     31  H   UNL     1       3.489  -8.993   2.285  0.00  0.00    +0.144 HD
ENDBRANCH   6  29
BRANCH   2  32
ATOM     32  C   UNL     1      -2.567 -10.665   3.999  0.00  0.00    +0.127 C 
BRANCH  32  33
ATOM     33  N   UNL     1      -3.346 -10.526   2.762  0.00  0.00    -0.301 NA
ATOM     34  C   UNL     1      -2.780  -9.479   1.899  0.00  0.00    +0.066 C 
ATOM     35  C   UNL     1      -3.583  -9.407   0.598  0.00  0.00    -0.064 C 
ATOM     36  N   UNL     1      -4.987  -9.107   0.904  0.00  0.00    +0.379 N 
ATOM     37  C   UNL     1      -5.545 -10.173   1.747  0.00  0.00    -0.064 C 
ATOM     38  C   UNL     1      -4.759 -10.252   3.058  0.00  0.00    +0.066 C 
ATOM     39  C   UNL     1      -5.754  -9.020  -0.346  0.00  0.00    -0.096 C 
ATOM     40  H   UNL     1      -5.043  -8.227   1.395  0.00  0.00    -0.082 HD
ENDBRANCH  32  33
ENDBRANCH   2  32
TORSDOF 6
