REMARK  Name = CHEMBL487864
REMARK  7 active torsions:
REMARK  status: ('A' for Active; 'I' for Inactive)
REMARK    1  A    between atoms: C_1  and  C_2
REMARK    2  A    between atoms: C_5  and  C_21
REMARK    3  A    between atoms: C_7  and  C_8
REMARK    4  A    between atoms: N_10  and  C_11
REMARK    5  A    between atoms: C_18  and  C_20
REMARK    6  A    between atoms: N_23  and  C_24
REMARK    7  A    between atoms: C_28  and  C_30
REMARK                            x       y       z     vdW  Elec       q    Type
REMARK                         _______ _______ _______ _____ _____    ______ ____
ROOT
ATOM      1  C   UNL     1       0.007   1.695  -0.094  0.00  0.00    +0.044 C 
ATOM      2  C   UNL     1      -0.020   0.188  -0.095  0.00  0.00    -0.038 A 
ATOM      3  C   UNL     1      -0.133  -0.498  -1.288  0.00  0.00    +0.005 A 
ATOM      4  C   UNL     1      -0.159  -1.879  -1.298  0.00  0.00    +0.013 A 
ATOM      5  C   UNL     1      -0.071  -2.591  -0.099  0.00  0.00    +0.038 A 
ATOM      6  C   UNL     1       0.043  -1.905   1.108  0.00  0.00    +0.026 A 
ATOM      7  C   UNL     1       0.075  -0.512   1.110  0.00  0.00    +0.041 A 
ENDROOT
BRANCH   7   8
ATOM      8  C   UNL     1       0.203   0.224   2.386  0.00  0.00    +0.249 C 
ATOM      9  O   UNL     1       0.151   1.439   2.395  0.00  0.00    -0.270 OA
ATOM     10  N   UNL     1       0.376  -0.451   3.539  0.00  0.00    -0.280 N 
ATOM     11  H   UNL     1       0.495  -1.414   3.524  0.00  0.00    +0.155 HD
BRANCH  10  12
ATOM     12  C   UNL     1       0.385   0.236   4.759  0.00  0.00    +0.052 A 
ATOM     13  C   UNL     1      -0.308   1.438   4.896  0.00  0.00    +0.028 A 
ATOM     14  C   UNL     1      -0.271   2.083   6.119  0.00  0.00    +0.045 A 
ATOM     15  C   UNL     1       0.449   1.515   7.164  0.00  0.00    +0.125 A 
ATOM     16  N   UNL     1       1.095   0.372   6.998  0.00  0.00    -0.238 NA
ATOM     17  C   UNL     1       1.078  -0.273   5.848  0.00  0.00    +0.136 A 
ATOM     18  N   UNL     1       0.492   2.158   8.402  0.00  0.00    -0.271 N 
ATOM     19  C   UNL     1       1.273   1.672   9.387  0.00  0.00    +0.215 C 
ATOM     20  O   UNL     1       2.009   0.733   9.170  0.00  0.00    -0.276 OA
ATOM     21  C   UNL     1       1.232   2.296  10.758  0.00  0.00    +0.109 C 
ATOM     22  H   UNL     1      -0.040   2.955   8.553  0.00  0.00    +0.156 HD
ENDBRANCH  10  12
ENDBRANCH   7   8
BRANCH   5  23
ATOM     23  C   UNL     1      -0.100  -4.069  -0.112  0.00  0.00    +0.248 C 
ATOM     24  O   UNL     1      -0.023  -4.687   0.932  0.00  0.00    -0.270 OA
ATOM     25  N   UNL     1      -0.211  -4.731  -1.280  0.00  0.00    -0.281 N 
ATOM     26  H   UNL     1      -0.193  -4.242  -2.118  0.00  0.00    +0.155 HD
BRANCH  25  27
ATOM     27  C   UNL     1      -0.352  -6.122  -1.285  0.00  0.00    +0.034 A 
ATOM     28  C   UNL     1       0.222  -6.876  -2.301  0.00  0.00    +0.023 A 
ATOM     29  C   UNL     1       0.082  -8.250  -2.302  0.00  0.00    +0.002 A 
ATOM     30  C   UNL     1      -0.630  -8.875  -1.294  0.00  0.00    +0.012 A 
ATOM     31  C   UNL     1      -1.202  -8.127  -0.282  0.00  0.00    +0.057 A 
ATOM     32  C   UNL     1      -1.061  -6.753  -0.272  0.00  0.00    +0.035 A 
BRANCH  31  33
ATOM     33  C   UNL     1      -1.977  -8.812   0.814  0.00  0.00    +0.417 C 
ATOM     34  F   UNL     1      -1.977 -10.194   0.592  0.00  0.00    -0.166 F 
ATOM     35  F   UNL     1      -1.379  -8.539   2.049  0.00  0.00    -0.166 F 
ATOM     36  F   UNL     1      -3.294  -8.341   0.819  0.00  0.00    -0.166 F 
ENDBRANCH  31  33
ENDBRANCH  25  27
ENDBRANCH   5  23
TORSDOF 5
