REMARK  Name = CHEMBL488840
REMARK  9 active torsions:
REMARK  status: ('A' for Active; 'I' for Inactive)
REMARK    1  A    between atoms: C_1  and  C_2
REMARK    2  A    between atoms: C_6  and  C_30
REMARK    3  A    between atoms: C_7  and  C_8
REMARK    4  A    between atoms: C_9  and  N_10
REMARK    5  A    between atoms: C_18  and  N_19
REMARK    6  A    between atoms: N_19  and  C_20
REMARK    7  A    between atoms: C_23  and  P_26
REMARK    8  A    between atoms: P_26  and  C_28
REMARK    9  A    between atoms: P_26  and  C_29
REMARK                            x       y       z     vdW  Elec       q    Type
REMARK                         _______ _______ _______ _____ _____    ______ ____
ROOT
ATOM      1  N   UNL     1      -1.139  -0.305   4.505  0.00  0.00    -0.290 N 
ATOM      2  C   UNL     1      -0.229   0.652   4.853  0.00  0.00    +0.206 A 
ATOM      3  N   UNL     1      -0.640   1.294   5.908  0.00  0.00    -0.230 NA
ATOM      4  C   UNL     1      -1.835   0.793   6.305  0.00  0.00    +0.148 A 
ATOM      5  C   UNL     1      -2.174  -0.234   5.408  0.00  0.00    +0.169 A 
ATOM      6  N   UNL     1      -3.317  -0.888   5.577  0.00  0.00    -0.216 NA
ATOM      7  C   UNL     1      -4.126  -0.580   6.570  0.00  0.00    +0.225 A 
ATOM      8  N   UNL     1      -3.853   0.379   7.435  0.00  0.00    -0.218 NA
ATOM      9  C   UNL     1      -2.728   1.082   7.351  0.00  0.00    +0.154 A 
ENDROOT
BRANCH   1  11
ATOM     10  C   UNL     1       0.026  -1.143   2.631  0.00  0.00    +0.026 C 
ATOM     11  C   UNL     1      -1.041  -1.184   3.433  0.00  0.00    +0.095 C 
BRANCH  10  18
ATOM     12  C   UNL     1       2.232  -2.979   2.265  0.00  0.00    +0.044 C 
ATOM     13  C   UNL     1       1.135  -2.881   1.236  0.00  0.00    -0.043 A 
ATOM     14  C   UNL     1       1.172  -3.674   0.107  0.00  0.00    +0.004 A 
ATOM     15  C   UNL     1       0.166  -3.586  -0.838  0.00  0.00    +0.001 A 
ATOM     16  C   UNL     1      -0.883  -2.702  -0.660  0.00  0.00    +0.004 A 
ATOM     17  C   UNL     1      -0.933  -1.902   0.463  0.00  0.00    -0.043 A 
ATOM     18  C   UNL     1       0.076  -1.991   1.424  0.00  0.00    -0.018 A 
ATOM     19  C   UNL     1      -2.077  -0.940   0.655  0.00  0.00    +0.044 C 
ENDBRANCH  10  18
ENDBRANCH   1  11
BRANCH   9  20
ATOM     20  N   UNL     1      -2.450   2.087   8.262  0.00  0.00    -0.298 N 
ATOM     21  H   UNL     1      -1.675   2.656   8.136  0.00  0.00    +0.154 HD
BRANCH  20  22
ATOM     22  C   UNL     1      -3.288   2.281   9.365  0.00  0.00    +0.032 A 
ATOM     23  C   UNL     1      -3.920   1.196   9.958  0.00  0.00    +0.024 A 
ATOM     24  C   UNL     1      -4.747   1.391  11.047  0.00  0.00    +0.013 A 
ATOM     25  C   UNL     1      -4.945   2.665  11.547  0.00  0.00    +0.011 A 
ATOM     26  C   UNL     1      -4.317   3.748  10.958  0.00  0.00    +0.013 A 
ATOM     27  C   UNL     1      -3.484   3.559   9.873  0.00  0.00    +0.024 A 
BRANCH  25  28
ATOM     28  P   UNL     1      -6.032   2.917  12.977  0.00  0.00    +0.111 P 
ATOM     29  O   UNL     1      -6.000   1.714  13.839  0.00  0.00    -0.317 OA
ATOM     30  C   UNL     1      -5.459   4.362  13.929  0.00  0.00    +0.085 C 
ATOM     31  C   UNL     1      -7.737   3.206  12.401  0.00  0.00    +0.085 C 
ENDBRANCH  25  28
ENDBRANCH  20  22
ENDBRANCH   9  20
TORSDOF 5
