REMARK  Name = CHEMBL444064
REMARK  11 active torsions:
REMARK  status: ('A' for Active; 'I' for Inactive)
REMARK    1  A    between atoms: C_1  and  C_2
REMARK    2  A    between atoms: C_2  and  C_3
REMARK    3  A    between atoms: C_2  and  O_4
REMARK    4  A    between atoms: O_4  and  C_5
REMARK    5  A    between atoms: C_8  and  N_11
REMARK    6  A    between atoms: C_23  and  O_39
REMARK    7  A    between atoms: C_24  and  O_30
REMARK    8  A    between atoms: O_30  and  C_31
REMARK    9  A    between atoms: C_31  and  C_32
REMARK   10  A    between atoms: C_32  and  N_33
REMARK   11  A    between atoms: O_39  and  C_40
REMARK                            x       y       z     vdW  Elec       q    Type
REMARK                         _______ _______ _______ _____ _____    ______ ____
ROOT
ATOM      1  N   UNL     1      -2.796  -1.405  -6.667  0.00  0.00    -0.269 N 
ATOM      2  C   UNL     1      -3.496  -0.643  -7.531  0.00  0.00    +0.307 C 
ATOM      3  O   UNL     1      -3.506   0.567  -7.404  0.00  0.00    -0.252 OA
ATOM      4  N   UNL     1      -4.183  -1.221  -8.536  0.00  0.00    -0.282 N 
ATOM      5  C   UNL     1      -4.236  -2.685  -8.660  0.00  0.00    +0.128 C 
ATOM      6  C   UNL     1      -5.706  -3.121  -8.694  0.00  0.00    +0.125 C 
ATOM      7  N   UNL     1      -6.416  -2.300  -9.685  0.00  0.00    -0.312 N 
ATOM      8  C   UNL     1      -6.364  -0.836  -9.560  0.00  0.00    +0.125 C 
ATOM      9  C   UNL     1      -4.898  -0.400  -9.523  0.00  0.00    +0.128 C 
ATOM     10  C   UNL     1      -7.120  -2.892 -10.713  0.00  0.00    +0.132 A 
ATOM     11  C   UNL     1      -8.508  -3.142 -10.594  0.00  0.00    +0.042 A 
ATOM     12  C   UNL     1      -9.225  -2.803  -9.440  0.00  0.00    +0.062 A 
ATOM     13  C   UNL     1     -10.564  -3.065  -9.375  0.00  0.00    +0.162 A 
ATOM     14  C   UNL     1     -11.229  -3.670 -10.451  0.00  0.00    +0.164 A 
ATOM     15  C   UNL     1     -10.546  -4.012 -11.597  0.00  0.00    +0.075 A 
ATOM     16  C   UNL     1      -9.173  -3.752 -11.686  0.00  0.00    +0.055 A 
ATOM     17  N   UNL     1      -8.462  -4.066 -12.780  0.00  0.00    -0.345 N 
ATOM     18  C   UNL     1      -7.177  -3.810 -12.834  0.00  0.00    +0.199 A 
ATOM     19  N   UNL     1      -6.515  -3.237 -11.842  0.00  0.00    -0.222 NA
ATOM     20  H   UNL     1      -2.803  -2.370  -6.756  0.00  0.00    +0.156 HD
ATOM     21  H   UNL     1      -8.902  -4.484 -13.537  0.00  0.00    +0.167 HD
ENDROOT
BRANCH   1  25
ATOM     22  C   UNL     1      -0.605   0.391  -3.606  0.00  0.00    +0.121 A 
ATOM     23  C   UNL     1      -0.166  -0.800  -4.167  0.00  0.00    +0.047 A 
ATOM     24  C   UNL     1      -0.891  -1.395  -5.180  0.00  0.00    +0.027 A 
ATOM     25  C   UNL     1      -2.060  -0.801  -5.638  0.00  0.00    +0.035 A 
ATOM     26  C   UNL     1      -2.499   0.390  -5.076  0.00  0.00    +0.027 A 
ATOM     27  C   UNL     1      -1.776   0.981  -4.059  0.00  0.00    +0.047 A 
BRANCH  22  28
ATOM     28  O   UNL     1       0.109   0.976  -2.608  0.00  0.00    -0.489 OA
BRANCH  28  30
ATOM     29  C   UNL     1      -1.496   1.848  -1.026  0.00  0.00    +0.051 C 
ATOM     30  C   UNL     1      -0.417   2.185  -2.057  0.00  0.00    +0.167 C 
ATOM     31  C   UNL     1       0.709   2.969  -1.379  0.00  0.00    +0.051 C 
ENDBRANCH  28  30
ENDBRANCH  22  28
ENDBRANCH   1  25
BRANCH  13  32
ATOM     32  O   UNL     1     -11.260  -2.736  -8.254  0.00  0.00    -0.491 OA
ATOM     33  C   UNL     1     -10.526  -2.123  -7.191  0.00  0.00    +0.277 C 
ENDBRANCH  13  32
BRANCH  14  34
ATOM     34  O   UNL     1     -12.561  -3.921 -10.363  0.00  0.00    -0.490 OA
BRANCH  34  35
ATOM     35  C   UNL     1     -13.182  -4.538 -11.492  0.00  0.00    +0.211 C 
BRANCH  35  36
ATOM     36  C   UNL     1     -14.671  -4.740 -11.208  0.00  0.00    -0.037 C 
BRANCH  36  37
ATOM     37  N   UNL     1     -15.289  -3.446 -10.887  0.00  0.00    +0.382 N 
ATOM     38  C   UNL     1     -16.712  -3.646 -10.590  0.00  0.00    -0.079 C 
ATOM     39  C   UNL     1     -17.342  -2.314 -10.177  0.00  0.00    -0.019 C 
ATOM     40  C   UNL     1     -17.194  -1.308 -11.322  0.00  0.00    -0.004 C 
ATOM     41  C   UNL     1     -15.710  -1.164 -11.673  0.00  0.00    -0.019 C 
ATOM     42  C   UNL     1     -15.141  -2.538 -12.031  0.00  0.00    -0.079 C 
ATOM     43  H   UNL     1     -14.832  -3.048 -10.081  0.00  0.00    -0.082 HD
ENDBRANCH  36  37
ENDBRANCH  35  36
ENDBRANCH  34  35
ENDBRANCH  14  34
TORSDOF 8
