REMARK  Name = CHEMBL272902
REMARK  6 active torsions:
REMARK  status: ('A' for Active; 'I' for Inactive)
REMARK    1  A    between atoms: C_1  and  C_2
REMARK    2  A    between atoms: C_5  and  C_18
REMARK    3  A    between atoms: C_7  and  C_8
REMARK    4  A    between atoms: N_10  and  C_11
REMARK    5  A    between atoms: N_20  and  C_21
REMARK    6  A    between atoms: C_25  and  C_27
REMARK                            x       y       z     vdW  Elec       q    Type
REMARK                         _______ _______ _______ _____ _____    ______ ____
ROOT
ATOM      1  C   UNL     1      -0.094   1.520  -0.040  0.00  0.00    +0.044 C 
ATOM      2  C   UNL     1      -0.047   0.014  -0.062  0.00  0.00    -0.038 A 
ATOM      3  C   UNL     1      -0.123  -0.660  -1.265  0.00  0.00    +0.005 A 
ATOM      4  C   UNL     1      -0.080  -2.039  -1.294  0.00  0.00    +0.013 A 
ATOM      5  C   UNL     1       0.042  -2.763  -0.106  0.00  0.00    +0.038 A 
ATOM      6  C   UNL     1       0.119  -2.090   1.111  0.00  0.00    +0.026 A 
ATOM      7  C   UNL     1       0.080  -0.697   1.133  0.00  0.00    +0.041 A 
ENDROOT
BRANCH   7   8
ATOM      8  C   UNL     1       0.168   0.026   2.420  0.00  0.00    +0.249 C 
ATOM      9  O   UNL     1       0.053   1.236   2.446  0.00  0.00    -0.270 OA
ATOM     10  N   UNL     1       0.374  -0.656   3.564  0.00  0.00    -0.279 N 
ATOM     11  H   UNL     1       0.532  -1.612   3.536  0.00  0.00    +0.155 HD
BRANCH  10  12
ATOM     12  C   UNL     1       0.360   0.017   4.793  0.00  0.00    +0.070 A 
ATOM     13  C   UNL     1       0.841   1.319   4.898  0.00  0.00    +0.139 A 
ATOM     14  N   UNL     1       0.812   1.923   6.075  0.00  0.00    -0.221 NA
ATOM     15  C   UNL     1       0.334   1.304   7.143  0.00  0.00    +0.213 A 
ATOM     16  N   UNL     1      -0.132   0.065   7.081  0.00  0.00    -0.221 NA
ATOM     17  C   UNL     1      -0.140  -0.598   5.937  0.00  0.00    +0.139 A 
ATOM     18  N   UNL     1       0.321   1.969   8.359  0.00  0.00    -0.327 N 
ATOM     19  H   UNL     1       0.659   2.876   8.420  0.00  0.00    +0.145 HD
ATOM     20  H   UNL     1      -0.027   1.528   9.150  0.00  0.00    +0.145 HD
ENDBRANCH  10  12
ENDBRANCH   7   8
BRANCH   5  21
ATOM     21  C   UNL     1       0.087  -4.240  -0.139  0.00  0.00    +0.248 C 
ATOM     22  O   UNL     1       0.193  -4.869   0.896  0.00  0.00    -0.270 OA
ATOM     23  N   UNL     1       0.012  -4.890  -1.317  0.00  0.00    -0.281 N 
ATOM     24  H   UNL     1       0.004  -4.389  -2.148  0.00  0.00    +0.155 HD
BRANCH  23  25
ATOM     25  C   UNL     1      -0.054  -6.287  -1.342  0.00  0.00    +0.034 A 
ATOM     26  C   UNL     1       0.560  -6.995  -2.367  0.00  0.00    +0.023 A 
ATOM     27  C   UNL     1       0.493  -8.374  -2.389  0.00  0.00    +0.002 A 
ATOM     28  C   UNL     1      -0.185  -9.050  -1.391  0.00  0.00    +0.012 A 
ATOM     29  C   UNL     1      -0.798  -8.349  -0.370  0.00  0.00    +0.057 A 
ATOM     30  C   UNL     1      -0.730  -6.970  -0.339  0.00  0.00    +0.035 A 
BRANCH  29  31
ATOM     31  C   UNL     1      -1.537  -9.090   0.715  0.00  0.00    +0.417 C 
ATOM     32  F   UNL     1      -1.463 -10.466   0.473  0.00  0.00    -0.166 F 
ATOM     33  F   UNL     1      -0.956  -8.803   1.955  0.00  0.00    -0.166 F 
ATOM     34  F   UNL     1      -2.877  -8.689   0.724  0.00  0.00    -0.166 F 
ENDBRANCH  29  31
ENDBRANCH  23  25
ENDBRANCH   5  21
TORSDOF 5
