REMARK  Name = CHEMBL522892
REMARK  4 active torsions:
REMARK  status: ('A' for Active; 'I' for Inactive)
REMARK    1  A    between atoms: C_1  and  N_2
REMARK    2  A    between atoms: N_5  and  C_8
REMARK    3  A    between atoms: C_16  and  C_18
REMARK    4  A    between atoms: C_19  and  N_31
REMARK                            x       y       z     vdW  Elec       q    Type
REMARK                         _______ _______ _______ _____ _____    ______ ____
ROOT
ATOM      1  C   UNL     1      -0.494  -4.473   0.874  0.00  0.00    +0.032 A 
ATOM      2  C   UNL     1      -1.833  -4.842   0.762  0.00  0.00    +0.025 A 
ATOM      3  C   UNL     1      -2.390  -5.716   1.651  0.00  0.00    +0.032 A 
ATOM      4  C   UNL     1      -1.615  -6.250   2.685  0.00  0.00    +0.090 A 
ATOM      5  C   UNL     1      -0.263  -5.880   2.801  0.00  0.00    +0.068 A 
ATOM      6  C   UNL     1       0.292  -4.995   1.888  0.00  0.00    +0.051 A 
ATOM      7  N   UNL     1       0.231  -6.559   3.900  0.00  0.00    -0.338 N 
ATOM      8  H   UNL     1       1.137  -6.515   4.243  0.00  0.00    +0.167 HD
ATOM      9  C   UNL     1      -0.799  -7.304   4.413  0.00  0.00    +0.146 A 
ATOM     10  N   UNL     1      -1.882  -7.117   3.694  0.00  0.00    -0.227 NA
ENDROOT
BRANCH   9  11
ATOM     11  C   UNL     1      -0.706  -8.181   5.593  0.00  0.00    +0.103 A 
ATOM     12  C   UNL     1      -1.787  -8.988   5.955  0.00  0.00    +0.053 A 
ATOM     13  C   UNL     1      -1.644  -9.844   7.139  0.00  0.00    +0.055 A 
ATOM     14  C   UNL     1      -0.435  -9.820   7.858  0.00  0.00    +0.054 A 
ATOM     15  C   UNL     1      -0.293 -10.628   8.980  0.00  0.00    +0.026 A 
ATOM     16  C   UNL     1      -1.330 -11.444   9.380  0.00  0.00    +0.005 A 
ATOM     17  C   UNL     1      -2.523 -11.470   8.673  0.00  0.00    +0.039 A 
ATOM     18  C   UNL     1      -2.689 -10.676   7.557  0.00  0.00    +0.134 A 
ATOM     19  F   UNL     1      -3.853 -10.703   6.870  0.00  0.00    -0.205 F 
ATOM     20  N   UNL     1       0.596  -8.998   7.447  0.00  0.00    -0.321 N 
ATOM     21  H   UNL     1       1.424  -8.991   7.951  0.00  0.00    +0.169 HD
ATOM     22  C   UNL     1       0.481  -8.215   6.362  0.00  0.00    +0.262 A 
ATOM     23  O   UNL     1       1.421  -7.511   6.035  0.00  0.00    -0.267 OA
BRANCH  12  24
ATOM     24  N   UNL     1      -2.951  -8.980   5.225  0.00  0.00    -0.357 N 
ATOM     25  H   UNL     1      -2.934  -8.729   4.288  0.00  0.00    +0.142 HD
ATOM     26  H   UNL     1      -3.789  -9.226   5.646  0.00  0.00    +0.142 HD
ENDBRANCH  12  24
ENDBRANCH   9  11
BRANCH   1  31
ATOM     27  C   UNL     1       0.873   0.306  -1.418  0.00  0.00    +0.105 C 
ATOM     28  N   UNL     1       0.758  -1.144  -1.214  0.00  0.00    -0.302 NA
ATOM     29  C   UNL     1      -0.649  -1.568  -1.232  0.00  0.00    +0.103 C 
ATOM     30  C   UNL     1      -0.718  -3.099  -1.198  0.00  0.00    +0.120 C 
ATOM     31  N   UNL     1       0.061  -3.576  -0.045  0.00  0.00    -0.327 N 
ATOM     32  C   UNL     1       1.438  -3.085   0.117  0.00  0.00    +0.120 C 
ATOM     33  C   UNL     1       1.422  -1.555   0.031  0.00  0.00    +0.103 C 
ENDBRANCH   1  31
TORSDOF 3
