REMARK  Name = CHEMBL406375
REMARK  1 active torsions:
REMARK  status: ('A' for Active; 'I' for Inactive)
REMARK    1  A    between atoms: C_4  and  C_7
REMARK                            x       y       z     vdW  Elec       q    Type
REMARK                         _______ _______ _______ _____ _____    ______ ____
ROOT
ATOM      1  C   UNL     1       3.695  -0.685  -0.037  0.00  0.00    +0.109 A 
ATOM      2  C   UNL     1       4.035  -1.774   0.741  0.00  0.00    +0.181 A 
ATOM      3  C   UNL     1       5.357  -2.135   0.399  0.00  0.00    +0.139 A 
ATOM      4  C   UNL     1       5.678  -3.300   1.252  0.00  0.00    +0.048 A 
ATOM      5  C   UNL     1       6.801  -4.106   1.395  0.00  0.00    +0.014 A 
ATOM      6  C   UNL     1       6.786  -5.144   2.305  0.00  0.00    +0.001 A 
ATOM      7  C   UNL     1       5.657  -5.381   3.071  0.00  0.00    +0.004 A 
ATOM      8  C   UNL     1       4.537  -4.587   2.935  0.00  0.00    +0.047 A 
ATOM      9  C   UNL     1       4.534  -3.537   2.024  0.00  0.00    +0.138 A 
ATOM     10  O   UNL     1       3.593  -2.623   1.698  0.00  0.00    -0.451 OA
ATOM     11  N   UNL     1       5.787  -1.311  -0.531  0.00  0.00    -0.169 NA
ATOM     12  H   UNL     1       4.820   0.318  -1.482  0.00  0.00    +0.189 HD
ATOM     13  N   UNL     1       4.770  -0.397  -0.829  0.00  0.00    -0.273 N 
ENDROOT
BRANCH   1  17
ATOM     14  C   UNL     1      -0.017   1.379   0.010  0.00  0.00    +0.000 A 
ATOM     15  C   UNL     1       1.168   2.094   0.002  0.00  0.00    +0.001 A 
ATOM     16  C   UNL     1       2.377   1.429  -0.013  0.00  0.00    +0.010 A 
ATOM     17  C   UNL     1       2.403   0.034  -0.021  0.00  0.00    +0.003 A 
ATOM     18  C   UNL     1       1.204  -0.681  -0.013  0.00  0.00    +0.010 A 
ATOM     19  C   UNL     1       0.002  -0.004   0.002  0.00  0.00    +0.001 A 
ENDBRANCH   1  17
TORSDOF 1
