REMARK  Name = CHEMBL425043
REMARK  11 active torsions:
REMARK  status: ('A' for Active; 'I' for Inactive)
REMARK    1  A    between atoms: C_1  and  O_2
REMARK    2  A    between atoms: O_2  and  C_3
REMARK    3  A    between atoms: C_6  and  O_15
REMARK    4  A    between atoms: C_12  and  O_13
REMARK    5  A    between atoms: O_13  and  C_14
REMARK    6  A    between atoms: O_15  and  C_16
REMARK    7  A    between atoms: C_19  and  N_22
REMARK    8  A    between atoms: C_23  and  O_25
REMARK    9  A    between atoms: O_25  and  C_26
REMARK   10  A    between atoms: C_26  and  C_27
REMARK   11  A    between atoms: C_27  and  C_28
REMARK                            x       y       z     vdW  Elec       q    Type
REMARK                         _______ _______ _______ _____ _____    ______ ____
ROOT
ATOM      1  C   UNL     1       2.966   2.378  -5.114  0.00  0.00    +0.129 A 
ATOM      2  C   UNL     1       3.550   1.768  -6.215  0.00  0.00    +0.048 A 
ATOM      3  C   UNL     1       4.135   2.537  -7.201  0.00  0.00    +0.027 A 
ATOM      4  C   UNL     1       4.138   3.921  -7.092  0.00  0.00    +0.037 A 
ATOM      5  C   UNL     1       3.553   4.531  -5.991  0.00  0.00    +0.027 A 
ATOM      6  C   UNL     1       2.963   3.761  -5.007  0.00  0.00    +0.048 A 
ENDROOT
BRANCH   4   7
ATOM      7  N   UNL     1       4.732   4.702  -8.093  0.00  0.00    -0.251 N 
ATOM      8  C   UNL     1       4.662   4.313  -9.381  0.00  0.00    +0.405 C 
ATOM      9  O   UNL     1       4.155   3.246  -9.667  0.00  0.00    -0.226 OA
ATOM     10  H   UNL     1       5.193   5.522  -7.858  0.00  0.00    +0.158 HD
BRANCH   8  11
ATOM     11  O   UNL     1       5.154   5.106 -10.352  0.00  0.00    -0.450 OA
BRANCH  11  12
ATOM     12  C   UNL     1       5.046   4.631 -11.695  0.00  0.00    +0.234 C 
BRANCH  12  13
ATOM     13  C   UNL     1       5.655   5.659 -12.650  0.00  0.00    +0.044 C 
BRANCH  13  14
ATOM     14  C   UNL     1       5.540   5.150 -14.089  0.00  0.00    -0.008 C 
ATOM     15  C   UNL     1       6.392   3.891 -14.254  0.00  0.00    +0.003 C 
ATOM     16  C   UNL     1       6.277   3.382 -15.692  0.00  0.00    +0.000 C 
ATOM     17  C   UNL     1       6.771   4.462 -16.656  0.00  0.00    +0.000 C 
ATOM     18  C   UNL     1       5.919   5.722 -16.491  0.00  0.00    +0.000 C 
ATOM     19  C   UNL     1       6.034   6.231 -15.053  0.00  0.00    +0.003 C 
ENDBRANCH  13  14
ENDBRANCH  12  13
ENDBRANCH  11  12
ENDBRANCH   8  11
ENDBRANCH   4   7
BRANCH   1  20
ATOM     20  O   UNL     1       2.390   1.621  -4.143  0.00  0.00    -0.455 OA
BRANCH  20  24
ATOM     21  C   UNL     1       0.818  -0.526  -0.888  0.00  0.00    +0.162 A 
ATOM     22  C   UNL     1       1.294   0.180  -1.955  0.00  0.00    +0.063 A 
ATOM     23  C   UNL     1       2.677   0.252  -2.180  0.00  0.00    +0.044 A 
ATOM     24  C   UNL     1       3.205   0.974  -3.273  0.00  0.00    +0.139 A 
ATOM     25  C   UNL     1       4.580   1.000  -3.430  0.00  0.00    +0.064 A 
ATOM     26  C   UNL     1       5.389   0.328  -2.523  0.00  0.00    +0.086 A 
ATOM     27  N   UNL     1       4.888  -0.340  -1.511  0.00  0.00    -0.360 N 
ATOM     28  C   UNL     1       3.568  -0.407  -1.299  0.00  0.00    +0.054 A 
ATOM     29  C   UNL     1       3.049  -1.126  -0.210  0.00  0.00    +0.075 A 
ATOM     30  C   UNL     1       1.699  -1.175  -0.011  0.00  0.00    +0.163 A 
ATOM     31  H   UNL     1       5.489  -0.796  -0.901  0.00  0.00    +0.165 HD
BRANCH  21  33
ATOM     32  C   UNL     1      -1.367   0.086  -1.599  0.00  0.00    +0.277 C 
ATOM     33  O   UNL     1      -0.522  -0.596  -0.670  0.00  0.00    -0.491 OA
ENDBRANCH  21  33
BRANCH  30  34
ATOM     34  O   UNL     1       1.202  -1.867   1.048  0.00  0.00    -0.491 OA
ATOM     35  C   UNL     1       2.148  -2.507   1.906  0.00  0.00    +0.277 C 
ENDBRANCH  30  34
ENDBRANCH  20  24
ENDBRANCH   1  20
TORSDOF 9
