REMARK  Name = CHEMBL391781
REMARK  5 active torsions:
REMARK  status: ('A' for Active; 'I' for Inactive)
REMARK    1  A    between atoms: C_4  and  N_24
REMARK    2  A    between atoms: C_5  and  C_7
REMARK    3  A    between atoms: N_9  and  C_10
REMARK    4  A    between atoms: N_24  and  C_25
REMARK    5  A    between atoms: C_25  and  C_26
REMARK                            x       y       z     vdW  Elec       q    Type
REMARK                         _______ _______ _______ _____ _____    ______ ____
ROOT
ATOM      1  C   UNL     1       1.355  -2.204  -0.214  0.00  0.00    +0.250 C 
ATOM      2  O   UNL     1       2.434  -2.758  -0.292  0.00  0.00    -0.270 OA
ATOM      3  N   UNL     1       0.225  -2.936  -0.148  0.00  0.00    -0.281 N 
ATOM      4  H   UNL     1      -0.640  -2.495  -0.162  0.00  0.00    +0.155 HD
ENDROOT
BRANCH   3   5
ATOM      5  C   UNL     1       0.298  -4.331  -0.061  0.00  0.00    +0.037 A 
ATOM      6  C   UNL     1      -0.677  -5.117  -0.660  0.00  0.00    +0.027 A 
ATOM      7  C   UNL     1      -0.605  -6.494  -0.573  0.00  0.00    +0.051 A 
ATOM      8  C   UNL     1       0.440  -7.095   0.112  0.00  0.00    +0.169 A 
ATOM      9  C   UNL     1       1.419  -6.311   0.711  0.00  0.00    +0.171 A 
ATOM     10  C   UNL     1       1.350  -4.930   0.619  0.00  0.00    +0.073 A 
ATOM     11  O   UNL     1       2.457  -6.884   1.380  0.00  0.00    -0.421 OA
ATOM     12  C   UNL     1       2.298  -8.254   1.764  0.00  0.00    +0.509 C 
ATOM     13  C   UNL     1       1.749  -9.030   0.559  0.00  0.00    +0.509 C 
ATOM     14  O   UNL     1       0.492  -8.454   0.191  0.00  0.00    -0.421 OA
ATOM     15  F   UNL     1       2.645  -8.934  -0.511  0.00  0.00    -0.155 F 
ATOM     16  F   UNL     1       1.570 -10.374   0.906  0.00  0.00    -0.155 F 
ATOM     17  F   UNL     1       3.536  -8.784   2.143  0.00  0.00    -0.155 F 
ATOM     18  F   UNL     1       1.399  -8.343   2.832  0.00  0.00    -0.155 F 
ENDBRANCH   3   5
BRANCH   1  23
ATOM     19  C   UNL     1      -0.004   1.284   0.042  0.00  0.00    +0.001 A 
ATOM     20  C   UNL     1       1.143   2.040  -0.147  0.00  0.00    +0.002 A 
ATOM     21  C   UNL     1       2.359   1.423  -0.357  0.00  0.00    +0.024 A 
ATOM     22  C   UNL     1       2.441   0.036  -0.381  0.00  0.00    +0.040 A 
ATOM     23  C   UNL     1       1.282  -0.732  -0.190  0.00  0.00    +0.058 A 
ATOM     24  C   UNL     1       0.058  -0.091   0.021  0.00  0.00    +0.015 A 
BRANCH  22  25
ATOM     25  N   UNL     1       3.664  -0.587  -0.593  0.00  0.00    -0.339 N 
ATOM     26  H   UNL     1       3.735  -1.552  -0.523  0.00  0.00    +0.146 HD
BRANCH  25  27
ATOM     27  C   UNL     1       4.847   0.212  -0.921  0.00  0.00    +0.137 C 
BRANCH  27  28
ATOM     28  C   UNL     1       6.035  -0.698  -1.100  0.00  0.00    -0.028 A 
ATOM     29  C   UNL     1       6.844  -1.029  -0.024  0.00  0.00    +0.025 A 
ATOM     30  C   UNL     1       7.924  -1.866  -0.227  0.00  0.00    +0.111 A 
ATOM     31  N   UNL     1       8.189  -2.348  -1.425  0.00  0.00    -0.263 NA
ATOM     32  C   UNL     1       7.442  -2.054  -2.471  0.00  0.00    +0.111 A 
ATOM     33  C   UNL     1       6.341  -1.228  -2.344  0.00  0.00    +0.025 A 
ENDBRANCH  27  28
ENDBRANCH  25  27
ENDBRANCH  22  25
ENDBRANCH   1  23
TORSDOF 5
