REMARK  Name = CHEMBL380703
REMARK  9 active torsions:
REMARK  status: ('A' for Active; 'I' for Inactive)
REMARK    1  A    between atoms: C_1  and  O_2
REMARK    2  A    between atoms: O_2  and  C_3
REMARK    3  A    between atoms: C_6  and  O_15
REMARK    4  A    between atoms: C_12  and  O_13
REMARK    5  A    between atoms: O_13  and  C_14
REMARK    6  A    between atoms: O_15  and  C_16
REMARK    7  A    between atoms: C_19  and  N_22
REMARK    8  A    between atoms: C_23  and  O_25
REMARK    9  A    between atoms: O_25  and  C_26
REMARK                            x       y       z     vdW  Elec       q    Type
REMARK                         _______ _______ _______ _____ _____    ______ ____
ROOT
ATOM      1  C   UNL     1       2.976   2.371  -5.114  0.00  0.00    +0.129 A 
ATOM      2  C   UNL     1       3.563   1.763  -6.214  0.00  0.00    +0.048 A 
ATOM      3  C   UNL     1       4.145   2.534  -7.201  0.00  0.00    +0.027 A 
ATOM      4  C   UNL     1       4.142   3.918  -7.092  0.00  0.00    +0.037 A 
ATOM      5  C   UNL     1       3.554   4.526  -5.991  0.00  0.00    +0.027 A 
ATOM      6  C   UNL     1       2.968   3.754  -5.007  0.00  0.00    +0.048 A 
ENDROOT
BRANCH   4   7
ATOM      7  N   UNL     1       4.733   4.701  -8.093  0.00  0.00    -0.251 N 
ATOM      8  C   UNL     1       4.665   4.311  -9.381  0.00  0.00    +0.410 C 
ATOM      9  O   UNL     1       4.163   3.242  -9.667  0.00  0.00    -0.226 OA
ATOM     10  H   UNL     1       5.190   5.523  -7.858  0.00  0.00    +0.158 HD
BRANCH   8  11
ATOM     11  O   UNL     1       5.155   5.106 -10.352  0.00  0.00    -0.411 OA
BRANCH  11  12
ATOM     12  C   UNL     1       4.972   4.723 -11.643  0.00  0.00    +0.133 A 
ATOM     13  C   UNL     1       6.030   4.192 -12.367  0.00  0.00    +0.046 A 
ATOM     14  C   UNL     1       5.841   3.803 -13.679  0.00  0.00    +0.004 A 
ATOM     15  C   UNL     1       4.600   3.943 -14.271  0.00  0.00    +0.000 A 
ATOM     16  C   UNL     1       3.544   4.471 -13.552  0.00  0.00    +0.004 A 
ATOM     17  C   UNL     1       3.726   4.856 -12.238  0.00  0.00    +0.046 A 
ENDBRANCH  11  12
ENDBRANCH   8  11
ENDBRANCH   4   7
BRANCH   1  18
ATOM     18  O   UNL     1       2.403   1.611  -4.143  0.00  0.00    -0.455 OA
BRANCH  18  22
ATOM     19  C   UNL     1       0.839  -0.541  -0.887  0.00  0.00    +0.162 A 
ATOM     20  C   UNL     1       1.312   0.167  -1.954  0.00  0.00    +0.063 A 
ATOM     21  C   UNL     1       2.694   0.245  -2.178  0.00  0.00    +0.044 A 
ATOM     22  C   UNL     1       3.220   0.969  -3.272  0.00  0.00    +0.139 A 
ATOM     23  C   UNL     1       4.595   1.001  -3.428  0.00  0.00    +0.064 A 
ATOM     24  C   UNL     1       5.407   0.332  -2.521  0.00  0.00    +0.086 A 
ATOM     25  N   UNL     1       4.908  -0.337  -1.508  0.00  0.00    -0.360 N 
ATOM     26  C   UNL     1       3.588  -0.410  -1.297  0.00  0.00    +0.054 A 
ATOM     27  C   UNL     1       3.071  -1.131  -0.208  0.00  0.00    +0.075 A 
ATOM     28  C   UNL     1       1.722  -1.186  -0.010  0.00  0.00    +0.163 A 
ATOM     29  H   UNL     1       5.511  -0.790  -0.898  0.00  0.00    +0.165 HD
BRANCH  19  31
ATOM     30  C   UNL     1      -1.348   0.063  -1.599  0.00  0.00    +0.277 C 
ATOM     31  O   UNL     1      -0.501  -0.616  -0.670  0.00  0.00    -0.491 OA
ENDBRANCH  19  31
BRANCH  28  32
ATOM     32  O   UNL     1       1.227  -1.880   1.049  0.00  0.00    -0.491 OA
ATOM     33  C   UNL     1       2.175  -2.516   1.908  0.00  0.00    +0.277 C 
ENDBRANCH  28  32
ENDBRANCH  18  22
ENDBRANCH   1  18
TORSDOF 7
