REMARK  Name = CHEMBL214063
REMARK  9 active torsions:
REMARK  status: ('A' for Active; 'I' for Inactive)
REMARK    1  A    between atoms: C_1  and  C_2
REMARK    2  A    between atoms: C_6  and  N_8
REMARK    3  A    between atoms: N_11  and  C_12
REMARK    4  A    between atoms: N_11  and  C_39
REMARK    5  A    between atoms: C_12  and  C_13
REMARK    6  A    between atoms: C_16  and  C_18
REMARK    7  A    between atoms: C_27  and  C_31
REMARK    8  A    between atoms: C_31  and  N_32
REMARK    9  A    between atoms: N_35  and  C_38
REMARK                            x       y       z     vdW  Elec       q    Type
REMARK                         _______ _______ _______ _____ _____    ______ ____
ROOT
ATOM      1  C   UNL     1       5.348  -7.803   2.864  0.00  0.00    +0.076 A 
ATOM      2  C   UNL     1       5.663  -8.680   1.867  0.00  0.00    +0.010 A 
ATOM      3  C   UNL     1       7.062  -8.755   1.777  0.00  0.00    +0.097 A 
ATOM      4  N   UNL     1       7.573  -7.949   2.689  0.00  0.00    -0.173 NA
ATOM      5  H   UNL     1       6.612  -6.694   4.104  0.00  0.00    +0.189 HD
ATOM      6  N   UNL     1       6.522  -7.336   3.382  0.00  0.00    -0.276 N 
ATOM      7  C   UNL     1       7.433  -9.705   0.697  0.00  0.00    +0.006 A 
ATOM      8  C   UNL     1       8.681 -10.116   0.226  0.00  0.00    +0.010 A 
ATOM      9  C   UNL     1       8.761 -11.026  -0.808  0.00  0.00    +0.005 A 
ATOM     10  C   UNL     1       7.608 -11.533  -1.380  0.00  0.00    -0.033 A 
ATOM     11  C   UNL     1       6.368 -11.130  -0.917  0.00  0.00    +0.009 A 
ATOM     12  C   UNL     1       6.279 -10.221   0.116  0.00  0.00    -0.033 A 
ATOM     13  C   UNL     1       5.094  -9.605   0.820  0.00  0.00    +0.075 C 
ENDROOT
BRANCH   1  17
ATOM     14  C   UNL     1       1.416  -6.696   3.631  0.00  0.00    +0.008 A 
ATOM     15  C   UNL     1       2.176  -6.938   4.731  0.00  0.00    +0.013 A 
ATOM     16  C   UNL     1       3.491  -7.310   4.569  0.00  0.00    +0.018 A 
ATOM     17  C   UNL     1       3.992  -7.425   3.298  0.00  0.00    +0.038 A 
ATOM     18  S   UNL     1       2.569  -7.005   2.304  0.00  0.00    -0.090 S 
BRANCH  14  19
ATOM     19  C   UNL     1      -0.030  -6.281   3.552  0.00  0.00    +0.152 C 
BRANCH  19  23
ATOM     20  N   UNL     1      -0.076  -2.797   2.381  0.00  0.00    -0.269 N 
ATOM     21  C   UNL     1      -0.096  -4.145   2.381  0.00  0.00    +0.307 C 
ATOM     22  O   UNL     1      -0.092  -4.753   1.328  0.00  0.00    -0.252 OA
ATOM     23  N   UNL     1      -0.119  -4.819   3.548  0.00  0.00    -0.278 N 
ATOM     24  H   UNL     1       0.053  -2.314   3.212  0.00  0.00    +0.156 HD
BRANCH  20  30
ATOM     25  C   UNL     1      -1.663   1.203   0.004  0.00  0.00    +0.044 C 
ATOM     26  C   UNL     1      -1.008  -0.154   0.001  0.00  0.00    -0.049 A 
ATOM     27  C   UNL     1      -0.570  -0.707  -1.189  0.00  0.00    +0.003 A 
ATOM     28  C   UNL     1       0.031  -1.952  -1.196  0.00  0.00    +0.002 A 
ATOM     29  C   UNL     1       0.196  -2.647  -0.014  0.00  0.00    +0.023 A 
ATOM     30  C   UNL     1      -0.242  -2.095   1.182  0.00  0.00    +0.035 A 
ATOM     31  C   UNL     1      -0.841  -0.842   1.187  0.00  0.00    +0.026 A 
ENDBRANCH  20  30
BRANCH  23  32
ATOM     32  C   UNL     1      -0.233  -4.088   4.813  0.00  0.00    +0.078 C 
ATOM     33  C   UNL     1      -0.243  -4.909   6.104  0.00  0.00    +0.024 C 
ATOM     34  C   UNL     1      -1.531  -4.250   5.608  0.00  0.00    +0.024 C 
ENDBRANCH  23  32
ENDBRANCH  19  23
ENDBRANCH  14  19
ENDBRANCH   1  17
BRANCH  10  35
ATOM     35  C   UNL     1       7.703 -12.527  -2.509  0.00  0.00    +0.119 C 
BRANCH  35  36
ATOM     36  N   UNL     1       7.737 -13.889  -1.962  0.00  0.00    -0.302 NA
ATOM     37  C   UNL     1       8.971 -14.118  -1.196  0.00  0.00    +0.066 C 
ATOM     38  C   UNL     1       8.941 -15.525  -0.595  0.00  0.00    -0.064 C 
ATOM     39  N   UNL     1       8.821 -16.516  -1.672  0.00  0.00    +0.379 N 
ATOM     40  C   UNL     1       7.572 -16.290  -2.411  0.00  0.00    -0.064 C 
ATOM     41  C   UNL     1       7.591 -14.890  -3.028  0.00  0.00    +0.066 C 
ATOM     42  C   UNL     1       8.810 -17.867  -1.095  0.00  0.00    -0.096 C 
ATOM     43  H   UNL     1       9.605 -16.426  -2.300  0.00  0.00    -0.082 HD
ENDBRANCH  35  36
ENDBRANCH  10  35
TORSDOF 7
