REMARK  Name = CHEMBL403661
REMARK  5 active torsions:
REMARK  status: ('A' for Active; 'I' for Inactive)
REMARK    1  A    between atoms: C_1  and  C_2
REMARK    2  A    between atoms: C_2  and  C_3
REMARK    3  A    between atoms: C_6  and  C_9
REMARK    4  A    between atoms: C_20  and  C_21
REMARK    5  A    between atoms: C_24  and  C_27
REMARK                            x       y       z     vdW  Elec       q    Type
REMARK                         _______ _______ _______ _____ _____    ______ ____
ROOT
ATOM      1  C   UNL     1      -5.396  -1.996   0.043  0.00  0.00    +0.006 A 
ATOM      2  C   UNL     1      -5.711  -3.332  -0.484  0.00  0.00    +0.008 A 
ATOM      3  C   UNL     1      -4.701  -4.146  -1.007  0.00  0.00    +0.030 A 
ATOM      4  C   UNL     1      -5.014  -5.395  -1.496  0.00  0.00    +0.042 A 
ATOM      5  C   UNL     1      -6.328  -5.847  -1.472  0.00  0.00    +0.022 A 
ATOM      6  C   UNL     1      -7.333  -5.056  -0.961  0.00  0.00    +0.028 A 
ATOM      7  C   UNL     1      -7.039  -3.791  -0.461  0.00  0.00    +0.050 A 
ATOM      8  N   UNL     1      -8.045  -2.996   0.053  0.00  0.00    -0.322 N 
ATOM      9  H   UNL     1      -8.955  -3.332   0.060  0.00  0.00    +0.169 HD
ATOM     10  C   UNL     1      -7.795  -1.770   0.543  0.00  0.00    +0.259 A 
ATOM     11  O   UNL     1      -8.713  -1.103   0.988  0.00  0.00    -0.267 OA
ATOM     12  C   UNL     1      -6.437  -1.228   0.557  0.00  0.00    +0.074 A 
ATOM     13 CL   UNL     1      -3.763  -6.408  -2.145  0.00  0.00    -0.084 Cl
ENDROOT
BRANCH  12  14
ATOM     14  C   UNL     1      -6.173   0.121   1.106  0.00  0.00    +0.095 A 
ATOM     15  C   UNL     1      -7.097   0.965   1.641  0.00  0.00    +0.112 A 
ATOM     16  N   UNL     1      -6.424   2.093   2.020  0.00  0.00    -0.348 N 
ATOM     17  C   UNL     1      -5.121   1.911   1.711  0.00  0.00    +0.105 A 
ATOM     18  N   UNL     1      -4.972   0.733   1.172  0.00  0.00    -0.233 NA
ATOM     19  H   UNL     1      -6.810   2.880   2.435  0.00  0.00    +0.166 HD
ATOM     20  C   UNL     1      -4.016   2.906   1.956  0.00  0.00    +0.086 C 
ENDBRANCH  12  14
BRANCH   1  24
ATOM     21  C   UNL     1      -1.412  -0.526   0.013  0.00  0.00    -0.048 A 
ATOM     22  C   UNL     1      -2.048  -0.765   1.218  0.00  0.00    +0.004 A 
ATOM     23  C   UNL     1      -3.342  -1.242   1.235  0.00  0.00    +0.009 A 
ATOM     24  C   UNL     1      -4.010  -1.484   0.032  0.00  0.00    -0.016 A 
ATOM     25  C   UNL     1      -3.362  -1.240  -1.180  0.00  0.00    +0.009 A 
ATOM     26  C   UNL     1      -2.069  -0.758  -1.183  0.00  0.00    +0.004 A 
BRANCH  21  28
ATOM     27  C   UNL     1      -0.019   1.526   0.010  0.00  0.00    +0.009 C 
ATOM     28  C   UNL     1       0.002  -0.004   0.002  0.00  0.00    +0.032 C 
ENDBRANCH  21  28
ENDBRANCH   1  24
TORSDOF 3
