REMARK  Name = CHEMBL378895
REMARK  9 active torsions:
REMARK  status: ('A' for Active; 'I' for Inactive)
REMARK    1  A    between atoms: C_1  and  N_2
REMARK    2  A    between atoms: N_5  and  C_8
REMARK    3  A    between atoms: C_8  and  C_9
REMARK    4  A    between atoms: C_21  and  C_22
REMARK    5  A    between atoms: C_25  and  C_27
REMARK    6  A    between atoms: C_27  and  N_28
REMARK    7  A    between atoms: N_28  and  C_29
REMARK    8  A    between atoms: N_32  and  C_33
REMARK    9  A    between atoms: C_35  and  C_40
REMARK                            x       y       z     vdW  Elec       q    Type
REMARK                         _______ _______ _______ _____ _____    ______ ____
ROOT
ATOM      1  C   UNL     1      -0.265  -5.910   9.505  0.00  0.00    +0.040 A 
ATOM      2  C   UNL     1      -0.194  -6.881  10.468  0.00  0.00    +0.018 A 
ATOM      3  C   UNL     1      -1.261  -7.042  11.325  0.00  0.00    +0.013 A 
ATOM      4  C   UNL     1      -2.345  -6.237  11.191  0.00  0.00    +0.008 A 
ATOM      5  S   UNL     1      -1.872  -5.199   9.818  0.00  0.00    -0.090 S 
ENDROOT
BRANCH   1  18
ATOM      6  C   UNL     1       0.399  -3.560   2.705  0.00  0.00    -0.033 A 
ATOM      7  C   UNL     1       1.764  -3.613   2.919  0.00  0.00    +0.005 A 
ATOM      8  C   UNL     1       2.263  -4.025   4.138  0.00  0.00    +0.010 A 
ATOM      9  C   UNL     1       1.385  -4.390   5.162  0.00  0.00    +0.004 A 
ATOM     10  C   UNL     1       0.011  -4.332   4.935  0.00  0.00    -0.033 A 
ATOM     11  C   UNL     1      -0.477  -3.915   3.716  0.00  0.00    +0.009 A 
ATOM     12  C   UNL     1      -0.665  -4.781   6.208  0.00  0.00    +0.075 C 
ATOM     13  C   UNL     1       0.451  -5.097   7.174  0.00  0.00    +0.010 A 
ATOM     14  C   UNL     1       1.633  -4.862   6.542  0.00  0.00    +0.070 A 
ATOM     15  N   UNL     1       2.633  -5.152   7.428  0.00  0.00    -0.276 N 
ATOM     16  N   UNL     1       2.043  -5.574   8.625  0.00  0.00    -0.173 NA
ATOM     17  H   UNL     1       3.585  -5.079   7.256  0.00  0.00    +0.189 HD
ATOM     18  C   UNL     1       0.734  -5.542   8.477  0.00  0.00    +0.103 A 
BRANCH   6  19
ATOM     19  C   UNL     1      -0.137  -3.108   1.371  0.00  0.00    +0.119 C 
BRANCH  19  24
ATOM     20  C   UNL     1      -0.207   2.445   0.422  0.00  0.00    -0.096 C 
ATOM     21  N   UNL     1       0.009   0.994   0.360  0.00  0.00    +0.379 N 
ATOM     22  C   UNL     1      -1.288   0.308   0.280  0.00  0.00    -0.064 C 
ATOM     23  C   UNL     1      -1.062  -1.203   0.197  0.00  0.00    +0.066 C 
ATOM     24  N   UNL     1      -0.324  -1.651   1.386  0.00  0.00    -0.302 NA
ATOM     25  C   UNL     1       0.966  -0.956   1.493  0.00  0.00    +0.066 C 
ATOM     26  C   UNL     1       0.724   0.554   1.565  0.00  0.00    -0.064 C 
ATOM     27  H   UNL     1       0.558   0.770  -0.457  0.00  0.00    -0.082 HD
ENDBRANCH  19  24
ENDBRANCH   6  19
ENDBRANCH   1  18
BRANCH   4  28
ATOM     28  C   UNL     1      -3.619  -6.220  11.997  0.00  0.00    +0.151 C 
BRANCH  28  29
ATOM     29  N   UNL     1      -3.466  -5.307  13.132  0.00  0.00    -0.284 N 
ATOM     30  C   UNL     1      -3.826  -3.894  12.990  0.00  0.00    +0.134 C 
ATOM     31  C   UNL     1      -2.994  -5.766  14.308  0.00  0.00    +0.307 C 
ATOM     32  O   UNL     1      -2.694  -6.939  14.426  0.00  0.00    -0.252 OA
ATOM     33  N   UNL     1      -2.853  -4.926  15.352  0.00  0.00    -0.269 N 
ATOM     34  H   UNL     1      -3.018  -3.977  15.237  0.00  0.00    +0.156 HD
BRANCH  33  35
ATOM     35  C   UNL     1      -2.469  -5.423  16.603  0.00  0.00    +0.038 A 
ATOM     36  C   UNL     1      -1.687  -4.647  17.449  0.00  0.00    +0.036 A 
ATOM     37  C   UNL     1      -1.309  -5.139  18.683  0.00  0.00    +0.059 A 
ATOM     38  C   UNL     1      -1.707  -6.403  19.078  0.00  0.00    +0.050 A 
ATOM     39  C   UNL     1      -2.487  -7.180  18.237  0.00  0.00    +0.126 A 
ATOM     40  C   UNL     1      -2.873  -6.689  17.002  0.00  0.00    +0.061 A 
ATOM     41  F   UNL     1      -2.874  -8.415  18.624  0.00  0.00    -0.205 F 
BRANCH  37  42
ATOM     42  C   UNL     1      -0.460  -4.297  19.601  0.00  0.00    +0.418 C 
ATOM     43  F   UNL     1      -1.288  -3.525  20.423  0.00  0.00    -0.166 F 
ATOM     44  F   UNL     1       0.338  -5.130  20.393  0.00  0.00    -0.166 F 
ATOM     45  F   UNL     1       0.357  -3.455  18.839  0.00  0.00    -0.166 F 
ENDBRANCH  37  42
ENDBRANCH  33  35
ENDBRANCH  28  29
ENDBRANCH   4  28
TORSDOF 7
