REMARK  Name = CHEMBL247585
REMARK  3 active torsions:
REMARK  status: ('A' for Active; 'I' for Inactive)
REMARK    1  A    between atoms: C_4  and  C_7
REMARK    2  A    between atoms: N_9  and  C_10
REMARK    3  A    between atoms: C_22  and  C_23
REMARK                            x       y       z     vdW  Elec       q    Type
REMARK                         _______ _______ _______ _____ _____    ______ ____
ROOT
ATOM      1  C   UNL     1       4.960  -2.664  -0.153  0.00  0.00    +0.038 A 
ATOM      2  C   UNL     1       6.128  -1.910  -0.147  0.00  0.00    +0.023 A 
ATOM      3  C   UNL     1       7.355  -2.535  -0.253  0.00  0.00    +0.002 A 
ATOM      4  C   UNL     1       7.430  -3.909  -0.366  0.00  0.00    +0.010 A 
ATOM      5  C   UNL     1       6.263  -4.676  -0.374  0.00  0.00    +0.008 A 
ATOM      6  C   UNL     1       5.029  -4.044  -0.260  0.00  0.00    -0.013 A 
ATOM      7  C   UNL     1       3.961  -5.110  -0.288  0.00  0.00    +0.077 C 
ATOM      8  C   UNL     1       4.686  -6.426  -0.422  0.00  0.00    +0.010 A 
ATOM      9  C   UNL     1       6.061  -6.143  -0.482  0.00  0.00    +0.097 A 
ATOM     10  N   UNL     1       6.707  -7.287  -0.604  0.00  0.00    -0.173 NA
ATOM     11  N   UNL     1       5.769  -8.326  -0.644  0.00  0.00    -0.276 N 
ATOM     12  H   UNL     1       5.968  -9.271  -0.729  0.00  0.00    +0.189 HD
ATOM     13  C   UNL     1       4.527  -7.776  -0.515  0.00  0.00    +0.070 A 
ENDROOT
BRANCH  13  14
ATOM     14  C   UNL     1       3.242  -8.508  -0.507  0.00  0.00    +0.007 A 
ATOM     15  C   UNL     1       3.079  -9.654   0.268  0.00  0.00    +0.017 A 
ATOM     16  C   UNL     1       1.889 -10.295   0.250  0.00  0.00    +0.046 A 
ATOM     17  S   UNL     1       0.936  -9.294  -0.879  0.00  0.00    -0.104 S 
ATOM     18  C   UNL     1       2.183  -8.073  -1.256  0.00  0.00    +0.055 A 
ENDBRANCH  13  14
BRANCH   1  21
ATOM     19  C   UNL     1       3.624  -0.825   0.548  0.00  0.00    +0.248 C 
ATOM     20  O   UNL     1       4.601  -0.332   1.078  0.00  0.00    -0.270 OA
ATOM     21  N   UNL     1       3.717  -2.032  -0.045  0.00  0.00    -0.281 N 
ATOM     22  H   UNL     1       2.922  -2.462  -0.396  0.00  0.00    +0.155 HD
BRANCH  19  26
ATOM     23  C   UNL     1      -0.080   1.254   0.565  0.00  0.00    +0.000 A 
ATOM     24  C   UNL     1       1.030   1.818   1.169  0.00  0.00    +0.001 A 
ATOM     25  C   UNL     1       2.236   1.148   1.167  0.00  0.00    +0.013 A 
ATOM     26  C   UNL     1       2.335  -0.102   0.554  0.00  0.00    +0.037 A 
ATOM     27  C   UNL     1       1.212  -0.666  -0.053  0.00  0.00    +0.013 A 
ATOM     28  C   UNL     1       0.012   0.015  -0.045  0.00  0.00    +0.001 A 
ENDBRANCH  19  26
ENDBRANCH   1  21
TORSDOF 3
