REMARK  Name = CHEMBL1173149
REMARK  5 active torsions:
REMARK  status: ('A' for Active; 'I' for Inactive)
REMARK    1  A    between atoms: C_1  and  O_2
REMARK    2  A    between atoms: O_2  and  C_3
REMARK    3  A    between atoms: C_6  and  N_9
REMARK    4  A    between atoms: N_12  and  C_13
REMARK    5  A    between atoms: C_23  and  C_24
REMARK                            x       y       z     vdW  Elec       q    Type
REMARK                         _______ _______ _______ _____ _____    ______ ____
ROOT
ATOM      1  C   UNL     1       3.178  -5.859   5.800  0.00  0.00    +0.037 A 
ATOM      2  C   UNL     1       2.297  -6.598   5.017  0.00  0.00    +0.024 A 
ATOM      3  C   UNL     1       2.402  -7.973   4.970  0.00  0.00    +0.012 A 
ATOM      4  C   UNL     1       3.391  -8.617   5.707  0.00  0.00    +0.008 A 
ATOM      5  C   UNL     1       4.283  -7.878   6.497  0.00  0.00    +0.043 A 
ATOM      6  C   UNL     1       4.170  -6.494   6.532  0.00  0.00    +0.047 A 
ATOM      7  N   UNL     1       5.165  -8.749   7.125  0.00  0.00    -0.281 N 
ATOM      8  C   UNL     1       4.909 -10.027   6.796  0.00  0.00    +0.249 C 
ATOM      9  O   UNL     1       5.517 -11.004   7.194  0.00  0.00    -0.270 OA
ATOM     10  C   UNL     1       3.766 -10.039   5.873  0.00  0.00    +0.048 C 
ATOM     11  C   UNL     1       3.171 -11.139   5.287  0.00  0.00    +0.039 C 
ATOM     12  H   UNL     1       5.875  -8.471   7.725  0.00  0.00    +0.155 HD
ENDROOT
BRANCH   1  16
ATOM     13  N   UNL     1       1.792  -2.534   5.535  0.00  0.00    -0.269 N 
ATOM     14  C   UNL     1       1.876  -3.877   5.613  0.00  0.00    +0.308 C 
ATOM     15  O   UNL     1       0.878  -4.558   5.476  0.00  0.00    -0.252 OA
ATOM     16  N   UNL     1       3.066  -4.465   5.844  0.00  0.00    -0.269 N 
ATOM     17  H   UNL     1       2.598  -1.996   5.557  0.00  0.00    +0.156 HD
ATOM     18  H   UNL     1       3.846  -3.922   6.040  0.00  0.00    +0.156 HD
BRANCH  13  22
ATOM     19  C   UNL     1      -1.936  -0.695   5.199  0.00  0.00    +0.120 A 
ATOM     20  C   UNL     1      -1.828  -1.937   5.807  0.00  0.00    +0.047 A 
ATOM     21  C   UNL     1      -0.594  -2.546   5.919  0.00  0.00    +0.027 A 
ATOM     22  C   UNL     1       0.539  -1.916   5.422  0.00  0.00    +0.035 A 
ATOM     23  C   UNL     1       0.430  -0.673   4.813  0.00  0.00    +0.027 A 
ATOM     24  C   UNL     1      -0.805  -0.067   4.698  0.00  0.00    +0.047 A 
BRANCH  19  26
ATOM     25  C   UNL     1      -4.272  -0.798   5.629  0.00  0.00    +0.277 C 
ATOM     26  O   UNL     1      -3.151  -0.095   5.090  0.00  0.00    -0.495 OA
ENDBRANCH  19  26
ENDBRANCH  13  22
ENDBRANCH   1  16
BRANCH  11  27
ATOM     27  C   UNL     1       3.390 -12.427   5.819  0.00  0.00    +0.040 A 
ATOM     28  C   UNL     1       3.150 -13.632   5.178  0.00  0.00    +0.027 A 
ATOM     29  C   UNL     1       3.507 -14.647   6.067  0.00  0.00    +0.019 A 
ATOM     30  C   UNL     1       3.948 -14.067   7.210  0.00  0.00    +0.083 A 
ATOM     31  N   UNL     1       3.888 -12.718   7.071  0.00  0.00    -0.361 N 
ATOM     32  H   UNL     1       4.149 -12.068   7.742  0.00  0.00    +0.165 HD
ENDBRANCH  11  27
TORSDOF 4
