REMARK  6 active torsions:
REMARK  status: ('A' for Active; 'I' for Inactive)
REMARK    1  A    between atoms: C5_6  and  N34_23 
REMARK    2  A    between atoms: C10_9  and  C23_17 
REMARK    3  A    between atoms: C11_10  and  C12_11 
REMARK    4  A    between atoms: N34_23  and  C35_25 
REMARK    5  A    between atoms: C35_25  and  C36_26 
REMARK    6  A    between atoms: C36_26  and  N39_27 
ROOT
HETATM    1  C1  547 A 201      23.313  35.204  82.692  1.00 11.74     0.092 A 
HETATM    2  N2  547 A 201      24.611  34.997  82.353  1.00 11.30    -0.346 N 
ATOM      3  H2  547 A 201      24.844  34.193  81.771  1.00  0.00     0.167 HD
HETATM    4  C3  547 A 201      25.633  35.839  82.769  1.00  9.59     0.161 A 
HETATM    5  C4  547 A 201      25.367  36.959  83.592  1.00 10.79     0.056 A 
HETATM    6  C5  547 A 201      23.976  37.204  83.984  1.00 11.00     0.044 A 
HETATM    7  C6  547 A 201      22.954  36.298  83.521  1.00  9.95     0.047 A 
HETATM    8  O9  547 A 201      26.956  35.721  82.487  1.00 10.10    -0.291 OA
HETATM    9  C10 547 A 201      27.572  36.784  83.118  1.00 12.43     0.096 A 
HETATM   10  C11 547 A 201      26.557  37.628  83.863  1.00 11.80     0.025 A 
ENDROOT
BRANCH   6  11
HETATM   11  N34 547 A 201      23.670  38.280  84.791  1.00 11.07    -0.387 N 
ATOM     12  H34 547 A 201      24.430  38.885  85.102  1.00  0.00     0.159 HD
BRANCH  11  13
HETATM   13  C35 547 A 201      22.313  38.593  85.220  1.00 11.79     0.150 C 
BRANCH  13  14
HETATM   14  C36 547 A 201      22.246  39.834  86.115  1.00 15.55     0.292 C 
BRANCH  14  15
HETATM   15  N39 547 A 201      23.026  41.002  85.634  1.00 16.73     0.093 N 
HETATM   16  C42 547 A 201      23.234  41.871  86.824  1.00 17.38     0.300 C 
HETATM   17  C43 547 A 201      24.034  43.127  86.431  1.00 18.41     0.262 C 
HETATM   18  N44 547 A 201      23.311  43.845  85.340  1.00 19.65    -0.072 N 
HETATM   19  C45 547 A 201      23.098  42.970  84.144  1.00 19.38     0.262 C 
ATOM     20 2H44 547 A 201      23.787  44.711  85.087  1.00  0.00     0.277 HD
ATOM     21 1H44 547 A 201      22.431  44.238  85.674  1.00  0.00     0.277 HD
HETATM   22  C46 547 A 201      22.274  41.739  84.580  1.00 18.00     0.300 C 
ENDBRANCH  14  15
ENDBRANCH  13  14
ENDBRANCH  11  13
ENDBRANCH   6  11
BRANCH  10  23
HETATM   23  C12 547 A 201      26.712  38.856  84.682  1.00 12.39    -0.022 A 
HETATM   24  C13 547 A 201      27.022  40.112  84.056  1.00 13.65     0.012 A 
HETATM   25  C14 547 A 201      27.184  41.283  84.865  1.00 13.00     0.001 A 
HETATM   26  C15 547 A 201      27.037  41.189  86.299  1.00 13.62     0.000 A 
HETATM   27  C16 547 A 201      26.722  39.928  86.932  1.00 14.37     0.001 A 
HETATM   28  C17 547 A 201      26.562  38.759  86.120  1.00 13.33     0.012 A 
ENDBRANCH  10  23
BRANCH   9  29
HETATM   29  C23 547 A 201      29.053  36.992  83.027  1.00 12.94    -0.020 A 
HETATM   30  C24 547 A 201      29.786  36.242  82.045  1.00 11.23     0.010 A 
HETATM   31  C25 547 A 201      31.205  36.427  81.923  1.00 13.70     0.000 A 
HETATM   32  C26 547 A 201      31.889  37.371  82.780  1.00 13.41    -0.004 A 
HETATM   33  C27 547 A 201      31.168  38.121  83.763  1.00 13.39    -0.022 A 
HETATM   34  C28 547 A 201      29.764  37.930  83.880  1.00 14.13     0.068 A 
ENDBRANCH   9  29
TORSDOF 6
