REMARK  Name = ZINC06195822
REMARK  10 active torsions:
REMARK  status: ('A' for Active; 'I' for Inactive)
REMARK    1  A    between atoms: C_1  and  C_2
REMARK    2  A    between atoms: C_5  and  C_41
REMARK    3  A    between atoms: C_6  and  N_8
REMARK    4  A    between atoms: C_13  and  C_15
REMARK    5  A    between atoms: C_13  and  C_29
REMARK    6  A    between atoms: C_13  and  N_76
REMARK    7  A    between atoms: C_19  and  C_28
REMARK    8  A    between atoms: C_20  and  C_27
REMARK    9  A    between atoms: N_33  and  C_34
REMARK   10  A    between atoms: C_34  and  C_35
REMARK                            x       y       z     vdW  Elec       q    Type
REMARK                         _______ _______ _______ _____ _____    ______ ____
ROOT
ATOM      1  C   UNL     1       4.048   5.155   1.956  0.00  0.00    +0.039 C 
ENDROOT
BRANCH   1   2
ATOM      2  C   UNL     1       5.058   6.251   1.730  0.00  0.00    +0.011 A 
ATOM      3  C   UNL     1       6.119   6.034   0.915  0.00  0.00    +0.017 A 
ATOM      4  C   UNL     1       7.080   7.121   0.714  0.00  0.00    -0.001 A 
ATOM      5  C   UNL     1       8.191   6.959  -0.120  0.00  0.00    +0.013 A 
ATOM      6  C   UNL     1       9.070   7.991  -0.284  0.00  0.00    -0.047 A 
ATOM      7  C   UNL     1       8.871   9.200   0.370  0.00  0.00    -0.046 A 
ATOM      8  C   UNL     1       7.784   9.382   1.196  0.00  0.00    +0.030 A 
ATOM      9  C   UNL     1       6.874   8.345   1.378  0.00  0.00    +0.049 A 
ATOM     10  N   UNL     1       5.777   8.499   2.198  0.00  0.00    -0.322 N 
ATOM     11  H   UNL     1       5.637   9.343   2.655  0.00  0.00    +0.169 HD
ATOM     12  C   UNL     1       4.898   7.497   2.373  0.00  0.00    +0.251 A 
ATOM     13  O   UNL     1       3.938   7.669   3.105  0.00  0.00    -0.268 OA
ATOM     14  C   UNL     1       9.855  10.324   0.174  0.00  0.00    +0.044 C 
ATOM     15  C   UNL     1      10.268   7.817  -1.183  0.00  0.00    +0.044 C 
ENDBRANCH   1   2
BRANCH   1  21
ATOM     16  N   UNL     1       4.074   3.323   5.762  0.00  0.00    -0.333 N 
ATOM     17  C   UNL     1       2.772   3.652   5.165  0.00  0.00    +0.086 C 
ATOM     18  C   UNL     1       2.938   3.833   3.654  0.00  0.00    -0.058 C 
ATOM     19  C   UNL     1       5.218   4.570   3.994  0.00  0.00    -0.058 C 
ATOM     20  C   UNL     1       5.052   4.389   5.504  0.00  0.00    +0.086 C 
ATOM     21  N   UNL     1       3.907   4.921   3.409  0.00  0.00    +0.391 N 
ATOM     22  H   UNL     1       3.563   5.781   3.853  0.00  0.00    -0.080 HD
BRANCH  16  28
ATOM     23  C   UNL     1       2.983   4.958  10.267  0.00  0.00    +0.044 C 
ATOM     24  C   UNL     1       3.421   3.854   9.340  0.00  0.00    -0.049 A 
ATOM     25  C   UNL     1       3.702   2.598   9.846  0.00  0.00    +0.004 A 
ATOM     26  C   UNL     1       4.105   1.582   8.998  0.00  0.00    +0.005 A 
ATOM     27  C   UNL     1       4.230   1.819   7.643  0.00  0.00    -0.029 A 
ATOM     28  C   UNL     1       3.949   3.080   7.132  0.00  0.00    +0.033 A 
ATOM     29  C   UNL     1       3.548   4.099   7.987  0.00  0.00    +0.026 A 
ATOM     30  C   UNL     1       4.669   0.712   6.721  0.00  0.00    +0.045 C 
ENDBRANCH  16  28
ENDBRANCH   1  21
BRANCH   1  31
ATOM     31  C   UNL     1       2.714   5.578   1.397  0.00  0.00    +0.143 A 
ATOM     32  N   UNL     1       1.884   6.444   1.924  0.00  0.00    -0.115 NA
ATOM     33  N   UNL     1       0.857   6.533   1.151  0.00  0.00    -0.023 NA
ATOM     34  N   UNL     1       1.013   5.750   0.141  0.00  0.00    -0.044 NA
ATOM     35  N   UNL     1       2.143   5.139   0.259  0.00  0.00    -0.228 N 
BRANCH  35  36
ATOM     36  C   UNL     1       2.704   4.158  -0.673  0.00  0.00    +0.178 C 
BRANCH  36  37
ATOM     37  C   UNL     1       2.255   2.753  -0.265  0.00  0.00    +0.140 C 
ATOM     38  C   UNL     1       2.844   1.691  -1.227  0.00  0.00    +0.035 C 
ATOM     39  C   UNL     1       1.834   0.526  -1.082  0.00  0.00    +0.031 C 
ATOM     40  C   UNL     1       0.561   1.197  -0.532  0.00  0.00    +0.160 C 
ATOM     41  O   UNL     1       0.829   2.606  -0.433  0.00  0.00    -0.375 OA
ENDBRANCH  36  37
ENDBRANCH  35  36
ENDBRANCH   1  31
TORSDOF 6
