REMARK  Name = ZINC36500507
REMARK  13 active torsions:
REMARK  status: ('A' for Active; 'I' for Inactive)
REMARK    1  A    between atoms: C_1  and  C_2
REMARK    2  A    between atoms: C_2  and  C_3
REMARK    3  A    between atoms: C_2  and  C_4
REMARK    4  A    between atoms: C_2  and  N_5
REMARK    5  A    between atoms: C_6  and  C_8
REMARK    6  A    between atoms: C_8  and  C_10
REMARK    7  A    between atoms: C_8  and  N_20
REMARK    8  A    between atoms: C_13  and  C_16
REMARK    9  A    between atoms: N_20  and  C_21
REMARK   10  A    between atoms: C_21  and  C_22
REMARK   11  A    between atoms: C_27  and  C_29
REMARK   12  A    between atoms: C_30  and  O_36
REMARK   13  A    between atoms: C_34  and  O_35
REMARK                            x       y       z     vdW  Elec       q    Type
REMARK                         _______ _______ _______ _____ _____    ______ ____
ROOT
ATOM      1  C   UNL     1       2.493  -0.385  -2.639  0.00  0.00    +0.193 C 
ENDROOT
BRANCH   1   2
ATOM      2  C   UNL     1       2.319  -1.882  -2.640  0.00  0.00    -0.018 A 
ATOM      3  C   UNL     1       3.111  -2.671  -1.827  0.00  0.00    +0.006 A 
ATOM      4  C   UNL     1       2.952  -4.044  -1.828  0.00  0.00    +0.013 A 
ATOM      5  C   UNL     1       1.999  -4.628  -2.641  0.00  0.00    +0.055 A 
ATOM      6  C   UNL     1       1.206  -3.840  -3.453  0.00  0.00    +0.013 A 
ATOM      7  C   UNL     1       1.362  -2.466  -3.449  0.00  0.00    +0.006 A 
BRANCH   5   8
ATOM      8  C   UNL     1       1.825  -6.125  -2.643  0.00  0.00    +0.417 C 
ATOM      9  F   UNL     1       0.882  -6.487  -1.675  0.00  0.00    -0.166 F 
ATOM     10  F   UNL     1       1.383  -6.542  -3.903  0.00  0.00    -0.166 F 
ATOM     11  F   UNL     1       3.050  -6.737  -2.352  0.00  0.00    -0.166 F 
ENDBRANCH   5   8
ENDBRANCH   1   2
BRANCH   1  13
ATOM     12  N   UNL     1       0.584   1.034  -1.959  0.00  0.00    -0.309 N 
ATOM     13  C   UNL     1       1.597   0.224  -1.592  0.00  0.00    +0.239 C 
ATOM     14  O   UNL     1       1.787  -0.014  -0.418  0.00  0.00    -0.273 OA
ATOM     15  H   UNL     1       0.432   1.224  -2.898  0.00  0.00    +0.149 HD
BRANCH  12  17
ATOM     16  C   UNL     1       0.550   2.487   0.007  0.00  0.00    +0.031 C 
ATOM     17  C   UNL     1      -0.287   1.626  -0.941  0.00  0.00    +0.026 C 
ATOM     18  C   UNL     1      -0.973   0.513  -0.147  0.00  0.00    +0.031 C 
ATOM     19  C   UNL     1      -1.347   2.496  -1.620  0.00  0.00    +0.031 C 
ENDBRANCH  12  17
ENDBRANCH   1  13
BRANCH   1  20
ATOM     20  N   UNL     1       3.889  -0.056  -2.339  0.00  0.00    -0.274 N 
ATOM     21  C   UNL     1       4.870  -0.463  -3.169  0.00  0.00    +0.255 C 
ATOM     22  O   UNL     1       4.597  -1.103  -4.166  0.00  0.00    -0.270 OA
BRANCH  21  23
ATOM     23  C   UNL     1       6.273  -0.132  -2.867  0.00  0.00    +0.119 A 
ATOM     24  C   UNL     1       7.054  -1.005  -2.097  0.00  0.00    +0.133 A 
ATOM     25  C   UNL     1       8.373  -0.684  -1.819  0.00  0.00    +0.046 A 
ATOM     26  C   UNL     1       8.919   0.491  -2.299  0.00  0.00    +0.007 A 
ATOM     27  C   UNL     1       8.158   1.359  -3.059  0.00  0.00    +0.046 A 
ATOM     28  C   UNL     1       6.838   1.056  -3.353  0.00  0.00    +0.133 A 
BRANCH  28  29
ATOM     29  O   UNL     1       6.095   1.906  -4.105  0.00  0.00    -0.506 OA
ATOM     30  H   UNL     1       5.623   2.575  -3.590  0.00  0.00    +0.292 HD
ENDBRANCH  28  29
BRANCH  24  31
ATOM     31  O   UNL     1       6.521  -2.159  -1.624  0.00  0.00    -0.506 OA
ATOM     32  H   UNL     1       6.622  -2.913  -2.221  0.00  0.00    +0.292 HD
ENDBRANCH  24  31
ENDBRANCH  21  23
BRANCH  20  33
ATOM     33  C   UNL     1       4.218   0.715  -1.138  0.00  0.00    +0.183 C 
BRANCH  33  34
ATOM     34  C   UNL     1       4.564  -0.229  -0.015  0.00  0.00    +0.122 A 
ATOM     35  C   UNL     1       5.807  -0.563   0.377  0.00  0.00    +0.046 A 
ATOM     36  C   UNL     1       5.667  -1.467   1.455  0.00  0.00    +0.041 A 
ATOM     37  C   UNL     1       4.348  -1.631   1.658  0.00  0.00    +0.195 A 
ATOM     38  O   UNL     1       3.684  -0.874   0.768  0.00  0.00    -0.466 OA
ENDBRANCH  33  34
ENDBRANCH  20  33
ENDBRANCH   1  20
TORSDOF 10
