REMARK  Name = ZINC50284035
REMARK  4 active torsions:
REMARK  status: ('A' for Active; 'I' for Inactive)
REMARK    1  A    between atoms: C_4  and  C_7
REMARK    2  A    between atoms: C_7  and  C_9
REMARK    3  A    between atoms: C_7  and  N_22
REMARK    4  A    between atoms: C_12  and  C_14
REMARK                            x       y       z     vdW  Elec       q    Type
REMARK                         _______ _______ _______ _____ _____    ______ ____
ROOT
ATOM      1  C   UNL     1       4.014  -1.161  -1.442  0.00  0.00    +0.208 A 
ATOM      2  N   UNL     1       3.446  -2.151  -2.071  0.00  0.00    -0.114 NA
ATOM      3  N   UNL     1       3.947  -2.256  -3.251  0.00  0.00    -0.107 NA
ATOM      4  C   UNL     1       4.860  -1.328  -3.418  0.00  0.00    +0.250 A 
ATOM      5  O   UNL     1       4.916  -0.613  -2.276  0.00  0.00    -0.422 OA
ENDROOT
BRANCH   4   6
ATOM      6  C   UNL     1       5.672  -1.105  -4.632  0.00  0.00    +0.057 A 
ATOM      7  C   UNL     1       6.616  -0.077  -4.665  0.00  0.00    +0.016 A 
ATOM      8  C   UNL     1       7.372   0.126  -5.801  0.00  0.00    +0.016 A 
ATOM      9  C   UNL     1       7.195  -0.687  -6.908  0.00  0.00    +0.019 A 
ATOM     10  C   UNL     1       6.261  -1.708  -6.883  0.00  0.00    +0.036 A 
ATOM     11  C   UNL     1       5.503  -1.925  -5.750  0.00  0.00    +0.054 A 
ATOM     12 CL   UNL     1       4.336  -3.210  -5.717  0.00  0.00    -0.083 Cl
ATOM     13 BR   UNL     1       8.235  -0.400  -8.461  0.00  0.00    -0.050 Br
ENDBRANCH   4   6
BRANCH   1  14
ATOM     14  C   UNL     1       3.711  -0.707  -0.038  0.00  0.00    +0.045 C 
BRANCH  14  18
ATOM     15  C   UNL     1      -0.017   1.378   0.010  0.00  0.00    +0.000 A 
ATOM     16  C   UNL     1       1.171   2.086   0.002  0.00  0.00    +0.000 A 
ATOM     17  C   UNL     1       2.377   1.411  -0.013  0.00  0.00    +0.002 A 
ATOM     18  C   UNL     1       2.396   0.029  -0.020  0.00  0.00    -0.053 A 
ATOM     19  C   UNL     1       1.208  -0.679  -0.012  0.00  0.00    +0.002 A 
ATOM     20  C   UNL     1       0.002  -0.004   0.002  0.00  0.00    +0.000 A 
ENDBRANCH  14  18
BRANCH  14  21
ATOM     21  N   UNL     1       3.630  -1.877   0.848  0.00  0.00    +0.388 N 
ATOM     22  H   UNL     1       2.897  -2.491   0.527  0.00  0.00    -0.088 HD
ATOM     23  H   UNL     1       4.510  -2.369   0.836  0.00  0.00    -0.088 HD
ATOM     24  H   UNL     1       3.427  -1.573   1.788  0.00  0.00    -0.088 HD
ENDBRANCH  14  21
ENDBRANCH   1  14
TORSDOF 4
