REMARK  Name = ZINC04810878
REMARK  10 active torsions:
REMARK  status: ('A' for Active; 'I' for Inactive)
REMARK    1  A    between atoms: C_1  and  C_2
REMARK    2  A    between atoms: C_5  and  C_30
REMARK    3  A    between atoms: C_6  and  C_8
REMARK    4  A    between atoms: C_10  and  C_26
REMARK    5  A    between atoms: C_11  and  C_16
REMARK    6  A    between atoms: C_16  and  N_17
REMARK    7  A    between atoms: N_17  and  C_18
REMARK    8  A    between atoms: C_21  and  C_25
REMARK    9  A    between atoms: C_26  and  O_28
REMARK   10  A    between atoms: O_28  and  C_29
REMARK                            x       y       z     vdW  Elec       q    Type
REMARK                         _______ _______ _______ _____ _____    ______ ____
ROOT
ATOM      1  C   UNL     1       1.222   3.494  -0.003  0.00  0.00    +0.144 C 
ATOM      2  C   UNL     1       1.185   1.982   0.096  0.00  0.00    +0.080 C 
ATOM      3  C   UNL     1       2.362   1.322   0.081  0.00  0.00    +0.041 C 
ATOM      4  N   UNL     1       3.546   1.994  -0.030  0.00  0.00    -0.271 N 
ATOM      5  C   UNL     1       3.638   3.326  -0.120  0.00  0.00    +0.304 C 
ATOM      6  O   UNL     1       4.738   3.835  -0.211  0.00  0.00    -0.252 OA
ATOM      7  N   UNL     1       2.550   4.122  -0.114  0.00  0.00    -0.288 N 
ATOM      8  H   UNL     1       4.367   1.477  -0.040  0.00  0.00    +0.156 HD
ATOM      9  H   UNL     1       2.639   5.086  -0.180  0.00  0.00    +0.151 HD
ENDROOT
BRANCH   1  15
ATOM     10  C   UNL     1       0.951   4.525  -4.893  0.00  0.00    +0.044 C 
ATOM     11  C   UNL     1       0.284   4.395  -3.547  0.00  0.00    -0.050 A 
ATOM     12  C   UNL     1      -1.069   4.648  -3.419  0.00  0.00    +0.003 A 
ATOM     13  C   UNL     1      -1.680   4.528  -2.185  0.00  0.00    +0.004 A 
ATOM     14  C   UNL     1      -0.938   4.155  -1.079  0.00  0.00    -0.045 A 
ATOM     15  C   UNL     1       0.414   3.901  -1.208  0.00  0.00    -0.019 A 
ATOM     16  C   UNL     1       1.026   4.026  -2.442  0.00  0.00    +0.009 A 
ATOM     17  C   UNL     1      -1.605   4.024   0.266  0.00  0.00    +0.044 C 
ENDBRANCH   1  15
BRANCH   2  18
ATOM     18  C   UNL     1      -0.043   1.287   0.206  0.00  0.00    +0.339 C 
ATOM     19  O   UNL     1      -0.712   1.075  -0.788  0.00  0.00    -0.245 OA
BRANCH  18  20
ATOM     20  O   UNL     1      -0.473   0.865   1.413  0.00  0.00    -0.465 OA
ATOM     21  C   UNL     1      -1.724   0.175   1.451  0.00  0.00    +0.280 C 
ENDBRANCH  18  20
ENDBRANCH   2  18
BRANCH   3  22
ATOM     22  C   UNL     1       2.370  -0.182   0.184  0.00  0.00    +0.153 C 
BRANCH  22  23
ATOM     23  N   UNL     1       2.894  -0.753  -1.060  0.00  0.00    -0.338 N 
ATOM     24  H   UNL     1       3.168  -0.169  -1.784  0.00  0.00    +0.146 HD
BRANCH  23  25
ATOM     25  C   UNL     1       2.997  -2.139  -1.202  0.00  0.00    +0.029 A 
ATOM     26  C   UNL     1       2.609  -2.976  -0.163  0.00  0.00    +0.023 A 
ATOM     27  C   UNL     1       2.707  -4.346  -0.309  0.00  0.00    +0.006 A 
ATOM     28  C   UNL     1       3.201  -4.885  -1.483  0.00  0.00    -0.032 A 
ATOM     29  C   UNL     1       3.594  -4.054  -2.517  0.00  0.00    +0.046 A 
ATOM     30  C   UNL     1       3.493  -2.682  -2.380  0.00  0.00    +0.043 A 
ATOM     31 CL   UNL     1       4.213  -4.735  -3.989  0.00  0.00    -0.083 Cl
ATOM     32  C   UNL     1       3.312  -6.380  -1.636  0.00  0.00    +0.045 C 
ENDBRANCH  23  25
ENDBRANCH  22  23
ENDBRANCH   3  22
TORSDOF 6
