REMARK  Name = ZINC36882170
REMARK  1 active torsions:
REMARK  status: ('A' for Active; 'I' for Inactive)
REMARK    1  A    between atoms: C_4  and  C_9
REMARK                            x       y       z     vdW  Elec       q    Type
REMARK                         _______ _______ _______ _____ _____    ______ ____
ROOT
ATOM      1  C   UNL     1       3.647  -0.604  -0.036  0.00  0.00    +0.022 A 
ATOM      2  C   UNL     1       4.836   0.130  -0.038  0.00  0.00    +0.061 A 
ATOM      3  C   UNL     1       6.053  -0.526  -0.051  0.00  0.00    +0.164 A 
ATOM      4  C   UNL     1       6.093  -1.918  -0.062  0.00  0.00    +0.176 A 
ATOM      5  C   UNL     1       4.910  -2.648  -0.062  0.00  0.00    +0.064 A 
ATOM      6  C   UNL     1       3.693  -2.000  -0.044  0.00  0.00    +0.030 A 
ATOM      7 BR   UNL     1       4.969  -4.538  -0.081  0.00  0.00    -0.046 Br
ATOM      8  O   UNL     1       7.282  -2.579  -0.068  0.00  0.00    -0.484 OA
ATOM      9  C   UNL     1       8.437  -1.823  -0.445  0.00  0.00    +0.270 C 
ATOM     10  C   UNL     1       8.403  -0.486   0.308  0.00  0.00    +0.270 C 
ATOM     11  O   UNL     1       7.203   0.203  -0.057  0.00  0.00    -0.485 OA
ENDROOT
BRANCH   1  15
ATOM     12  C   UNL     1      -0.017   1.404   0.010  0.00  0.00    +0.090 A 
ATOM     13  C   UNL     1       1.168   2.080   0.002  0.00  0.00    +0.118 A 
ATOM     14  N   UNL     1       2.319   1.411  -0.013  0.00  0.00    -0.237 NA
ATOM     15  C   UNL     1       2.347   0.093  -0.020  0.00  0.00    +0.141 A 
ATOM     16  N   UNL     1       1.195  -0.636  -0.013  0.00  0.00    -0.307 N 
ATOM     17  H   UNL     1       1.233  -1.605  -0.019  0.00  0.00    +0.170 HD
ATOM     18  C   UNL     1       0.002  -0.004   0.002  0.00  0.00    +0.252 A 
ATOM     19  O   UNL     1      -1.039  -0.640   0.009  0.00  0.00    -0.268 OA
ENDBRANCH   1  15
TORSDOF 1
