REMARK  Name = ZINC27602993
REMARK  5 active torsions:
REMARK  status: ('A' for Active; 'I' for Inactive)
REMARK    1  A    between atoms: C_3  and  C_6
REMARK    2  A    between atoms: C_6  and  C_8
REMARK    3  A    between atoms: C_6  and  N_26
REMARK    4  A    between atoms: C_8  and  N_9
REMARK    5  A    between atoms: C_10  and  C_12
REMARK                            x       y       z     vdW  Elec       q    Type
REMARK                         _______ _______ _______ _____ _____    ______ ____
ROOT
ATOM      1  N   UNL     1      -2.767   1.447  -2.984  0.00  0.00    -0.313 N 
ATOM      2  C   UNL     1      -3.751   1.838  -3.817  0.00  0.00    +0.244 C 
ATOM      3  O   UNL     1      -3.489   2.155  -4.961  0.00  0.00    -0.270 OA
ATOM      4  H   UNL     1      -3.004   1.160  -1.949  0.00  0.00    +0.149 HD
ENDROOT
BRANCH   2   5
ATOM      5  C   UNL     1      -5.148   1.881  -3.340  0.00  0.00    +0.037 A 
ATOM      6  C   UNL     1      -5.450   1.510  -2.022  0.00  0.00    +0.015 A 
ATOM      7  C   UNL     1      -6.734   1.551  -1.566  0.00  0.00    +0.027 A 
ATOM      8  C   UNL     1      -7.767   1.953  -2.410  0.00  0.00    +0.047 A 
ATOM      9  C   UNL     1      -7.478   2.322  -3.740  0.00  0.00    +0.004 A 
ATOM     10  C   UNL     1      -6.164   2.285  -4.201  0.00  0.00    +0.023 A 
ATOM     11  C   UNL     1      -8.759   2.682  -4.341  0.00  0.00    -0.019 A 
ATOM     12  C   UNL     1      -9.704   2.522  -3.396  0.00  0.00    +0.020 A 
ATOM     13  N   UNL     1      -9.125   2.087  -2.237  0.00  0.00    -0.358 N 
ATOM     14  H   UNL     1      -9.581   1.851  -1.264  0.00  0.00    +0.166 HD
ATOM     15  C   UNL     1     -11.173   2.796  -3.625  0.00  0.00    +0.053 C 
ATOM     16  C   UNL     1     -11.318   3.647  -4.891  0.00  0.00    +0.006 C 
ATOM     17  C   UNL     1     -10.525   3.005  -6.033  0.00  0.00    +0.005 C 
ATOM     18  C   UNL     1      -9.024   3.146  -5.750  0.00  0.00    +0.037 C 
ENDBRANCH   2   5
BRANCH   1  19
ATOM     19  C   UNL     1      -1.381   1.404  -3.457  0.00  0.00    +0.094 C 
BRANCH  19  20
ATOM     20  C   UNL     1      -0.488   0.807  -2.367  0.00  0.00    -0.013 C 
BRANCH  20  21
ATOM     21  N   UNL     1       0.915   0.866  -2.797  0.00  0.00    +0.386 N 
ATOM     22  C   UNL     1       1.821   0.373  -1.728  0.00  0.00    -0.078 C 
ATOM     23  C   UNL     1       3.200   0.974  -2.074  0.00  0.00    -0.020 C 
ATOM     24  C   UNL     1       2.886   2.224  -2.926  0.00  0.00    -0.020 C 
ATOM     25  C   UNL     1       1.346   2.270  -3.021  0.00  0.00    -0.078 C 
ATOM     26  H   UNL     1       0.964   0.255  -3.711  0.00  0.00    -0.081 HD
ENDBRANCH  20  21
BRANCH  20  29
ATOM     27  C   UNL     1      -1.880  -2.511  -1.117  0.00  0.00    +0.008 A 
ATOM     28  C   UNL     1      -1.650  -1.148  -1.139  0.00  0.00    +0.009 A 
ATOM     29  C   UNL     1      -0.881  -0.627  -2.126  0.00  0.00    -0.022 A 
ATOM     30  S   UNL     1      -0.459  -2.082  -3.072  0.00  0.00    -0.103 S 
ATOM     31  C   UNL     1      -1.329  -3.286  -2.082  0.00  0.00    +0.045 A 
ENDBRANCH  20  29
ENDBRANCH  19  20
ENDBRANCH   1  19
TORSDOF 5
