REMARK  Name = ZINC35926365
REMARK  4 active torsions:
REMARK  status: ('A' for Active; 'I' for Inactive)
REMARK    1  A    between atoms: C_1  and  C_2
REMARK    2  A    between atoms: N_5  and  C_8
REMARK    3  A    between atoms: C_8  and  C_9
REMARK    4  A    between atoms: C_23  and  C_25
REMARK                            x       y       z     vdW  Elec       q    Type
REMARK                         _______ _______ _______ _____ _____    ______ ____
ROOT
ATOM      1  C   UNL     1      -0.136  -3.765   2.916  0.00  0.00    +0.034 A 
ATOM      2  C   UNL     1      -0.933  -4.264   3.905  0.00  0.00    +0.091 A 
ATOM      3  C   UNL     1      -0.343  -4.659   5.119  0.00  0.00    +0.253 A 
ATOM      4  O   UNL     1      -1.025  -5.109   6.025  0.00  0.00    -0.268 OA
ATOM      5  N   UNL     1       0.994  -4.530   5.263  0.00  0.00    -0.295 N 
ATOM      6  H   UNL     1       1.422  -4.797   6.091  0.00  0.00    +0.172 HD
ATOM      7  C   UNL     1       1.737  -4.026   4.241  0.00  0.00    +0.198 A 
ATOM      8  N   UNL     1       1.177  -3.663   3.104  0.00  0.00    -0.223 NA
ATOM      9  N   UNL     1       3.092  -3.899   4.394  0.00  0.00    -0.298 N 
ATOM     10  C   UNL     1       3.729  -4.189   5.687  0.00  0.00    +0.127 C 
ATOM     11  C   UNL     1       4.825  -5.239   5.468  0.00  0.00    +0.127 C 
ATOM     12  N   UNL     1       5.668  -4.810   4.343  0.00  0.00    -0.295 N 
ATOM     13  C   UNL     1       5.031  -4.520   3.051  0.00  0.00    +0.127 C 
ATOM     14  C   UNL     1       3.936  -3.475   3.268  0.00  0.00    +0.127 C 
ATOM     15  C   UNL     1       7.002  -4.684   4.494  0.00  0.00    +0.247 C 
ATOM     16  O   UNL     1       7.676  -4.236   3.588  0.00  0.00    -0.270 OA
ENDROOT
BRANCH  15  17
ATOM     17  C   UNL     1       7.643  -5.092   5.761  0.00  0.00    +0.037 A 
ATOM     18  C   UNL     1       7.237  -6.277   6.400  0.00  0.00    +0.013 A 
ATOM     19  C   UNL     1       7.811  -6.673   7.564  0.00  0.00    +0.009 A 
ATOM     20  C   UNL     1       8.826  -5.893   8.149  0.00  0.00    -0.018 A 
ATOM     21  C   UNL     1       9.436  -6.282   9.354  0.00  0.00    +0.008 A 
ATOM     22  C   UNL     1      10.415  -5.507   9.895  0.00  0.00    +0.001 A 
ATOM     23  C   UNL     1      10.826  -4.330   9.273  0.00  0.00    +0.001 A 
ATOM     24  C   UNL     1      10.260  -3.921   8.105  0.00  0.00    +0.008 A 
ATOM     25  C   UNL     1       9.245  -4.696   7.515  0.00  0.00    -0.017 A 
ATOM     26  C   UNL     1       8.644  -4.306   6.309  0.00  0.00    +0.021 A 
ENDBRANCH  15  17
BRANCH   1  27
ATOM     27  C   UNL     1      -0.744  -3.336   1.606  0.00  0.00    -0.022 C 
BRANCH  27  32
ATOM     28  C   UNL     1       0.455   1.983  -0.068  0.00  0.00    +0.007 C 
ATOM     29  C   UNL     1       0.330   0.459  -0.008  0.00  0.00    -0.018 C 
ATOM     30  C   UNL     1      -1.148   0.069   0.079  0.00  0.00    -0.016 C 
ATOM     31  C   UNL     1      -1.262  -1.451   0.218  0.00  0.00    -0.078 C 
ATOM     32  N   UNL     1      -0.566  -1.887   1.435  0.00  0.00    +0.383 N 
ATOM     33  C   UNL     1       0.865  -1.581   1.328  0.00  0.00    -0.078 C 
ATOM     34  C   UNL     1       1.061  -0.067   1.231  0.00  0.00    -0.016 C 
ATOM     35  H   UNL     1      -0.953  -1.407   2.233  0.00  0.00    -0.081 HD
ENDBRANCH  27  32
ENDBRANCH   1  27
TORSDOF 3
