REMARK  Name = ZINC01512622
REMARK  10 active torsions:
REMARK  status: ('A' for Active; 'I' for Inactive)
REMARK    1  A    between atoms: C_1  and  C_2
REMARK    2  A    between atoms: C_2  and  N_3
REMARK    3  A    between atoms: N_3  and  C_4
REMARK    4  A    between atoms: N_3  and  C_7
REMARK    5  A    between atoms: C_4  and  C_5
REMARK    6  A    between atoms: C_5  and  O_6
REMARK    7  A    between atoms: C_10  and  N_13
REMARK    8  A    between atoms: N_18  and  C_19
REMARK    9  A    between atoms: C_20  and  C_26
REMARK   10  A    between atoms: C_24  and  C_25
REMARK                            x       y       z     vdW  Elec       q    Type
REMARK                         _______ _______ _______ _____ _____    ______ ____
ROOT
ATOM      1  N   UNL     1       6.211  -1.343   0.994  0.00  0.00    -0.269 N 
ATOM      2  C   UNL     1       7.003  -1.704   2.020  0.00  0.00    +0.143 C 
ATOM      3  S   UNL     1       6.431  -1.971   3.612  0.00  0.00    -0.018 S 
ATOM      4  N   UNL     1       8.286  -1.832   1.661  0.00  0.00    -0.283 N 
ATOM      5  C   UNL     1       8.455  -1.558   0.324  0.00  0.00    +0.125 C 
ATOM      6  N   UNL     1       9.564  -1.585  -0.355  0.00  0.00    -0.234 NA
ATOM      7  C   UNL     1       7.072  -1.223  -0.189  0.00  0.00    +0.097 C 
ATOM      8  C   UNL     1       7.040   0.202  -0.731  0.00  0.00    +0.034 C 
ATOM      9  C   UNL     1       5.625   0.534  -1.213  0.00  0.00    +0.003 C 
ATOM     10  C   UNL     1       5.216  -0.455  -2.307  0.00  0.00    +0.000 C 
ATOM     11  C   UNL     1       5.233  -1.877  -1.744  0.00  0.00    +0.003 C 
ATOM     12  C   UNL     1       6.646  -2.218  -1.263  0.00  0.00    +0.034 C 
ATOM     13  H   UNL     1       9.002  -2.085   2.264  0.00  0.00    +0.155 HD
ENDROOT
BRANCH   6  14
ATOM     14  C   UNL     1      10.741  -1.917   0.267  0.00  0.00    +0.071 A 
ATOM     15  C   UNL     1      11.528  -0.924   0.852  0.00  0.00    -0.025 A 
ATOM     16  C   UNL     1      12.710  -1.265   1.476  0.00  0.00    +0.005 A 
ATOM     17  C   UNL     1      13.116  -2.587   1.523  0.00  0.00    +0.001 A 
ATOM     18  C   UNL     1      12.340  -3.576   0.945  0.00  0.00    +0.005 A 
ATOM     19  C   UNL     1      11.153  -3.249   0.323  0.00  0.00    -0.025 A 
ATOM     20  C   UNL     1      10.306  -4.328  -0.301  0.00  0.00    +0.046 C 
ATOM     21  C   UNL     1      11.089   0.516   0.801  0.00  0.00    +0.046 C 
ENDBRANCH   6  14
BRANCH   1  25
ATOM     22  C   UNL     1       2.092  -0.704   1.140  0.00  0.00    +0.030 A 
ATOM     23  C   UNL     1       2.780  -1.069   2.290  0.00  0.00    +0.025 A 
ATOM     24  C   UNL     1       4.143  -1.280   2.241  0.00  0.00    +0.025 A 
ATOM     25  C   UNL     1       4.827  -1.129   1.043  0.00  0.00    +0.037 A 
ATOM     26  C   UNL     1       4.140  -0.763  -0.107  0.00  0.00    +0.025 A 
ATOM     27  C   UNL     1       2.776  -0.557  -0.060  0.00  0.00    +0.025 A 
BRANCH  22  28
ATOM     28  N   UNL     1       0.711  -0.489   1.189  0.00  0.00    -0.328 N 
BRANCH  28  30
ATOM     29  C   UNL     1      -0.042   1.415  -0.149  0.00  0.00    +0.024 C 
ATOM     30  C   UNL     1      -0.015  -0.110  -0.026  0.00  0.00    +0.102 C 
ENDBRANCH  28  30
BRANCH  28  31
ATOM     31  C   UNL     1      -0.010  -0.644   2.455  0.00  0.00    +0.133 C 
BRANCH  31  32
ATOM     32  C   UNL     1      -0.488  -2.091   2.596  0.00  0.00    +0.174 C 
BRANCH  32  33
ATOM     33  O   UNL     1       0.644  -2.958   2.697  0.00  0.00    -0.393 OA
ATOM     34  H   UNL     1       0.415  -3.893   2.789  0.00  0.00    +0.209 HD
ENDBRANCH  32  33
ENDBRANCH  31  32
ENDBRANCH  28  31
ENDBRANCH  22  28
ENDBRANCH   1  25
TORSDOF 7
