REMARK  Name = ZINC06472040
REMARK  3 active torsions:
REMARK  status: ('A' for Active; 'I' for Inactive)
REMARK    1  A    between atoms: C_6  and  C_7
REMARK    2  A    between atoms: N_9  and  N_10
REMARK    3  A    between atoms: N_15  and  O_16
REMARK                            x       y       z     vdW  Elec       q    Type
REMARK                         _______ _______ _______ _____ _____    ______ ____
ROOT
ATOM      1  C   UNL     1      -1.265  -0.763   0.011  0.00  0.00    +0.263 C 
ATOM      2  O   UNL     1      -2.327  -0.172   0.024  0.00  0.00    -0.268 OA
ATOM      3  N   UNL     1      -1.243  -2.111   0.003  0.00  0.00    -0.202 N 
ATOM      4  H   UNL     1      -0.396  -2.582  -0.008  0.00  0.00    +0.178 HD
ENDROOT
BRANCH   3   5
ATOM      5  N   UNL     1      -2.445  -2.830   0.011  0.00  0.00    -0.180 NA
ATOM      6  C   UNL     1      -2.424  -4.150   0.004  0.00  0.00    +0.082 C 
ATOM      7  C   UNL     1      -1.143  -4.862  -0.007  0.00  0.00    +0.031 C 
ATOM      8  C   UNL     1      -1.121  -6.208  -0.015  0.00  0.00    +0.033 C 
ATOM      9  C   UNL     1      -2.379  -6.962  -0.012  0.00  0.00    +0.103 C 
ATOM     10  N   UNL     1      -2.358  -8.278  -0.019  0.00  0.00    -0.088 NA
ATOM     11  C   UNL     1      -3.660  -6.249  -0.001  0.00  0.00    +0.033 C 
ATOM     12  C   UNL     1      -3.681  -4.902   0.012  0.00  0.00    +0.031 C 
BRANCH  10  13
ATOM     13  O   UNL     1      -3.573  -9.005  -0.017  0.00  0.00    -0.409 OA
ATOM     14  H   UNL     1      -3.456  -9.965  -0.023  0.00  0.00    +0.328 HD
ENDBRANCH  10  13
ENDBRANCH   3   5
BRANCH   1  20
ATOM     15  C   UNL     1      -0.017   1.393   0.010  0.00  0.00    +0.014 A 
ATOM     16  C   UNL     1       1.169   2.095   0.002  0.00  0.00    +0.016 A 
ATOM     17  C   UNL     1       2.378   1.419  -0.013  0.00  0.00    +0.018 A 
ATOM     18  C   UNL     1       2.404   0.034  -0.021  0.00  0.00    +0.016 A 
ATOM     19  C   UNL     1       1.224  -0.680  -0.014  0.00  0.00    +0.014 A 
ATOM     20  C   UNL     1       0.002  -0.004   0.002  0.00  0.00    +0.038 A 
ATOM     21 BR   UNL     1       4.000   2.391  -0.024  0.00  0.00    -0.050 Br
ENDBRANCH   1  20
TORSDOF 3
