REMARK  Name = ZINC04763465
REMARK  4 active torsions:
REMARK  status: ('A' for Active; 'I' for Inactive)
REMARK    1  A    between atoms: C_3  and  C_20
REMARK    2  A    between atoms: C_6  and  C_7
REMARK    3  A    between atoms: C_7  and  N_8
REMARK    4  A    between atoms: N_25  and  C_28
REMARK                            x       y       z     vdW  Elec       q    Type
REMARK                         _______ _______ _______ _____ _____    ______ ____
ROOT
ATOM      1  C   UNL     1      -2.029  -5.107   1.779  0.00  0.00    +0.006 A 
ATOM      2  C   UNL     1      -2.313  -5.446   3.086  0.00  0.00    +0.013 A 
ATOM      3  C   UNL     1      -2.526  -4.442   4.032  0.00  0.00    +0.037 A 
ATOM      4  C   UNL     1      -2.445  -3.102   3.650  0.00  0.00    +0.013 A 
ATOM      5  C   UNL     1      -2.154  -2.778   2.341  0.00  0.00    +0.006 A 
ATOM      6  C   UNL     1      -1.944  -3.777   1.408  0.00  0.00    -0.027 A 
ENDROOT
BRANCH   3   7
ATOM      7  C   UNL     1      -2.837  -4.797   5.433  0.00  0.00    +0.247 C 
ATOM      8  O   UNL     1      -3.664  -4.158   6.053  0.00  0.00    -0.270 OA
ATOM      9  N   UNL     1      -2.201  -5.829   6.024  0.00  0.00    -0.295 N 
ATOM     10  C   UNL     1      -1.113  -6.539   5.335  0.00  0.00    +0.127 C 
ATOM     11  C   UNL     1       0.097  -6.600   6.282  0.00  0.00    +0.124 C 
ATOM     12  N   UNL     1      -0.318  -7.192   7.561  0.00  0.00    -0.327 N 
ATOM     13  C   UNL     1      -1.320  -6.355   8.235  0.00  0.00    +0.124 C 
ATOM     14  C   UNL     1      -2.583  -6.279   7.371  0.00  0.00    +0.127 C 
BRANCH  12  15
ATOM     15  C   UNL     1       0.784  -7.419   8.389  0.00  0.00    +0.030 A 
ATOM     16  C   UNL     1       0.822  -6.869   9.663  0.00  0.00    +0.024 A 
ATOM     17  C   UNL     1       1.910  -7.100  10.482  0.00  0.00    +0.022 A 
ATOM     18  C   UNL     1       2.967  -7.869  10.029  0.00  0.00    +0.041 A 
ATOM     19  C   UNL     1       2.935  -8.414   8.757  0.00  0.00    +0.022 A 
ATOM     20  C   UNL     1       1.847  -8.191   7.936  0.00  0.00    +0.024 A 
ATOM     21 CL   UNL     1       4.337  -8.152  11.057  0.00  0.00    -0.084 Cl
ENDBRANCH  12  15
ENDBRANCH   3   7
BRANCH   6  22
ATOM     22  C   UNL     1      -1.628  -3.415  -0.021  0.00  0.00    +0.165 C 
BRANCH  22  23
ATOM     23  N   UNL     1      -0.177  -3.294  -0.184  0.00  0.00    -0.256 N 
ATOM     24  C   UNL     1       0.428  -2.101   0.014  0.00  0.00    +0.271 A 
ATOM     25  O   UNL     1      -0.225  -1.122   0.329  0.00  0.00    -0.266 OA
ATOM     26  C   UNL     1       1.814  -2.008  -0.146  0.00  0.00    +0.100 A 
ATOM     27  C   UNL     1       2.584  -3.118  -0.506  0.00  0.00    +0.063 A 
ATOM     28  C   UNL     1       3.948  -2.868  -0.626  0.00  0.00    +0.034 A 
ATOM     29  C   UNL     1       4.430  -1.624  -0.399  0.00  0.00    +0.048 A 
ATOM     30  S   UNL     1       3.012  -0.710   0.001  0.00  0.00    -0.090 S 
ATOM     31  N   UNL     1       1.881  -4.319  -0.694  0.00  0.00    -0.307 N 
ATOM     32  H   UNL     1       2.364  -5.122  -0.945  0.00  0.00    +0.170 HD
ATOM     33  C   UNL     1       0.551  -4.369  -0.531  0.00  0.00    +0.330 A 
ATOM     34  O   UNL     1      -0.019  -5.429  -0.704  0.00  0.00    -0.246 OA
ENDBRANCH  22  23
ENDBRANCH   6  22
TORSDOF 4
