REMARK  Name = ZINC05249167
REMARK  4 active torsions:
REMARK  status: ('A' for Active; 'I' for Inactive)
REMARK    1  A    between atoms: C_3  and  C_10
REMARK    2  A    between atoms: C_5  and  N_7
REMARK    3  A    between atoms: C_10  and  C_12
REMARK    4  A    between atoms: C_13  and  C_14
REMARK                            x       y       z     vdW  Elec       q    Type
REMARK                         _______ _______ _______ _____ _____    ______ ____
ROOT
ATOM      1  C   UNL     1      -0.860   7.449  -0.846  0.00  0.00    +0.186 C 
ATOM      2  O   UNL     1      -0.183   8.062  -0.041  0.00  0.00    -0.287 OA
ENDROOT
BRANCH   1   5
ATOM      3  C   UNL     1      -3.264   8.173  -3.640  0.00  0.00    +0.003 A 
ATOM      4  C   UNL     1      -2.480   7.483  -2.739  0.00  0.00    +0.012 A 
ATOM      5  C   UNL     1      -1.702   8.183  -1.815  0.00  0.00    +0.024 A 
ATOM      6  C   UNL     1      -1.728   9.579  -1.806  0.00  0.00    +0.044 A 
ATOM      7  C   UNL     1      -2.512  10.257  -2.715  0.00  0.00    +0.127 A 
ATOM      8  C   UNL     1      -3.280   9.557  -3.629  0.00  0.00    +0.033 A 
BRANCH   7   9
ATOM      9  N   UNL     1      -2.537  11.737  -2.710  0.00  0.00    +0.056 N 
ATOM     10  O   UNL     1      -3.232  12.337  -3.510  0.00  0.00    -0.126 OA
ATOM     11  O   UNL     1      -1.861  12.355  -1.907  0.00  0.00    -0.126 OA
ENDBRANCH   7   9
ENDBRANCH   1   5
BRANCH   1  12
ATOM     12  C   UNL     1      -0.840   5.988  -0.854  0.00  0.00    +0.052 C 
ATOM     13  C   UNL     1      -0.070   5.317   0.032  0.00  0.00    +0.014 C 
BRANCH  13  14
ATOM     14  C   UNL     1      -0.050   3.848   0.023  0.00  0.00    +0.012 A 
ATOM     15  C   UNL     1       1.170   3.160   0.008  0.00  0.00    +0.049 A 
ATOM     16  C   UNL     1       1.179   1.780   0.000  0.00  0.00    +0.020 A 
ATOM     17  C   UNL     1      -0.013   1.076   0.008  0.00  0.00    +0.003 A 
ATOM     18  C   UNL     1      -1.223   1.747   0.017  0.00  0.00    +0.020 A 
ATOM     19  C   UNL     1      -1.251   3.127   0.031  0.00  0.00    +0.049 A 
ATOM     20 CL   UNL     1      -2.770   3.966   0.050  0.00  0.00    -0.083 Cl
ATOM     21 CL   UNL     1       2.666   4.040  -0.001  0.00  0.00    -0.083 Cl
ENDBRANCH  13  14
ENDBRANCH   1  12
TORSDOF 4
