REMARK  Name = ZINC57343859
REMARK  3 active torsions:
REMARK  status: ('A' for Active; 'I' for Inactive)
REMARK    1  A    between atoms: C_1  and  C_2
REMARK    2  A    between atoms: C_6  and  C_8
REMARK    3  A    between atoms: N_19  and  C_20
REMARK                            x       y       z     vdW  Elec       q    Type
REMARK                         _______ _______ _______ _____ _____    ______ ____
ROOT
ATOM      1  C   UNL     1       1.018  -2.828   2.534  0.00  0.00    +0.078 A 
ATOM      2  C   UNL     1       0.964  -4.194   2.494  0.00  0.00    +0.077 A 
ATOM      3  C   UNL     1       0.654  -4.895   3.685  0.00  0.00    +0.166 A 
ATOM      4  N   UNL     1       0.529  -6.168   3.965  0.00  0.00    -0.151 NA
ATOM      5  N   UNL     1       0.207  -6.281   5.325  0.00  0.00    -0.226 N 
ATOM      6  H   UNL     1       0.055  -7.106   5.811  0.00  0.00    +0.194 HD
ATOM      7  C   UNL     1       0.146  -5.032   5.835  0.00  0.00    +0.351 A 
ATOM      8  O   UNL     1      -0.109  -4.742   6.991  0.00  0.00    -0.245 OA
ATOM      9  N   UNL     1       0.418  -4.165   4.842  0.00  0.00    -0.215 N 
ATOM     10  C   UNL     1       0.492  -2.794   4.798  0.00  0.00    +0.210 A 
ATOM     11  N   UNL     1       0.786  -2.168   3.685  0.00  0.00    -0.215 NA
ATOM     12  N   UNL     1       0.259  -2.068   5.940  0.00  0.00    -0.282 N 
ATOM     13  H   UNL     1       0.110  -2.525   6.783  0.00  0.00    +0.155 HD
ENDROOT
BRANCH  12  14
ATOM     14  C   UNL     1       0.238  -0.669   5.888  0.00  0.00    +0.069 A 
ATOM     15  C   UNL     1       0.010  -0.021   4.682  0.00  0.00    +0.029 A 
ATOM     16  C   UNL     1      -0.011   1.359   4.633  0.00  0.00    +0.040 A 
ATOM     17  C   UNL     1       0.195   2.098   5.786  0.00  0.00    +0.126 A 
ATOM     18  C   UNL     1       0.423   1.456   6.991  0.00  0.00    +0.078 A 
ATOM     19  C   UNL     1       0.439   0.074   7.046  0.00  0.00    +0.147 A 
ATOM     20  F   UNL     1       0.655  -0.553   8.223  0.00  0.00    -0.203 F 
ATOM     21  F   UNL     1       0.174   3.448   5.734  0.00  0.00    -0.205 F 
ENDBRANCH  12  14
BRANCH   1  27
ATOM     22  C   UNL     1       1.436   1.527   0.131  0.00  0.00    +0.044 C 
ATOM     23  C   UNL     1       1.543   0.024   0.144  0.00  0.00    -0.050 A 
ATOM     24  C   UNL     1       1.944  -0.650  -0.996  0.00  0.00    +0.003 A 
ATOM     25  C   UNL     1       2.044  -2.029  -0.992  0.00  0.00    +0.001 A 
ATOM     26  C   UNL     1       1.745  -2.742   0.151  0.00  0.00    +0.010 A 
ATOM     27  C   UNL     1       1.341  -2.069   1.304  0.00  0.00    +0.001 A 
ATOM     28  C   UNL     1       1.247  -0.677   1.295  0.00  0.00    +0.013 A 
ENDBRANCH   1  27
TORSDOF 2
