REMARK  Name = ZINC06461897
REMARK  6 active torsions:
REMARK  status: ('A' for Active; 'I' for Inactive)
REMARK    1  A    between atoms: C_1  and  C_2
REMARK    2  A    between atoms: C_2  and  C_3
REMARK    3  A    between atoms: N_5  and  N_6
REMARK    4  A    between atoms: N_13  and  C_14
REMARK    5  A    between atoms: C_14  and  C_15
REMARK    6  A    between atoms: C_15  and  C_16
REMARK                            x       y       z     vdW  Elec       q    Type
REMARK                         _______ _______ _______ _____ _____    ______ ____
ROOT
ATOM      1  N   UNL     1       0.073  -4.077  -0.122  0.00  0.00    -0.234 N 
ATOM      2  C   UNL     1       0.052  -2.709  -0.072  0.00  0.00    +0.216 A 
ATOM      3  N   UNL     1       0.951  -2.026  -0.752  0.00  0.00    -0.214 NA
ATOM      4  C   UNL     1       0.964  -0.688  -0.724  0.00  0.00    +0.084 A 
ATOM      5  C   UNL     1       0.002  -0.004   0.002  0.00  0.00    +0.050 A 
ATOM      6  C   UNL     1      -0.949  -0.737   0.725  0.00  0.00    +0.260 A 
ATOM      7  O   UNL     1      -1.805  -0.168   1.383  0.00  0.00    -0.267 OA
ATOM      8  N   UNL     1      -0.897  -2.085   0.677  0.00  0.00    -0.279 N 
ATOM      9  C   UNL     1      -0.018   1.500   0.010  0.00  0.00    +0.007 C 
ATOM     10  C   UNL     1      -0.742   1.991   1.268  0.00  0.00    +0.012 C 
ATOM     11  C   UNL     1      -0.765   3.520   1.278  0.00  0.00    +0.001 C 
ATOM     12  C   UNL     1      -1.506   4.027   0.038  0.00  0.00    +0.000 C 
ATOM     13  C   UNL     1      -0.789   3.534  -1.221  0.00  0.00    +0.001 C 
ATOM     14  C   UNL     1      -0.765   2.004  -1.228  0.00  0.00    +0.012 C 
ATOM     15  C   UNL     1       1.407   2.051  -0.000  0.00  0.00    +0.047 C 
ATOM     16  C   UNL     1       2.211   1.419  -1.104  0.00  0.00    -0.037 A 
ATOM     17  C   UNL     1       2.010   0.078  -1.436  0.00  0.00    +0.004 A 
ATOM     18  C   UNL     1       2.807  -0.526  -2.403  0.00  0.00    +0.010 A 
ATOM     19  C   UNL     1       3.768   0.216  -3.061  0.00  0.00    +0.001 A 
ATOM     20  C   UNL     1       3.942   1.553  -2.753  0.00  0.00    +0.000 A 
ATOM     21  C   UNL     1       3.168   2.153  -1.775  0.00  0.00    +0.004 A 
ATOM     22  H   UNL     1      -0.584  -4.591   0.374  0.00  0.00    +0.173 HD
ENDROOT
BRANCH   1  25
ATOM     23  C   UNL     1       1.064  -6.082  -0.938  0.00  0.00    +0.229 C 
ATOM     24  O   UNL     1       0.243  -6.724  -0.318  0.00  0.00    -0.274 OA
ATOM     25  N   UNL     1       1.044  -4.735  -0.889  0.00  0.00    -0.234 N 
ATOM     26  H   UNL     1       1.700  -4.222  -1.385  0.00  0.00    +0.173 HD
BRANCH  23  28
ATOM     27  C   UNL     1       1.910  -8.303  -1.647  0.00  0.00    +0.013 C 
ATOM     28  C   UNL     1       2.108  -6.790  -1.763  0.00  0.00    +0.094 C 
ENDBRANCH  23  28
ENDBRANCH   1  25
BRANCH   8  29
ATOM     29  C   UNL     1      -1.866  -2.880   1.436  0.00  0.00    +0.133 C 
BRANCH  29  30
ATOM     30  C   UNL     1      -3.096  -3.151   0.567  0.00  0.00    +0.057 C 
BRANCH  30  31
ATOM     31  C   UNL     1      -4.093  -3.968   1.347  0.00  0.00    -0.046 A 
ATOM     32  C   UNL     1      -4.046  -5.349   1.296  0.00  0.00    +0.004 A 
ATOM     33  C   UNL     1      -4.957  -6.099   2.015  0.00  0.00    +0.000 A 
ATOM     34  C   UNL     1      -5.922  -5.468   2.778  0.00  0.00    +0.000 A 
ATOM     35  C   UNL     1      -5.972  -4.088   2.825  0.00  0.00    +0.000 A 
ATOM     36  C   UNL     1      -5.058  -3.338   2.110  0.00  0.00    +0.004 A 
ENDBRANCH  30  31
ENDBRANCH  29  30
ENDBRANCH   8  29
TORSDOF 5
