REMARK  Name = ZINC39969639
REMARK  9 active torsions:
REMARK  status: ('A' for Active; 'I' for Inactive)
REMARK    1  A    between atoms: C_1  and  C_2
REMARK    2  A    between atoms: C_2  and  N_3
REMARK    3  A    between atoms: C_4  and  C_24
REMARK    4  A    between atoms: C_8  and  S_10
REMARK    5  A    between atoms: S_10  and  C_11
REMARK    6  A    between atoms: C_11  and  C_12
REMARK    7  A    between atoms: C_24  and  C_26
REMARK    8  A    between atoms: C_24  and  N_27
REMARK    9  A    between atoms: C_28  and  C_30
REMARK                            x       y       z     vdW  Elec       q    Type
REMARK                         _______ _______ _______ _____ _____    ______ ____
ROOT
ATOM      1  N   UNL     1       0.690  -0.478  -1.207  0.00  0.00    -0.260 NA
ATOM      2  C   UNL     1       0.896  -1.940  -1.159  0.00  0.00    +0.160 C 
ATOM      3  N   UNL     1       0.203  -2.502  -2.341  0.00  0.00    -0.236 NA
ATOM      4  N   UNL     1       0.135  -1.383  -3.294  0.00  0.00    -0.229 NA
ATOM      5  C   UNL     1      -0.120  -0.210  -2.417  0.00  0.00    +0.200 C 
ATOM      6  H   UNL     1      -0.721  -2.826  -2.097  0.00  0.00    +0.142 HD
ATOM      7  H   UNL     1      -0.618  -1.514  -3.952  0.00  0.00    +0.143 HD
ENDROOT
BRANCH   1   9
ATOM      8  C   UNL     1      -0.019   1.526   0.010  0.00  0.00    +0.020 C 
ATOM      9  C   UNL     1       0.002  -0.004   0.002  0.00  0.00    +0.085 C 
ENDBRANCH   1   9
BRANCH   2  10
ATOM     10  C   UNL     1       2.391  -2.261  -1.226  0.00  0.00    +0.103 C 
ATOM     11  C   UNL     1       3.105  -1.614  -0.037  0.00  0.00    +0.031 C 
BRANCH  10  12
ATOM     12  N   UNL     1       2.581  -3.713  -1.178  0.00  0.00    -0.306 N 
ATOM     13  C   UNL     1       3.690  -4.265  -1.709  0.00  0.00    +0.244 C 
ATOM     14  O   UNL     1       4.532  -3.558  -2.228  0.00  0.00    -0.270 OA
ATOM     15  H   UNL     1       1.909  -4.277  -0.764  0.00  0.00    +0.149 HD
BRANCH  13  16
ATOM     16  C   UNL     1       3.882  -5.729  -1.661  0.00  0.00    +0.037 A 
ATOM     17  C   UNL     1       2.914  -6.544  -1.071  0.00  0.00    +0.014 A 
ATOM     18  C   UNL     1       3.099  -7.910  -1.030  0.00  0.00    +0.021 A 
ATOM     19  C   UNL     1       4.242  -8.474  -1.572  0.00  0.00    +0.041 A 
ATOM     20  C   UNL     1       5.206  -7.671  -2.158  0.00  0.00    +0.021 A 
ATOM     21  C   UNL     1       5.030  -6.304  -2.210  0.00  0.00    +0.014 A 
ATOM     22 CL   UNL     1       4.468 -10.194  -1.515  0.00  0.00    -0.084 Cl
ENDBRANCH  13  16
ENDBRANCH  10  12
ENDBRANCH   2  10
BRANCH   5  23
ATOM     23  S   UNL     1       0.430   1.318  -3.225  0.00  0.00    -0.117 S 
BRANCH  23  24
ATOM     24  C   UNL     1       2.167   0.995  -3.638  0.00  0.00    +0.146 C 
BRANCH  24  25
ATOM     25  C   UNL     1       2.753   2.202  -4.323  0.00  0.00    +0.120 A 
ATOM     26  N   UNL     1       4.052   2.151  -4.718  0.00  0.00    -0.310 N 
ATOM     27  H   UNL     1       4.574   1.350  -4.553  0.00  0.00    +0.170 HD
ATOM     28  C   UNL     1       4.626   3.209  -5.338  0.00  0.00    +0.259 A 
ATOM     29  O   UNL     1       5.788   3.177  -5.697  0.00  0.00    -0.267 OA
ATOM     30  C   UNL     1       3.789   4.397  -5.561  0.00  0.00    +0.065 A 
ATOM     31  C   UNL     1       4.283   5.539  -6.190  0.00  0.00    +0.015 A 
ATOM     32  C   UNL     1       3.456   6.625  -6.373  0.00  0.00    +0.001 A 
ATOM     33  C   UNL     1       2.138   6.590  -5.937  0.00  0.00    +0.002 A 
ATOM     34  C   UNL     1       1.631   5.472  -5.313  0.00  0.00    +0.028 A 
ATOM     35  C   UNL     1       2.450   4.359  -5.116  0.00  0.00    +0.078 A 
ATOM     36  N   UNL     1       1.990   3.235  -4.512  0.00  0.00    -0.233 NA
ENDBRANCH  24  25
ENDBRANCH  23  24
ENDBRANCH   5  23
TORSDOF 7
