REMARK  Name = ZINC01461944
REMARK  6 active torsions:
REMARK  status: ('A' for Active; 'I' for Inactive)
REMARK    1  A    between atoms: C_1  and  O_2
REMARK    2  A    between atoms: O_2  and  C_3
REMARK    3  A    between atoms: C_8  and  N_9
REMARK    4  A    between atoms: N_9  and  S_10
REMARK    5  A    between atoms: S_10  and  C_13
REMARK    6  A    between atoms: C_26  and  C_29
REMARK                            x       y       z     vdW  Elec       q    Type
REMARK                         _______ _______ _______ _____ _____    ______ ____
ROOT
ATOM      1  C   UNL     1       1.290   2.187  -0.126  0.00  0.00    +0.109 A 
ATOM      2  C   UNL     1       0.132   1.433  -0.188  0.00  0.00    +0.030 A 
ATOM      3  C   UNL     1       0.204   0.058  -0.276  0.00  0.00    +0.025 A 
ATOM      4  C   UNL     1       1.439  -0.579  -0.298  0.00  0.00    +0.031 A 
ATOM      5  C   UNL     1       2.606   0.189  -0.226  0.00  0.00    -0.018 A 
ATOM      6  C   UNL     1       2.523   1.562  -0.147  0.00  0.00    +0.034 A 
ATOM      7  C   UNL     1       3.897  -0.531  -0.226  0.00  0.00    +0.049 C 
ATOM      8  C   UNL     1       5.152   0.101  -0.708  0.00  0.00    -0.023 C 
ATOM      9  C   UNL     1       5.932  -0.843  -1.221  0.00  0.00    -0.030 C 
ATOM     10  C   UNL     1       5.228  -2.199  -1.149  0.00  0.00    +0.033 C 
ATOM     11  C   UNL     1       3.751  -1.781  -1.143  0.00  0.00    +0.029 C 
ATOM     12  C   UNL     1       2.777  -2.698  -0.425  0.00  0.00    +0.106 C 
ATOM     13  N   UNL     1       1.487  -1.974  -0.408  0.00  0.00    -0.336 N 
ATOM     14  H   UNL     1       0.659  -2.475  -0.475  0.00  0.00    +0.147 HD
ENDROOT
BRANCH  12  15
ATOM     15  C   UNL     1       3.245  -2.959   0.984  0.00  0.00    -0.009 A 
ATOM     16  C   UNL     1       2.744  -2.207   2.030  0.00  0.00    +0.007 A 
ATOM     17  C   UNL     1       3.173  -2.446   3.321  0.00  0.00    +0.000 A 
ATOM     18  C   UNL     1       4.104  -3.438   3.568  0.00  0.00    +0.001 A 
ATOM     19  C   UNL     1       4.606  -4.191   2.524  0.00  0.00    +0.020 A 
ATOM     20  C   UNL     1       4.173  -3.955   1.231  0.00  0.00    +0.046 A 
ATOM     21 CL   UNL     1       4.797  -4.905  -0.081  0.00  0.00    -0.083 Cl
ENDBRANCH  12  15
BRANCH   1  22
ATOM     22  S   UNL     1       1.194   3.943  -0.021  0.00  0.00    +0.072 S 
ATOM     23  O   UNL     1       2.423   4.448  -0.525  0.00  0.00    -0.150 OA
ATOM     24  O   UNL     1      -0.064   4.315  -0.568  0.00  0.00    -0.150 OA
BRANCH  22  25
ATOM     25  N   UNL     1       1.145   4.336   1.587  0.00  0.00    -0.213 N 
ATOM     26  H   UNL     1       0.381   4.813   1.947  0.00  0.00    +0.174 HD
BRANCH  25  32
ATOM     27  C   UNL     1       1.959   3.610   3.747  0.00  0.00    +0.142 A 
ATOM     28  C   UNL     1       3.013   3.253   4.572  0.00  0.00    +0.047 A 
ATOM     29  C   UNL     1       4.308   3.275   4.088  0.00  0.00    +0.004 A 
ATOM     30  C   UNL     1       4.555   3.647   2.780  0.00  0.00    +0.002 A 
ATOM     31  C   UNL     1       3.509   3.999   1.949  0.00  0.00    +0.028 A 
ATOM     32  C   UNL     1       2.207   3.980   2.427  0.00  0.00    +0.090 A 
BRANCH  27  34
ATOM     33  C   UNL     1       0.506   3.204   5.586  0.00  0.00    +0.277 C 
ATOM     34  O   UNL     1       0.685   3.594   4.223  0.00  0.00    -0.493 OA
ENDBRANCH  27  34
ENDBRANCH  25  32
ENDBRANCH  22  25
ENDBRANCH   1  22
TORSDOF 5
