REMARK  Name = ZINC37360561
REMARK  4 active torsions:
REMARK  status: ('A' for Active; 'I' for Inactive)
REMARK    1  A    between atoms: C_3  and  C_8
REMARK    2  A    between atoms: C_10  and  N_36
REMARK    3  A    between atoms: N_11  and  C_29
REMARK    4  A    between atoms: C_20  and  N_23
REMARK                            x       y       z     vdW  Elec       q    Type
REMARK                         _______ _______ _______ _____ _____    ______ ____
ROOT
ATOM      1  C   UNL     1       3.585   2.301   0.185  0.00  0.00    +0.089 A 
ATOM      2  C   UNL     1       4.732   1.790   0.833  0.00  0.00    +0.086 A 
ATOM      3  C   UNL     1       5.028   0.668   1.597  0.00  0.00    +0.131 A 
ATOM      4  N   UNL     1       6.329   0.741   1.938  0.00  0.00    -0.216 N 
ATOM      5  N   UNL     1       6.897   1.904   1.405  0.00  0.00    -0.144 NA
ATOM      6  C   UNL     1       5.981   2.568   0.733  0.00  0.00    +0.189 A 
ATOM      7  N   UNL     1       5.954   3.717   0.031  0.00  0.00    -0.193 NA
ATOM      8  C   UNL     1       4.838   4.119  -0.542  0.00  0.00    +0.220 A 
ATOM      9  N   UNL     1       3.694   3.445  -0.478  0.00  0.00    -0.214 NA
ATOM     10  N   UNL     1       4.859   5.306  -1.252  0.00  0.00    -0.300 N 
ATOM     11  C   UNL     1       3.643   5.807  -1.907  0.00  0.00    +0.106 C 
ATOM     12  C   UNL     1       3.390   7.245  -1.443  0.00  0.00    +0.004 C 
ATOM     13  C   UNL     1       4.639   8.089  -1.706  0.00  0.00    -0.066 C 
ATOM     14  C   UNL     1       5.816   7.524  -0.907  0.00  0.00    +0.004 C 
ATOM     15  C   UNL     1       6.095   6.092  -1.360  0.00  0.00    +0.106 C 
ENDROOT
BRANCH   1  18
ATOM     16  C   UNL     1       0.625   0.397   1.502  0.00  0.00    +0.003 A 
ATOM     17  C   UNL     1       1.827   1.072   1.455  0.00  0.00    +0.010 A 
ATOM     18  C   UNL     1       2.296   1.575   0.241  0.00  0.00    +0.004 A 
ATOM     19  C   UNL     1       1.544   1.392  -0.920  0.00  0.00    +0.048 A 
ATOM     20  C   UNL     1       0.342   0.714  -0.861  0.00  0.00    +0.124 A 
ATOM     21  C   UNL     1      -0.117   0.217   0.349  0.00  0.00    +0.038 A 
ATOM     22  F   UNL     1      -0.388   0.536  -1.984  0.00  0.00    -0.205 F 
ENDBRANCH   1  18
BRANCH  13  23
ATOM     23  N   UNL     1       4.389   9.476  -1.292  0.00  0.00    +0.382 N 
ATOM     24  C   UNL     1       3.256  10.015  -2.054  0.00  0.00    -0.078 C 
ATOM     25  C   UNL     1       2.938  11.431  -1.570  0.00  0.00    -0.019 C 
ATOM     26  C   UNL     1       4.166  12.323  -1.779  0.00  0.00    -0.004 C 
ATOM     27  C   UNL     1       5.360  11.712  -1.041  0.00  0.00    -0.019 C 
ATOM     28  C   UNL     1       5.588  10.284  -1.545  0.00  0.00    -0.078 C 
ATOM     29  H   UNL     1       4.170   9.498  -0.308  0.00  0.00    -0.081 HD
ENDBRANCH  13  23
BRANCH   4  30
ATOM     30  C   UNL     1       7.012  -0.205   2.711  0.00  0.00    +0.070 A 
ATOM     31  C   UNL     1       6.356  -0.867   3.741  0.00  0.00    +0.028 A 
ATOM     32  C   UNL     1       7.030  -1.800   4.503  0.00  0.00    +0.005 A 
ATOM     33  C   UNL     1       8.360  -2.078   4.242  0.00  0.00    +0.038 A 
ATOM     34  C   UNL     1       9.018  -1.420   3.216  0.00  0.00    +0.125 A 
ATOM     35  C   UNL     1       8.345  -0.489   2.446  0.00  0.00    +0.066 A 
ATOM     36  F   UNL     1      10.317  -1.693   2.964  0.00  0.00    -0.205 F 
ENDBRANCH   4  30
BRANCH   3  37
ATOM     37  N   UNL     1       4.147  -0.339   1.944  0.00  0.00    -0.342 N 
ATOM     38  H   UNL     1       3.274  -0.386   1.524  0.00  0.00    +0.144 HD
ATOM     39  H   UNL     1       4.402  -0.998   2.608  0.00  0.00    +0.144 HD
ENDBRANCH   3  37
TORSDOF 4
