REMARK  Name = ZINC14998624
REMARK  10 active torsions:
REMARK  status: ('A' for Active; 'I' for Inactive)
REMARK    1  A    between atoms: C_1  and  C_2
REMARK    2  A    between atoms: C_2  and  C_3
REMARK    3  A    between atoms: C_2  and  C_4
REMARK    4  A    between atoms: C_4  and  C_5
REMARK    5  A    between atoms: C_5  and  C_19
REMARK    6  A    between atoms: N_8  and  C_12
REMARK    7  A    between atoms: C_12  and  C_13
REMARK    8  A    between atoms: C_13  and  C_14
REMARK    9  A    between atoms: C_24  and  C_25
REMARK   10  A    between atoms: C_24  and  N_69
REMARK                            x       y       z     vdW  Elec       q    Type
REMARK                         _______ _______ _______ _____ _____    ______ ____
ROOT
ATOM      1  C   UNL     1       5.721  -0.947  -5.319  0.00  0.00    +0.115 C 
ATOM      2  C   UNL     1       4.766  -2.120  -5.228  0.00  0.00    +0.247 C 
ATOM      3  O   UNL     1       3.554  -2.077  -5.201  0.00  0.00    -0.273 OA
ATOM      4  N   UNL     1       5.543  -3.220  -5.182  0.00  0.00    -0.224 N 
ATOM      5  C   UNL     1       6.843  -2.908  -5.232  0.00  0.00    +0.309 C 
ATOM      6  O   UNL     1       7.736  -3.732  -5.206  0.00  0.00    -0.252 OA
ATOM      7  N   UNL     1       7.050  -1.582  -5.314  0.00  0.00    -0.285 N 
ATOM      8  H   UNL     1       7.908  -1.131  -5.361  0.00  0.00    +0.151 HD
ENDROOT
BRANCH   1   9
ATOM      9  C   UNL     1       5.560  -0.026  -4.107  0.00  0.00    +0.018 C 
ATOM     10  C   UNL     1       5.718  -0.841  -2.821  0.00  0.00    -0.013 C 
ATOM     11  C   UNL     1       5.496   0.073  -1.613  0.00  0.00    -0.078 C 
ATOM     12  C   UNL     1       3.991   1.484  -2.886  0.00  0.00    -0.078 C 
ATOM     13  C   UNL     1       4.168   0.612  -4.131  0.00  0.00    -0.013 C 
ATOM     14  N   UNL     1       4.130   0.636  -1.683  0.00  0.00    +0.382 N 
ATOM     15  H   UNL     1       3.455  -0.135  -1.739  0.00  0.00    -0.081 HD
BRANCH  14  16
ATOM     16  C   UNL     1       3.850   1.431  -0.469  0.00  0.00    -0.042 C 
BRANCH  16  17
ATOM     17  C   UNL     1       2.578   2.212  -0.674  0.00  0.00    -0.053 A 
ATOM     18  C   UNL     1       2.612   3.539  -0.996  0.00  0.00    +0.022 A 
ATOM     19  C   UNL     1       1.423   4.241  -1.182  0.00  0.00    +0.111 A 
ATOM     20  N   UNL     1       0.254   3.662  -1.054  0.00  0.00    -0.255 NA
ATOM     21  C   UNL     1       0.150   2.367  -0.740  0.00  0.00    +0.071 A 
ATOM     22  C   UNL     1       1.320   1.594  -0.538  0.00  0.00    +0.002 A 
ATOM     23  C   UNL     1       1.206   0.234  -0.209  0.00  0.00    +0.010 A 
ATOM     24  C   UNL     1      -0.029  -0.327  -0.087  0.00  0.00    +0.001 A 
ATOM     25  C   UNL     1      -1.181   0.431  -0.285  0.00  0.00    +0.002 A 
ATOM     26  C   UNL     1      -1.107   1.752  -0.605  0.00  0.00    +0.028 A 
ENDBRANCH  16  17
ENDBRANCH  14  16
ENDBRANCH   1   9
BRANCH   1  27
ATOM     27  C   UNL     1       5.497  -0.169  -6.617  0.00  0.00    +0.038 C 
BRANCH  27  29
ATOM     28  C   UNL     1       5.165  -0.401  -9.083  0.00  0.00    +0.007 C 
ATOM     29  C   UNL     1       5.606  -1.124  -7.808  0.00  0.00    -0.015 C 
ATOM     30  C   UNL     1       7.057  -1.585  -7.960  0.00  0.00    +0.007 C 
ENDBRANCH  27  29
ENDBRANCH   1  27
BRANCH   4  31
ATOM     31  C   UNL     1       5.027  -4.588  -5.091  0.00  0.00    +0.123 C 
BRANCH  31  32
ATOM     32  C   UNL     1       4.814  -5.148  -6.499  0.00  0.00    +0.062 C 
BRANCH  32  33
ATOM     33  C   UNL     1       4.284  -6.555  -6.406  0.00  0.00    -0.009 A 
ATOM     34  C   UNL     1       2.998  -6.981  -6.351  0.00  0.00    +0.011 A 
ATOM     35  C   UNL     1       2.744  -8.337  -6.268  0.00  0.00    +0.008 A 
ATOM     36  C   UNL     1       3.789  -9.201  -6.243  0.00  0.00    +0.045 A 
ATOM     37  S   UNL     1       5.186  -8.095  -6.346  0.00  0.00    -0.102 S 
ENDBRANCH  32  33
ENDBRANCH  31  32
ENDBRANCH   4  31
TORSDOF 8
