REMARK  Name = ZINC34782033
REMARK  9 active torsions:
REMARK  status: ('A' for Active; 'I' for Inactive)
REMARK    1  A    between atoms: C_1  and  C_2
REMARK    2  A    between atoms: C_2  and  C_3
REMARK    3  A    between atoms: C_6  and  N_9
REMARK    4  A    between atoms: C_14  and  C_36
REMARK    5  A    between atoms: C_17  and  C_22
REMARK    6  A    between atoms: C_17  and  C_33
REMARK    7  A    between atoms: C_22  and  C_23
REMARK    8  A    between atoms: C_38  and  C_43
REMARK    9  A    between atoms: C_41  and  C_42
REMARK                            x       y       z     vdW  Elec       q    Type
REMARK                         _______ _______ _______ _____ _____    ______ ____
ROOT
ATOM      1  N   UNL     1       2.827  -2.059  -4.563  0.00  0.00    -0.210 N 
ATOM      2  C   UNL     1       2.125  -2.255  -5.727  0.00  0.00    +0.229 C 
ATOM      3  O   UNL     1       0.975  -1.950  -5.957  0.00  0.00    -0.275 OA
ATOM      4  C   UNL     1       3.058  -2.905  -6.613  0.00  0.00    +0.077 C 
ATOM      5  C   UNL     1       3.282  -3.148  -8.049  0.00  0.00    -0.026 C 
ATOM      6  N   UNL     1       4.674  -3.718  -8.059  0.00  0.00    +0.396 N 
ATOM      7  C   UNL     1       5.362  -3.264  -6.813  0.00  0.00    +0.052 C 
ATOM      8  C   UNL     1       4.420  -2.216  -6.201  0.00  0.00    +0.086 C 
ATOM      9  C   UNL     1       4.171  -2.247  -4.719  0.00  0.00    +0.229 C 
ATOM     10  O   UNL     1       4.994  -2.408  -3.843  0.00  0.00    -0.275 OA
ATOM     11  H   UNL     1       4.630  -4.726  -8.076  0.00  0.00    -0.083 HD
ATOM     12  H   UNL     1       5.175  -3.383  -8.868  0.00  0.00    -0.083 HD
ENDROOT
BRANCH   5  13
ATOM     13  C   UNL     1       2.288  -4.144  -8.588  0.00  0.00    -0.057 A 
ATOM     14  C   UNL     1       1.544  -4.918  -7.716  0.00  0.00    +0.005 A 
ATOM     15  C   UNL     1       0.632  -5.832  -8.210  0.00  0.00    -0.050 A 
ATOM     16  C   UNL     1       0.465  -5.972  -9.575  0.00  0.00    +0.003 A 
ATOM     17  C   UNL     1       1.208  -5.198 -10.446  0.00  0.00    +0.004 A 
ATOM     18  C   UNL     1       2.117  -4.281  -9.952  0.00  0.00    -0.049 A 
ATOM     19  C   UNL     1       2.925  -3.434 -10.902  0.00  0.00    +0.044 C 
ATOM     20  C   UNL     1      -0.179  -6.675  -7.261  0.00  0.00    +0.044 C 
ENDBRANCH   5  13
BRANCH   1  24
ATOM     21  C   UNL     1       1.048  -0.987  -0.948  0.00  0.00    -0.048 A 
ATOM     22  C   UNL     1       0.267  -1.171  -2.074  0.00  0.00    +0.005 A 
ATOM     23  C   UNL     1       0.853  -1.526  -3.273  0.00  0.00    +0.024 A 
ATOM     24  C   UNL     1       2.229  -1.698  -3.347  0.00  0.00    +0.044 A 
ATOM     25  C   UNL     1       3.011  -1.512  -2.215  0.00  0.00    +0.024 A 
ATOM     26  C   UNL     1       2.419  -1.153  -1.020  0.00  0.00    +0.005 A 
BRANCH  21  28
ATOM     27  C   UNL     1       0.339   0.925   0.462  0.00  0.00    +0.009 C 
ATOM     28  C   UNL     1       0.406  -0.600   0.359  0.00  0.00    +0.032 C 
ENDBRANCH  21  28
ENDBRANCH   1  24
BRANCH   7  29
ATOM     29  C   UNL     1       6.684  -2.624  -7.152  0.00  0.00    +0.347 C 
ATOM     30  O   UNL     1       7.054  -2.566  -8.312  0.00  0.00    -0.248 OA
ATOM     31  O   UNL     1       7.384  -2.165  -6.265  0.00  0.00    -0.248 OA
ENDBRANCH   7  29
BRANCH   7  32
ATOM     32  C   UNL     1       5.572  -4.444  -5.863  0.00  0.00    +0.037 C 
BRANCH  32  33
ATOM     33  C   UNL     1       6.448  -5.474  -6.527  0.00  0.00    -0.023 A 
ATOM     34  C   UNL     1       6.035  -6.552  -7.213  0.00  0.00    +0.087 A 
ATOM     35  N   UNL     1       7.115  -7.256  -7.670  0.00  0.00    -0.360 N 
ATOM     36  H   UNL     1       7.068  -8.073  -8.192  0.00  0.00    +0.165 HD
ATOM     37  C   UNL     1       8.280  -6.633  -7.281  0.00  0.00    +0.047 A 
ATOM     38  C   UNL     1       7.913  -5.486  -6.553  0.00  0.00    +0.003 A 
ATOM     39  C   UNL     1       8.899  -4.647  -6.032  0.00  0.00    +0.010 A 
ATOM     40  C   UNL     1      10.218  -4.942  -6.235  0.00  0.00    +0.001 A 
ATOM     41  C   UNL     1      10.585  -6.070  -6.956  0.00  0.00    +0.002 A 
ATOM     42  C   UNL     1       9.628  -6.917  -7.471  0.00  0.00    +0.026 A 
ENDBRANCH  32  33
ENDBRANCH   7  32
TORSDOF 6
