REMARK  Name = ZINC21535725
REMARK  11 active torsions:
REMARK  status: ('A' for Active; 'I' for Inactive)
REMARK    1  A    between atoms: C_1  and  C_2
REMARK    2  A    between atoms: C_2  and  C_3
REMARK    3  A    between atoms: C_2  and  C_4
REMARK    4  A    between atoms: C_4  and  C_6
REMARK    5  A    between atoms: C_4  and  N_18
REMARK    6  A    between atoms: N_8  and  C_9
REMARK    7  A    between atoms: C_9  and  C_10
REMARK    8  A    between atoms: C_13  and  O_16
REMARK    9  A    between atoms: O_16  and  C_17
REMARK   10  A    between atoms: N_18  and  S_19
REMARK   11  A    between atoms: S_19  and  C_22
REMARK                            x       y       z     vdW  Elec       q    Type
REMARK                         _______ _______ _______ _____ _____    ______ ____
ROOT
ATOM      1  N   UNL     1       4.802  -1.029  -1.486  0.00  0.00    -0.178 NA
ATOM      2  H   UNL     1       4.730  -2.116  -1.638  0.00  0.00    +0.149 HD
ENDROOT
BRANCH   1   3
ATOM      3  S   UNL     1       4.711  -0.420   0.052  0.00  0.00    +0.059 S 
ATOM      4  O   UNL     1       5.650   0.643   0.124  0.00  0.00    -0.153 OA
ATOM      5  O   UNL     1       4.752  -1.534   0.933  0.00  0.00    -0.153 OA
BRANCH   3   6
ATOM      6  C   UNL     1       3.115   0.304   0.230  0.00  0.00    +0.106 A 
ATOM      7  C   UNL     1       2.914   1.636  -0.086  0.00  0.00    +0.030 A 
ATOM      8  C   UNL     1       1.665   2.187   0.063  0.00  0.00    +0.025 A 
ATOM      9  C   UNL     1       0.579   1.428   0.534  0.00  0.00    +0.037 A 
ATOM     10  C   UNL     1       0.783   0.099   0.840  0.00  0.00    -0.024 A 
ATOM     11  C   UNL     1       2.058  -0.449   0.687  0.00  0.00    +0.034 A 
ATOM     12  C   UNL     1      -0.269  -0.843   1.325  0.00  0.00    +0.037 C 
ATOM     13  C   UNL     1      -1.637  -0.643   0.752  0.00  0.00    +0.014 C 
ATOM     14  C   UNL     1      -2.383   0.517   1.365  0.00  0.00    +0.096 C 
ATOM     15  C   UNL     1      -1.846   1.826   0.908  0.00  0.00    +0.217 C 
ATOM     16  O   UNL     1      -2.655   2.716   0.752  0.00  0.00    -0.275 OA
ATOM     17  N   UNL     1      -0.602   2.122   0.657  0.00  0.00    -0.285 N 
ATOM     18  H   UNL     1      -0.614   3.214   0.529  0.00  0.00    +0.155 HD
ENDBRANCH   3   6
ENDBRANCH   1   3
BRANCH   1  19
ATOM     19  C   UNL     1       4.759  -0.123  -2.636  0.00  0.00    +0.165 C 
BRANCH  19  20
ATOM     20  C   UNL     1       5.650  -0.655  -3.728  0.00  0.00    +0.232 C 
ATOM     21  O   UNL     1       5.902  -1.841  -3.783  0.00  0.00    -0.274 OA
ATOM     22  N   UNL     1       6.168   0.186  -4.645  0.00  0.00    -0.310 N 
ATOM     23  H   UNL     1       5.872   1.245  -4.649  0.00  0.00    +0.149 HD
BRANCH  22  24
ATOM     24  C   UNL     1       7.124  -0.311  -5.638  0.00  0.00    +0.139 C 
BRANCH  24  25
ATOM     25  C   UNL     1       7.547   0.821  -6.538  0.00  0.00    -0.030 A 
ATOM     26  C   UNL     1       6.840   1.081  -7.698  0.00  0.00    +0.009 A 
ATOM     27  C   UNL     1       7.221   2.122  -8.522  0.00  0.00    +0.046 A 
ATOM     28  C   UNL     1       8.322   2.899  -8.192  0.00  0.00    +0.120 A 
ATOM     29  C   UNL     1       9.033   2.632  -7.031  0.00  0.00    +0.046 A 
ATOM     30  C   UNL     1       8.644   1.594  -6.207  0.00  0.00    +0.009 A 
BRANCH  28  31
ATOM     31  O   UNL     1       8.703   3.920  -9.004  0.00  0.00    -0.495 OA
ATOM     32  C   UNL     1       7.924   4.137 -10.182  0.00  0.00    +0.277 C 
ENDBRANCH  28  31
ENDBRANCH  24  25
ENDBRANCH  22  24
ENDBRANCH  19  20
BRANCH  19  34
ATOM     33  C   UNL     1       3.252   1.019  -4.270  0.00  0.00    +0.009 C 
ATOM     34  C   UNL     1       3.322  -0.025  -3.153  0.00  0.00    +0.010 C 
ATOM     35  C   UNL     1       2.881  -1.385  -3.698  0.00  0.00    +0.009 C 
ENDBRANCH  19  34
ENDBRANCH   1  19
TORSDOF 8
