REMARK  Name = ZINC39598254
REMARK  10 active torsions:
REMARK  status: ('A' for Active; 'I' for Inactive)
REMARK    1  A    between atoms: C_1  and  C_2
REMARK    2  A    between atoms: C_2  and  C_3
REMARK    3  A    between atoms: C_3  and  C_4
REMARK    4  A    between atoms: C_4  and  C_5
REMARK    5  A    between atoms: C_5  and  C_7
REMARK    6  A    between atoms: C_5  and  C_8
REMARK    7  A    between atoms: C_12  and  C_21
REMARK    8  A    between atoms: N_23  and  C_24
REMARK    9  A    between atoms: N_27  and  C_30
REMARK   10  A    between atoms: C_30  and  C_31
REMARK                            x       y       z     vdW  Elec       q    Type
REMARK                         _______ _______ _______ _____ _____    ______ ____
ROOT
ATOM      1  C   UNL     1      -2.991  -4.326   0.310  0.00  0.00    +0.218 C 
ATOM      2  O   UNL     1      -1.998  -4.985   0.532  0.00  0.00    -0.275 OA
ATOM      3  N   UNL     1      -4.180  -4.936   0.135  0.00  0.00    -0.300 N 
ATOM      4  C   UNL     1      -5.471  -4.318  -0.249  0.00  0.00    +0.121 C 
ATOM      5  C   UNL     1      -6.115  -5.331  -1.222  0.00  0.00    +0.100 C 
ATOM      6  C   UNL     1      -5.470  -6.681  -0.866  0.00  0.00    -0.004 C 
ATOM      7  C   UNL     1      -4.490  -6.379   0.277  0.00  0.00    +0.115 C 
ATOM      8  C   UNL     1      -6.535  -7.671  -0.404  0.00  0.00    -0.010 C 
ATOM      9  C   UNL     1      -5.877  -9.022  -0.111  0.00  0.00    -0.082 C 
ATOM     10  N   UNL     1      -5.214  -9.518  -1.323  0.00  0.00    +0.379 N 
ATOM     11  C   UNL     1      -4.129  -8.607  -1.708  0.00  0.00    -0.082 C 
ATOM     12  C   UNL     1      -4.713  -7.238  -2.068  0.00  0.00    -0.010 C 
ATOM     13  H   UNL     1      -4.834 -10.436  -1.146  0.00  0.00    -0.086 HD
ATOM     14  H   UNL     1      -5.886  -9.575  -2.074  0.00  0.00    -0.086 HD
ENDROOT
BRANCH   5  15
ATOM     15  C   UNL     1      -7.606  -5.388  -1.010  0.00  0.00    +0.218 C 
ATOM     16  O   UNL     1      -8.072  -5.158   0.086  0.00  0.00    -0.275 OA
ATOM     17  N   UNL     1      -8.421  -5.693  -2.038  0.00  0.00    -0.312 N 
ATOM     18  H   UNL     1      -8.049  -5.876  -2.915  0.00  0.00    +0.149 HD
BRANCH  17  19
ATOM     19  C   UNL     1      -9.871  -5.747  -1.832  0.00  0.00    +0.069 C 
ATOM     20  C   UNL     1     -10.262  -7.134  -1.314  0.00  0.00    +0.003 C 
ATOM     21  C   UNL     1     -11.785  -7.210  -1.177  0.00  0.00    -0.077 C 
ATOM     22  N   UNL     1     -12.410  -6.981  -2.485  0.00  0.00    +0.382 N 
ATOM     23  C   UNL     1     -12.097  -5.626  -2.955  0.00  0.00    -0.077 C 
ATOM     24  C   UNL     1     -10.587  -5.489  -3.161  0.00  0.00    +0.003 C 
ATOM     25  H   UNL     1     -12.058  -7.655  -3.148  0.00  0.00    -0.081 HD
BRANCH  22  26
ATOM     26  C   UNL     1     -13.866  -7.132  -2.364  0.00  0.00    -0.043 C 
BRANCH  26  27
ATOM     27  C   UNL     1     -14.498  -7.018  -3.727  0.00  0.00    -0.064 A 
ATOM     28  C   UNL     1     -14.893  -5.782  -4.205  0.00  0.00    +0.002 A 
ATOM     29  C   UNL     1     -15.473  -5.678  -5.455  0.00  0.00    +0.000 A 
ATOM     30  C   UNL     1     -15.657  -6.809  -6.228  0.00  0.00    +0.000 A 
ATOM     31  C   UNL     1     -15.262  -8.045  -5.751  0.00  0.00    +0.000 A 
ATOM     32  C   UNL     1     -14.678  -8.149  -4.502  0.00  0.00    +0.002 A 
ENDBRANCH  26  27
ENDBRANCH  22  26
ENDBRANCH  17  19
ENDBRANCH   5  15
BRANCH   1  33
ATOM     33  C   UNL     1      -2.897  -2.824   0.231  0.00  0.00    +0.072 C 
ATOM     34  C   UNL     1      -2.589  -2.408  -1.209  0.00  0.00    +0.017 C 
BRANCH  33  35
ATOM     35  C   UNL     1      -1.779  -2.334   1.153  0.00  0.00    +0.012 C 
BRANCH  35  36
ATOM     36  C   UNL     1      -1.764  -0.804   1.168  0.00  0.00    +0.000 C 
BRANCH  36  38
ATOM     37  C   UNL     1      -0.631   1.216   2.106  0.00  0.00    +0.004 C 
ATOM     38  C   UNL     1      -0.646  -0.314   2.090  0.00  0.00    -0.003 C 
ENDBRANCH  36  38
ENDBRANCH  35  36
ENDBRANCH  33  35
ENDBRANCH   1  33
TORSDOF 8
