REMARK  Name = ZINC36925240
REMARK  4 active torsions:
REMARK  status: ('A' for Active; 'I' for Inactive)
REMARK    1  A    between atoms: C_1  and  C_2
REMARK    2  A    between atoms: C_2  and  C_4
REMARK    3  A    between atoms: C_4  and  C_6
REMARK    4  A    between atoms: C_13  and  N_16
REMARK                            x       y       z     vdW  Elec       q    Type
REMARK                         _______ _______ _______ _____ _____    ______ ____
ROOT
ATOM      1  C   UNL     1       2.143  -0.619   1.207  0.00  0.00    +0.044 A 
ATOM      2  C   UNL     1       2.988  -0.312   0.161  0.00  0.00    +0.095 A 
ATOM      3  N   UNL     1       4.262  -0.554   0.523  0.00  0.00    -0.360 N 
ATOM      4  H   UNL     1       5.034  -0.412  -0.048  0.00  0.00    +0.165 HD
ATOM      5  C   UNL     1       4.321  -1.029   1.817  0.00  0.00    +0.047 A 
ATOM      6  C   UNL     1       3.007  -1.088   2.309  0.00  0.00    +0.012 A 
ATOM      7  C   UNL     1       2.765  -1.530   3.606  0.00  0.00    +0.043 A 
ATOM      8  C   UNL     1       3.821  -1.907   4.406  0.00  0.00    +0.127 A 
ATOM      9  C   UNL     1       5.120  -1.847   3.924  0.00  0.00    +0.035 A 
ATOM     10  C   UNL     1       5.373  -1.419   2.639  0.00  0.00    +0.028 A 
ENDROOT
BRANCH   8  11
ATOM     11  N   UNL     1       3.568  -2.378   5.787  0.00  0.00    +0.056 N 
ATOM     12  O   UNL     1       2.437  -2.432   6.210  0.00  0.00    -0.126 OA
ATOM     13  O   UNL     1       4.493  -2.710   6.491  0.00  0.00    -0.126 OA
ENDBRANCH   8  11
BRANCH   1  14
ATOM     14  C   UNL     1       0.731  -0.503   1.223  0.00  0.00    +0.178 C 
ATOM     15  O   UNL     1       0.108  -0.806   2.220  0.00  0.00    -0.291 OA
BRANCH  14  17
ATOM     16  C   UNL     1      -0.019   1.526   0.010  0.00  0.00    +0.028 C 
ATOM     17  C   UNL     1       0.002  -0.004   0.002  0.00  0.00    +0.124 C 
ATOM     18 BR   UNL     1      -1.842  -0.685   0.016  0.00  0.00    -0.080 Br
ENDBRANCH  14  17
ENDBRANCH   1  14
TORSDOF 3
