REMARK  Name = ZINC08964506
REMARK  13 active torsions:
REMARK  status: ('A' for Active; 'I' for Inactive)
REMARK    1  A    between atoms: C_1  and  C_2
REMARK    2  A    between atoms: C_7  and  C_8
REMARK    3  A    between atoms: C_8  and  C_10
REMARK    4  A    between atoms: C_8  and  O_27
REMARK    5  A    between atoms: C_10  and  C_11
REMARK    6  A    between atoms: C_18  and  O_19
REMARK    7  A    between atoms: O_19  and  C_20
REMARK    8  A    between atoms: C_26  and  N_76
REMARK    9  A    between atoms: C_28  and  C_36
REMARK   10  A    between atoms: C_28  and  C_37
REMARK   11  A    between atoms: C_30  and  C_35
REMARK   12  A    between atoms: C_32  and  C_33
REMARK   13  A    between atoms: C_32  and  C_34
REMARK                            x       y       z     vdW  Elec       q    Type
REMARK                         _______ _______ _______ _____ _____    ______ ____
ROOT
ATOM      1  C   UNL     1      -3.975   3.567  -1.174  0.00  0.00    +0.144 C 
ENDROOT
BRANCH   1   8
ATOM      2  C   UNL     1      -1.511   5.087  -1.313  0.00  0.00    +0.044 C 
ATOM      3  C   UNL     1      -1.475   3.609  -1.021  0.00  0.00    -0.045 A 
ATOM      4  C   UNL     1      -0.267   2.974  -0.812  0.00  0.00    +0.008 A 
ATOM      5  C   UNL     1      -0.216   1.613  -0.537  0.00  0.00    -0.038 A 
ATOM      6  C   UNL     1      -1.383   0.883  -0.514  0.00  0.00    -0.038 A 
ATOM      7  C   UNL     1      -2.599   1.528  -0.709  0.00  0.00    +0.011 A 
ATOM      8  C   UNL     1      -2.648   2.884  -0.963  0.00  0.00    -0.016 A 
ATOM      9  C   UNL     1      -1.419  -0.602  -0.274  0.00  0.00    -0.009 C 
ATOM     10  C   UNL     1      -0.036  -1.230  -0.289  0.00  0.00    +0.015 C 
ATOM     11  C   UNL     1       1.033  -0.373   0.366  0.00  0.00    -0.003 C 
ATOM     12  C   UNL     1       1.133   1.000  -0.284  0.00  0.00    -0.007 C 
ATOM     13  C   UNL     1       1.935   1.913   0.655  0.00  0.00    +0.016 C 
ATOM     14  C   UNL     1       1.891   0.881  -1.610  0.00  0.00    +0.016 C 
ATOM     15  C   UNL     1       0.843  -0.238   1.874  0.00  0.00    +0.008 C 
ATOM     16  C   UNL     1      -2.151  -0.909   1.032  0.00  0.00    +0.016 C 
ATOM     17  C   UNL     1      -2.226  -1.244  -1.422  0.00  0.00    +0.016 C 
ENDBRANCH   1   8
BRANCH   1  18
ATOM     18  O   UNL     1      -5.004   2.820  -0.522  0.00  0.00    -0.387 OA
ATOM     19  H   UNL     1      -5.096   1.913  -0.843  0.00  0.00    +0.210 HD
ENDBRANCH   1  18
BRANCH   1  20
ATOM     20  C   UNL     1      -4.274   3.647  -2.672  0.00  0.00    +0.025 C 
BRANCH  20  21
ATOM     21  C   UNL     1      -5.618   4.346  -2.886  0.00  0.00    -0.031 C 
ATOM     22  C   UNL     1      -5.591   5.694  -2.215  0.00  0.00    -0.012 A 
ATOM     23  C   UNL     1      -6.663   6.168  -1.489  0.00  0.00    -0.040 A 
ATOM     24  C   UNL     1      -6.598   7.417  -0.891  0.00  0.00    +0.053 A 
ATOM     25  C   UNL     1      -5.460   8.197  -1.014  0.00  0.00    +0.170 A 
ATOM     26  C   UNL     1      -4.375   7.722  -1.743  0.00  0.00    +0.208 A 
ATOM     27  C   UNL     1      -4.444   6.472  -2.342  0.00  0.00    +0.167 A 
ATOM     28  O   UNL     1      -3.385   8.663  -1.717  0.00  0.00    -0.449 OA
ATOM     29  C   UNL     1      -4.029   9.886  -1.310  0.00  0.00    +0.467 C 
ATOM     30  O   UNL     1      -5.153   9.436  -0.531  0.00  0.00    -0.452 OA
ATOM     31  C   UNL     1      -7.923   5.358  -1.321  0.00  0.00    +0.017 C 
ATOM     32  C   UNL     1      -7.969   4.241  -2.365  0.00  0.00    -0.074 C 
ATOM     33  C   UNL     1      -6.790   2.235  -3.041  0.00  0.00    -0.095 C 
ATOM     34  N   UNL     1      -6.685   3.515  -2.304  0.00  0.00    +0.383 N 
ATOM     35  H   UNL     1      -6.458   3.317  -1.322  0.00  0.00    -0.081 HD
BRANCH  27  36
ATOM     36  O   UNL     1      -3.385   6.004  -3.054  0.00  0.00    -0.491 OA
ATOM     37  C   UNL     1      -3.294   6.408  -4.422  0.00  0.00    +0.277 C 
ENDBRANCH  27  36
ENDBRANCH  20  21
ENDBRANCH   1  20
TORSDOF 5
