REMARK  Name = ZINC39702044
REMARK  6 active torsions:
REMARK  status: ('A' for Active; 'I' for Inactive)
REMARK    1  A    between atoms: C_6  and  C_10
REMARK    2  A    between atoms: C_10  and  C_27
REMARK    3  A    between atoms: C_11  and  C_12
REMARK    4  A    between atoms: C_15  and  C_17
REMARK    5  A    between atoms: C_20  and  C_24
REMARK    6  A    between atoms: C_21  and  O_23
REMARK                            x       y       z     vdW  Elec       q    Type
REMARK                         _______ _______ _______ _____ _____    ______ ____
ROOT
ATOM      1  C   UNL     1       4.740  -4.558  -2.348  0.00  0.00    +0.130 A 
ATOM      2  C   UNL     1       5.521  -5.697  -2.387  0.00  0.00    +0.050 A 
ATOM      3  C   UNL     1       5.708  -6.012  -3.736  0.00  0.00    +0.050 A 
ATOM      4  C   UNL     1       5.044  -5.066  -4.465  0.00  0.00    +0.136 A 
ATOM      5  O   UNL     1       4.460  -4.199  -3.618  0.00  0.00    -0.455 OA
ENDROOT
BRANCH   4   6
ATOM      6  C   UNL     1       4.974  -5.010  -5.937  0.00  0.00    +0.021 A 
ATOM      7  C   UNL     1       5.619  -5.986  -6.706  0.00  0.00    +0.012 A 
ATOM      8  C   UNL     1       5.559  -5.940  -8.067  0.00  0.00    +0.019 A 
ATOM      9  C   UNL     1       4.849  -4.915  -8.707  0.00  0.00    +0.104 A 
ATOM     10  C   UNL     1       4.198  -3.932  -7.942  0.00  0.00    +0.132 A 
ATOM     11  C   UNL     1       4.258  -3.986  -6.561  0.00  0.00    +0.057 A 
BRANCH   9  12
ATOM     12  C   UNL     1       4.786  -4.869 -10.174  0.00  0.00    +0.390 C 
ATOM     13  O   UNL     1       5.354  -5.725 -10.838  0.00  0.00    -0.240 OA
ATOM     14  O   UNL     1       4.166  -3.973 -10.732  0.00  0.00    -0.240 OA
ENDBRANCH   9  12
BRANCH  10  15
ATOM     15  O   UNL     1       3.510  -2.938  -8.556  0.00  0.00    -0.506 OA
ATOM     16  H   UNL     1       2.580  -3.145  -8.719  0.00  0.00    +0.292 HD
ENDBRANCH  10  15
ENDBRANCH   4   6
BRANCH   1  18
ATOM     17  C   UNL     1       3.534  -2.776  -1.283  0.00  0.00    +0.075 C 
ATOM     18  C   UNL     1       4.305  -3.886  -1.180  0.00  0.00    +0.064 C 
BRANCH  17  24
ATOM     19  C   UNL     1      -0.016   1.344   0.009  0.00  0.00    +0.002 A 
ATOM     20  C   UNL     1       1.158   2.118   0.002  0.00  0.00    +0.002 A 
ATOM     21  C   UNL     1       2.389   1.570  -0.013  0.00  0.00    +0.027 A 
ATOM     22  C   UNL     1       2.533   0.108  -0.022  0.00  0.00    +0.060 A 
ATOM     23  N   UNL     1       3.569  -0.680  -0.036  0.00  0.00    -0.359 N 
ATOM     24  C   UNL     1       3.071  -2.062  -0.039  0.00  0.00    +0.216 C 
ATOM     25  N   UNL     1       1.606  -1.974  -0.024  0.00  0.00    -0.359 N 
ATOM     26  C   UNL     1       1.290  -0.712  -0.014  0.00  0.00    +0.060 A 
ATOM     27  C   UNL     1       0.002  -0.004   0.002  0.00  0.00    +0.027 A 
ATOM     28  H   UNL     1       4.499  -0.405  -0.045  0.00  0.00    +0.162 HD
ATOM     29  H   UNL     1       0.987  -2.721  -0.022  0.00  0.00    +0.162 HD
ENDBRANCH  17  24
BRANCH  17  30
ATOM     30  C   UNL     1       3.160  -2.281  -2.574  0.00  0.00    +0.099 C 
ATOM     31  N   UNL     1       2.864  -1.889  -3.598  0.00  0.00    -0.191 NA
ENDBRANCH  17  30
ENDBRANCH   1  18
TORSDOF 6
