REMARK  Name = ZINC08987347
REMARK  6 active torsions:
REMARK  status: ('A' for Active; 'I' for Inactive)
REMARK    1  A    between atoms: C_1  and  C_2
REMARK    2  A    between atoms: C_2  and  C_4
REMARK    3  A    between atoms: C_2  and  S_16
REMARK    4  A    between atoms: S_16  and  C_17
REMARK    5  A    between atoms: C_20  and  C_23
REMARK    6  A    between atoms: N_21  and  N_22
REMARK                            x       y       z     vdW  Elec       q    Type
REMARK                         _______ _______ _______ _____ _____    ______ ____
ROOT
ATOM      1  C   UNL     1       4.769   1.359   3.073  0.00  0.00    +0.029 C 
ATOM      2  C   UNL     1       3.397   2.001   3.289  0.00  0.00    +0.137 C 
ENDROOT
BRANCH   2   3
ATOM      3  C   UNL     1       2.822   2.418   1.960  0.00  0.00    +0.233 C 
ATOM      4  O   UNL     1       2.987   3.550   1.557  0.00  0.00    -0.274 OA
ATOM      5  N   UNL     1       2.126   1.534   1.219  0.00  0.00    -0.270 N 
ATOM      6  C   UNL     1       2.033   0.126   1.628  0.00  0.00    +0.114 C 
ATOM      7  C   UNL     1       2.264  -0.740   0.383  0.00  0.00    +0.024 C 
ATOM      8  C   UNL     1       1.144  -0.469  -0.622  0.00  0.00    +0.038 C 
ATOM      9  C   UNL     1       0.997   1.010  -0.861  0.00  0.00    -0.026 A 
ATOM     10  C   UNL     1       1.477   1.942   0.045  0.00  0.00    +0.039 A 
ATOM     11  C   UNL     1       1.320   3.300  -0.204  0.00  0.00    +0.024 A 
ATOM     12  C   UNL     1       0.688   3.723  -1.356  0.00  0.00    +0.002 A 
ATOM     13  C   UNL     1       0.211   2.793  -2.262  0.00  0.00    +0.000 A 
ATOM     14  C   UNL     1       0.365   1.442  -2.015  0.00  0.00    +0.005 A 
ENDBRANCH   2   3
BRANCH   2  15
ATOM     15  S   UNL     1       3.571   3.454   4.355  0.00  0.00    -0.072 S 
BRANCH  15  16
ATOM     16  C   UNL     1       4.100   2.678   5.846  0.00  0.00    +0.209 A 
ATOM     17  N   UNL     1       4.287   1.391   6.030  0.00  0.00    -0.120 NA
ATOM     18  N   UNL     1       4.674   1.168   7.235  0.00  0.00    -0.123 NA
ATOM     19  C   UNL     1       4.758   2.302   7.896  0.00  0.00    +0.217 A 
ATOM     20  N   UNL     1       4.398   3.305   7.023  0.00  0.00    -0.221 N 
BRANCH  19  21
ATOM     21  C   UNL     1       5.165   2.468   9.300  0.00  0.00    +0.173 A 
ATOM     22  C   UNL     1       5.787   1.531  10.069  0.00  0.00    +0.053 A 
ATOM     23  C   UNL     1       5.989   2.114  11.335  0.00  0.00    +0.042 A 
ATOM     24  C   UNL     1       5.479   3.361  11.282  0.00  0.00    +0.196 A 
ATOM     25  O   UNL     1       4.981   3.571  10.052  0.00  0.00    -0.460 OA
ENDBRANCH  19  21
BRANCH  20  26
ATOM     26  N   UNL     1       4.346   4.645   7.282  0.00  0.00    -0.294 N 
ATOM     27  H   UNL     1       3.435   4.912   7.624  0.00  0.00    +0.163 HD
ATOM     28  H   UNL     1       5.070   4.916   7.930  0.00  0.00    +0.163 HD
ENDBRANCH  20  26
ENDBRANCH  15  16
ENDBRANCH   2  15
TORSDOF 5
