REMARK  Name = ZINC32527858
REMARK  10 active torsions:
REMARK  status: ('A' for Active; 'I' for Inactive)
REMARK    1  A    between atoms: C_1  and  C_2
REMARK    2  A    between atoms: C_5  and  C_8
REMARK    3  A    between atoms: C_11  and  N_16
REMARK    4  A    between atoms: C_12  and  C_13
REMARK    5  A    between atoms: C_17  and  C_19
REMARK    6  A    between atoms: C_19  and  C_21
REMARK    7  A    between atoms: C_19  and  N_22
REMARK    8  A    between atoms: C_26  and  C_35
REMARK    9  A    between atoms: C_29  and  O_33
REMARK   10  A    between atoms: O_33  and  C_34
REMARK                            x       y       z     vdW  Elec       q    Type
REMARK                         _______ _______ _______ _____ _____    ______ ____
ROOT
ATOM      1  N   UNL     1      -1.195   3.009  -2.635  0.00  0.00    -0.278 N 
ATOM      2  C   UNL     1      -2.038   3.114  -3.682  0.00  0.00    +0.240 C 
ATOM      3  O   UNL     1      -2.968   3.891  -3.635  0.00  0.00    -0.273 OA
ATOM      4  H   UNL     1      -0.351   2.304  -2.678  0.00  0.00    +0.155 HD
ENDROOT
BRANCH   1   8
ATOM      5  C   UNL     1      -1.066   4.742   0.691  0.00  0.00    +0.003 A 
ATOM      6  C   UNL     1      -2.170   5.487   0.423  0.00  0.00    +0.056 A 
ATOM      7  S   UNL     1      -2.636   4.953  -1.211  0.00  0.00    -0.081 S 
ATOM      8  C   UNL     1      -1.390   3.788  -1.506  0.00  0.00    +0.085 A 
ATOM      9  C   UNL     1      -0.636   3.819  -0.342  0.00  0.00    +0.073 A 
BRANCH   5  14
ATOM     10  C   UNL     1       1.767   5.228   5.680  0.00  0.00    +0.044 C 
ATOM     11  C   UNL     1       1.026   5.101   4.374  0.00  0.00    -0.050 A 
ATOM     12  C   UNL     1       0.715   6.235   3.645  0.00  0.00    +0.004 A 
ATOM     13  C   UNL     1       0.037   6.125   2.448  0.00  0.00    +0.009 A 
ATOM     14  C   UNL     1      -0.336   4.867   1.975  0.00  0.00    -0.017 A 
ATOM     15  C   UNL     1      -0.025   3.729   2.717  0.00  0.00    +0.009 A 
ATOM     16  C   UNL     1       0.658   3.851   3.909  0.00  0.00    +0.004 A 
ENDBRANCH   5  14
BRANCH   9  17
ATOM     17  C   UNL     1       0.541   2.965  -0.167  0.00  0.00    +0.244 C 
ATOM     18  O   UNL     1       0.422   1.858   0.325  0.00  0.00    -0.270 OA
ATOM     19  N   UNL     1       1.755   3.402  -0.556  0.00  0.00    -0.325 N 
ATOM     20  H   UNL     1       2.639   2.761  -0.424  0.00  0.00    +0.145 HD
ATOM     21  H   UNL     1       1.862   4.401  -1.005  0.00  0.00    +0.145 HD
ENDBRANCH   9  17
ENDBRANCH   1   8
BRANCH   2  22
ATOM     22  C   UNL     1      -1.825   2.267  -4.910  0.00  0.00    +0.174 C 
ATOM     23  C   UNL     1      -0.451   2.574  -5.509  0.00  0.00    +0.041 C 
BRANCH  22  24
ATOM     24  N   UNL     1      -2.866   2.566  -5.896  0.00  0.00    -0.293 N 
ATOM     25  C   UNL     1      -2.646   3.511  -6.826  0.00  0.00    +0.253 A 
ATOM     26  O   UNL     1      -1.581   4.104  -6.831  0.00  0.00    -0.268 OA
ATOM     27  C   UNL     1      -3.618   3.834  -7.797  0.00  0.00    +0.074 A 
ATOM     28  C   UNL     1      -4.810   3.189  -7.812  0.00  0.00    -0.036 A 
ATOM     29  C   UNL     1      -5.060   2.157  -6.803  0.00  0.00    +0.005 A 
ATOM     30  C   UNL     1      -4.057   1.869  -5.860  0.00  0.00    +0.095 A 
ATOM     31  C   UNL     1      -4.288   0.891  -4.891  0.00  0.00    +0.144 A 
ATOM     32  C   UNL     1      -5.493   0.214  -4.878  0.00  0.00    +0.048 A 
ATOM     33  C   UNL     1      -6.476   0.500  -5.815  0.00  0.00    +0.004 A 
ATOM     34  C   UNL     1      -6.271   1.458  -6.768  0.00  0.00    +0.010 A 
ATOM     35  C   UNL     1      -5.856   3.526  -8.844  0.00  0.00    +0.044 C 
BRANCH  31  36
ATOM     36  O   UNL     1      -3.332   0.604  -3.969  0.00  0.00    -0.493 OA
ATOM     37  C   UNL     1      -3.638  -0.413  -3.012  0.00  0.00    +0.277 C 
ENDBRANCH  31  36
ENDBRANCH  22  24
ENDBRANCH   2  22
TORSDOF 6
