REMARK  Name = ZINC54096722
REMARK  6 active torsions:
REMARK  status: ('A' for Active; 'I' for Inactive)
REMARK    1  A    between atoms: C_1  and  C_2
REMARK    2  A    between atoms: C_4  and  C_8
REMARK    3  A    between atoms: N_10  and  C_11
REMARK    4  A    between atoms: C_11  and  C_12
REMARK    5  A    between atoms: C_11  and  C_13
REMARK    6  A    between atoms: C_17  and  N_19
REMARK                            x       y       z     vdW  Elec       q    Type
REMARK                         _______ _______ _______ _____ _____    ______ ____
ROOT
ATOM      1  C   UNL     1       0.041  -3.356  -1.443  0.00  0.00    +0.263 C 
ATOM      2  O   UNL     1       0.034  -3.300  -2.658  0.00  0.00    -0.268 OA
ATOM      3  N   UNL     1       0.061  -4.554  -0.825  0.00  0.00    -0.304 N 
ATOM      4  H   UNL     1       0.067  -4.599   0.144  0.00  0.00    +0.150 HD
ENDROOT
BRANCH   1   8
ATOM      5  C   UNL     1      -0.018   1.503   0.010  0.00  0.00    +0.068 C 
ATOM      6  C   UNL     1       0.002  -0.004   0.002  0.00  0.00    +0.074 A 
ATOM      7  C   UNL     1       0.008  -0.821  -1.132  0.00  0.00    +0.070 A 
ATOM      8  C   UNL     1       0.028  -2.119  -0.649  0.00  0.00    +0.134 A 
ATOM      9  N   UNL     1       0.033  -2.018   0.714  0.00  0.00    -0.271 N 
ATOM     10  H   UNL     1       0.047  -2.768   1.330  0.00  0.00    +0.189 HD
ATOM     11  N   UNL     1       0.023  -0.780   1.055  0.00  0.00    -0.177 NA
ATOM     12 BR   UNL     1      -0.009  -0.271  -2.942  0.00  0.00    -0.046 Br
ENDBRANCH   1   8
BRANCH   3  13
ATOM     13  C   UNL     1       0.073  -5.787  -1.616  0.00  0.00    +0.101 C 
ATOM     14  C   UNL     1       1.513  -6.128  -2.005  0.00  0.00    +0.033 C 
BRANCH  13  15
ATOM     15  C   UNL     1      -0.507  -6.913  -0.800  0.00  0.00    -0.025 A 
ATOM     16  C   UNL     1      -0.210  -7.016   0.546  0.00  0.00    +0.005 A 
ATOM     17  C   UNL     1      -0.743  -8.049   1.294  0.00  0.00    +0.003 A 
ATOM     18  C   UNL     1      -1.573  -8.979   0.696  0.00  0.00    +0.033 A 
ATOM     19  C   UNL     1      -1.871  -8.875  -0.649  0.00  0.00    +0.127 A 
ATOM     20  C   UNL     1      -1.341  -7.840  -1.397  0.00  0.00    +0.038 A 
BRANCH  19  21
ATOM     21  N   UNL     1      -2.759  -9.871  -1.290  0.00  0.00    +0.056 N 
ATOM     22  O   UNL     1      -3.224 -10.775  -0.636  0.00  0.00    -0.126 OA
ATOM     23  O   UNL     1      -3.019  -9.781  -2.467  0.00  0.00    -0.126 OA
ENDBRANCH  19  21
ENDBRANCH  13  15
ENDBRANCH   3  13
TORSDOF 4
