REMARK  Name = ZINC39670921
REMARK  7 active torsions:
REMARK  status: ('A' for Active; 'I' for Inactive)
REMARK    1  A    between atoms: C_3  and  C_6
REMARK    2  A    between atoms: C_6  and  C_7
REMARK    3  A    between atoms: C_7  and  N_8
REMARK    4  A    between atoms: C_9  and  C_11
REMARK    5  A    between atoms: C_22  and  C_24
REMARK    6  A    between atoms: C_27  and  O_30
REMARK    7  A    between atoms: O_30  and  C_31
REMARK                            x       y       z     vdW  Elec       q    Type
REMARK                         _______ _______ _______ _____ _____    ______ ____
ROOT
ATOM      1  C   UNL     1       8.410   0.484   2.275  0.00  0.00    +0.100 C 
ATOM      2  C   UNL     1       8.645   1.839   1.571  0.00  0.00    +0.121 C 
ATOM      3  N   UNL     1       8.863   2.802   2.676  0.00  0.00    -0.296 N 
ATOM      4  C   UNL     1       9.679   2.054   3.662  0.00  0.00    +0.115 C 
ATOM      5  C   UNL     1       9.093   0.627   3.645  0.00  0.00    -0.004 C 
ATOM      6  C   UNL     1       8.070   0.465   4.765  0.00  0.00    -0.010 C 
ATOM      7  C   UNL     1       8.782   0.555   6.118  0.00  0.00    -0.082 C 
ATOM      8  N   UNL     1       9.804  -0.495   6.205  0.00  0.00    +0.379 N 
ATOM      9  C   UNL     1      10.834  -0.278   5.183  0.00  0.00    -0.082 C 
ATOM     10  C   UNL     1      10.209  -0.403   3.791  0.00  0.00    -0.010 C 
ATOM     11  C   UNL     1       8.420   4.072   2.765  0.00  0.00    +0.247 C 
ATOM     12  O   UNL     1       7.652   4.508   1.929  0.00  0.00    -0.270 OA
ATOM     13  H   UNL     1      10.230  -0.473   7.120  0.00  0.00    -0.086 HD
ATOM     14  H   UNL     1       9.372  -1.395   6.060  0.00  0.00    -0.086 HD
ENDROOT
BRANCH  11  15
ATOM     15  C   UNL     1       8.868   4.934   3.877  0.00  0.00    +0.037 A 
ATOM     16  C   UNL     1      10.042   4.629   4.570  0.00  0.00    +0.016 A 
ATOM     17  C   UNL     1      10.456   5.436   5.607  0.00  0.00    +0.047 A 
ATOM     18  C   UNL     1       9.707   6.551   5.963  0.00  0.00    +0.130 A 
ATOM     19  C   UNL     1       8.539   6.858   5.276  0.00  0.00    +0.047 A 
ATOM     20  C   UNL     1       8.121   6.059   4.235  0.00  0.00    +0.016 A 
BRANCH  18  21
ATOM     21  O   UNL     1      10.118   7.343   6.986  0.00  0.00    -0.406 OA
BRANCH  21  22
ATOM     22  C   UNL     1       9.302   8.473   7.300  0.00  0.00    +0.575 C 
ATOM     23  F   UNL     1       8.020   8.039   7.653  0.00  0.00    -0.133 F 
ATOM     24  F   UNL     1       9.868   9.174   8.370  0.00  0.00    -0.133 F 
ATOM     25  F   UNL     1       9.219   9.313   6.184  0.00  0.00    -0.133 F 
ENDBRANCH  21  22
ENDBRANCH  18  21
ENDBRANCH  11  15
BRANCH   1  27
ATOM     26  N   UNL     1       6.479  -1.030   2.582  0.00  0.00    -0.315 N 
ATOM     27  C   UNL     1       6.935   0.231   2.448  0.00  0.00    +0.218 C 
ATOM     28  O   UNL     1       6.158   1.162   2.466  0.00  0.00    -0.275 OA
ATOM     29  H   UNL     1       7.100  -1.775   2.567  0.00  0.00    +0.149 HD
BRANCH  26  30
ATOM     30  C   UNL     1       5.044  -1.276   2.750  0.00  0.00    +0.112 C 
BRANCH  30  31
ATOM     31  C   UNL     1       4.797  -2.781   2.879  0.00  0.00    +0.093 C 
BRANCH  31  34
ATOM     32  C   UNL     1       1.176  -3.434   2.668  0.00  0.00    +0.041 A 
ATOM     33  C   UNL     1       2.437  -3.240   2.059  0.00  0.00    +0.044 A 
ATOM     34  C   UNL     1       3.321  -3.034   3.052  0.00  0.00    +0.106 A 
ATOM     35  O   UNL     1       2.666  -3.092   4.223  0.00  0.00    -0.468 OA
ATOM     36  C   UNL     1       1.365  -3.335   3.996  0.00  0.00    +0.195 A 
ENDBRANCH  31  34
ENDBRANCH  30  31
ENDBRANCH  26  30
ENDBRANCH   1  27
TORSDOF 7
