REMARK  Name = ZINC13633657
REMARK  3 active torsions:
REMARK  status: ('A' for Active; 'I' for Inactive)
REMARK    1  A    between atoms: C_6  and  C_7
REMARK    2  A    between atoms: N_8  and  N_9
REMARK    3  A    between atoms: C_12  and  C_15
REMARK                            x       y       z     vdW  Elec       q    Type
REMARK                         _______ _______ _______ _____ _____    ______ ____
ROOT
ATOM      1  N   UNL     1       2.224  -7.187  -0.060  0.00  0.00    -0.215 N 
ATOM      2  C   UNL     1       1.157  -6.305  -0.044  0.00  0.00    +0.178 A 
ATOM      3  N   UNL     1       1.164  -4.984  -0.042  0.00  0.00    -0.223 NA
ATOM      4  C   UNL     1       0.035  -4.290  -0.022  0.00  0.00    +0.087 A 
ATOM      5  C   UNL     1      -1.160  -4.956  -0.014  0.00  0.00    +0.077 A 
ATOM      6  S   UNL     1      -0.596  -6.652  -0.029  0.00  0.00    -0.059 S 
ATOM      7  H   UNL     1       3.133  -6.848  -0.066  0.00  0.00    +0.176 HD
ENDROOT
BRANCH   4   8
ATOM      8  C   UNL     1       0.068  -2.810  -0.014  0.00  0.00    +0.086 A 
ATOM      9  C   UNL     1       1.262  -2.140  -0.022  0.00  0.00    +0.028 A 
ATOM     10  C   UNL     1       1.236  -0.677  -0.013  0.00  0.00    +0.019 A 
ATOM     11  C   UNL     1       2.430   0.055  -0.021  0.00  0.00    +0.026 A 
ATOM     12  C   UNL     1       2.387   1.431  -0.014  0.00  0.00    +0.019 A 
ATOM     13  C   UNL     1       1.166   2.093   0.002  0.00  0.00    +0.019 A 
ATOM     14  C   UNL     1      -0.017   1.386   0.010  0.00  0.00    +0.048 A 
ATOM     15  C   UNL     1       0.002  -0.004   0.002  0.00  0.00    +0.139 A 
ATOM     16  O   UNL     1      -1.157  -0.697   0.009  0.00  0.00    -0.422 OA
ATOM     17  C   UNL     1      -1.179  -2.038   0.002  0.00  0.00    +0.347 A 
ATOM     18  O   UNL     1      -2.247  -2.622   0.009  0.00  0.00    -0.244 OA
ATOM     19 BR   UNL     1       3.996   2.424  -0.025  0.00  0.00    -0.050 Br
ENDBRANCH   4   8
BRANCH   1  21
ATOM     20  C   UNL     1       2.992  -9.395  -0.080  0.00  0.00    +0.138 C 
ATOM     21  N   UNL     1       1.991  -8.569  -0.066  0.00  0.00    -0.188 NA
BRANCH  20  27
ATOM     22  C   UNL     1       1.440 -11.341  -0.071  0.00  0.00    +0.011 A 
ATOM     23  C   UNL     1       1.217 -12.701  -0.083  0.00  0.00    +0.020 A 
ATOM     24  C   UNL     1       2.287 -13.581  -0.097  0.00  0.00    +0.041 A 
ATOM     25  C   UNL     1       3.586 -13.100  -0.108  0.00  0.00    +0.020 A 
ATOM     26  C   UNL     1       3.822 -11.742  -0.102  0.00  0.00    +0.011 A 
ATOM     27  C   UNL     1       2.747 -10.849  -0.087  0.00  0.00    -0.005 A 
ATOM     28 CL   UNL     1       1.999 -15.293  -0.104  0.00  0.00    -0.084 Cl
ENDBRANCH  20  27
ENDBRANCH   1  21
TORSDOF 3
