REMARK  Name = ZINC18167553
REMARK  3 active torsions:
REMARK  status: ('A' for Active; 'I' for Inactive)
REMARK    1  A    between atoms: C_6  and  N_7
REMARK    2  A    between atoms: N_10  and  C_13
REMARK    3  A    between atoms: N_22  and  O_23
REMARK                            x       y       z     vdW  Elec       q    Type
REMARK                         _______ _______ _______ _____ _____    ______ ____
ROOT
ATOM      1  N   UNL     1      -1.207  -0.708   0.011  0.00  0.00    -0.327 N 
ATOM      2  C   UNL     1      -1.198  -2.175  -0.087  0.00  0.00    +0.120 C 
ATOM      3  C   UNL     1      -2.053  -2.745   1.050  0.00  0.00    +0.104 C 
ATOM      4  N   UNL     1      -3.385  -2.128   1.012  0.00  0.00    -0.291 NA
ATOM      5  C   UNL     1      -3.310  -0.680   1.245  0.00  0.00    +0.104 C 
ATOM      6  C   UNL     1      -2.506  -0.026   0.122  0.00  0.00    +0.120 C 
ENDROOT
BRANCH   1  12
ATOM      7  C   UNL     1      -0.045   1.408  -0.020  0.00  0.00    +0.027 A 
ATOM      8  C   UNL     1       1.135   2.128  -0.026  0.00  0.00    +0.051 A 
ATOM      9  C   UNL     1       2.352   1.468  -0.008  0.00  0.00    +0.166 A 
ATOM     10  C   UNL     1       2.388   0.076   0.016  0.00  0.00    +0.168 A 
ATOM     11  C   UNL     1       1.206  -0.645   0.023  0.00  0.00    +0.072 A 
ATOM     12  C   UNL     1      -0.013   0.020   0.004  0.00  0.00    +0.033 A 
ATOM     13  O   UNL     1       3.693  -0.327   0.029  0.00  0.00    -0.453 OA
ATOM     14  C   UNL     1       4.453   0.818  -0.400  0.00  0.00    +0.466 C 
ATOM     15  O   UNL     1       3.635   1.938  -0.010  0.00  0.00    -0.453 OA
ENDBRANCH   1  12
BRANCH   4  16
ATOM     16  C   UNL     1      -4.290  -2.770   1.976  0.00  0.00    +0.105 C 
ATOM     17  C   UNL     1      -4.482  -4.250   1.578  0.00  0.00    +0.029 C 
ATOM     18  C   UNL     1      -5.763  -4.806   2.282  0.00  0.00    +0.029 C 
ATOM     19  C   UNL     1      -5.462  -4.435   3.713  0.00  0.00    -0.031 C 
ATOM     20  C   UNL     1      -5.962  -3.419   4.279  0.00  0.00    -0.031 C 
ATOM     21  C   UNL     1      -5.199  -2.663   5.340  0.00  0.00    +0.033 C 
ATOM     22  C   UNL     1      -4.377  -1.741   4.403  0.00  0.00    +0.060 C 
ATOM     23  C   UNL     1      -3.709  -2.635   3.358  0.00  0.00    +0.075 C 
ATOM     24  N   UNL     1      -2.643  -3.276   3.661  0.00  0.00    -0.095 NA
BRANCH  24  25
ATOM     25  O   UNL     1      -2.089  -3.155   4.959  0.00  0.00    -0.409 OA
ATOM     26  H   UNL     1      -1.286  -3.676   5.093  0.00  0.00    +0.328 HD
ENDBRANCH  24  25
ENDBRANCH   4  16
TORSDOF 3
