REMARK  Name = ZINC08920898
REMARK  11 active torsions:
REMARK  status: ('A' for Active; 'I' for Inactive)
REMARK    1  A    between atoms: C_1  and  C_2
REMARK    2  A    between atoms: C_2  and  C_3
REMARK    3  A    between atoms: C_2  and  N_4
REMARK    4  A    between atoms: C_10  and  N_16
REMARK    5  A    between atoms: C_11  and  C_12
REMARK    6  A    between atoms: N_14  and  C_15
REMARK    7  A    between atoms: C_17  and  C_19
REMARK    8  A    between atoms: C_22  and  S_25
REMARK    9  A    between atoms: S_25  and  N_28
REMARK   10  A    between atoms: N_28  and  C_29
REMARK   11  A    between atoms: N_28  and  C_30
REMARK                            x       y       z     vdW  Elec       q    Type
REMARK                         _______ _______ _______ _____ _____    ______ ____
ROOT
ATOM      1  N   UNL     1      -0.011   0.966   0.007  0.00  0.00    -0.275 N 
ATOM      2  C   UNL     1      -1.187   1.624   0.017  0.00  0.00    +0.249 C 
ATOM      3  O   UNL     1      -1.204   2.839   0.023  0.00  0.00    -0.270 OA
ATOM      4  H   UNL     1       0.004  -0.134   0.006  0.00  0.00    +0.156 HD
ENDROOT
BRANCH   1  11
ATOM      5  N   UNL     1       5.441   4.185   0.336  0.00  0.00    +0.384 N 
ATOM      6  C   UNL     1       5.827   3.025  -0.480  0.00  0.00    -0.073 C 
ATOM      7  C   UNL     1       5.041   1.787  -0.041  0.00  0.00    +0.018 C 
ATOM      8  C   UNL     1       3.560   2.147  -0.021  0.00  0.00    -0.027 A 
ATOM      9  C   UNL     1       3.177   3.444  -0.009  0.00  0.00    -0.021 A 
ATOM     10  S   UNL     1       1.409   3.393  -0.001  0.00  0.00    -0.079 S 
ATOM     11  C   UNL     1       1.179   1.675  -0.000  0.00  0.00    +0.085 A 
ATOM     12  C   UNL     1       2.478   1.181  -0.015  0.00  0.00    +0.068 A 
ATOM     13  C   UNL     1       4.081   4.637  -0.009  0.00  0.00    -0.035 C 
ATOM     14  H   UNL     1       5.445   3.873   1.391  0.00  0.00    -0.081 HD
BRANCH  12  15
ATOM     15  C   UNL     1       2.744  -0.261  -0.026  0.00  0.00    +0.246 C 
ATOM     16  O   UNL     1       2.844  -0.853  -1.084  0.00  0.00    -0.270 OA
ATOM     17  N   UNL     1       2.877  -0.929   1.137  0.00  0.00    -0.314 N 
ATOM     18  C   UNL     1       3.143  -2.370   1.126  0.00  0.00    +0.128 C 
ATOM     19  H   UNL     1       2.787  -0.394   2.093  0.00  0.00    +0.149 HD
ENDBRANCH  12  15
BRANCH   5  21
ATOM     20  C   UNL     1       6.431   5.753  -1.263  0.00  0.00    -0.014 C 
ATOM     21  C   UNL     1       6.412   5.277   0.191  0.00  0.00    -0.074 C 
ATOM     22  C   UNL     1       6.013   6.439   1.102  0.00  0.00    -0.014 C 
ENDBRANCH   5  21
ENDBRANCH   1  11
BRANCH   2  23
ATOM     23  C   UNL     1      -2.457   0.868   0.018  0.00  0.00    +0.037 A 
ATOM     24  C   UNL     1      -2.442  -0.528   0.005  0.00  0.00    +0.015 A 
ATOM     25  C   UNL     1      -3.631  -1.228   0.012  0.00  0.00    +0.029 A 
ATOM     26  C   UNL     1      -4.836  -0.550   0.022  0.00  0.00    +0.106 A 
ATOM     27  C   UNL     1      -4.859   0.834   0.030  0.00  0.00    +0.029 A 
ATOM     28  C   UNL     1      -3.677   1.546   0.028  0.00  0.00    +0.015 A 
BRANCH  26  29
ATOM     29  S   UNL     1      -6.350  -1.451   0.024  0.00  0.00    +0.061 S 
ATOM     30  O   UNL     1      -6.059  -2.732   0.567  0.00  0.00    -0.153 OA
ATOM     31  O   UNL     1      -7.334  -0.592   0.585  0.00  0.00    -0.153 OA
BRANCH  29  32
ATOM     32  N   UNL     1      -6.778  -1.693  -1.557  0.00  0.00    -0.177 NA
ATOM     33  C   UNL     1      -6.319  -2.890  -2.265  0.00  0.00    +0.132 C 
BRANCH  32  34
ATOM     34  C   UNL     1      -7.617  -0.710  -2.247  0.00  0.00    +0.080 C 
ATOM     35  C   UNL     1      -8.909  -1.382  -2.716  0.00  0.00    +0.020 C 
ATOM     36  C   UNL     1      -9.785  -0.355  -3.437  0.00  0.00    +0.002 C 
ATOM     37  C   UNL     1      -9.031   0.199  -4.647  0.00  0.00    +0.000 C 
ATOM     38  C   UNL     1      -7.738   0.870  -4.179  0.00  0.00    +0.002 C 
ATOM     39  C   UNL     1      -6.862  -0.157  -3.458  0.00  0.00    +0.020 C 
ENDBRANCH  32  34
ENDBRANCH  29  32
ENDBRANCH  26  29
ENDBRANCH   2  23
TORSDOF 7
