REMARK  Name = ZINC08826026
REMARK  5 active torsions:
REMARK  status: ('A' for Active; 'I' for Inactive)
REMARK    1  A    between atoms: C_5  and  C_7
REMARK    2  A    between atoms: C_10  and  C_12
REMARK    3  A    between atoms: N_13  and  N_14
REMARK    4  A    between atoms: C_15  and  C_17
REMARK    5  A    between atoms: C_17  and  C_18
REMARK                            x       y       z     vdW  Elec       q    Type
REMARK                         _______ _______ _______ _____ _____    ______ ____
ROOT
ATOM      1  C   UNL     1       1.101   2.063   0.003  0.00  0.00    +0.176 C 
ATOM      2  N   UNL     1      -0.017   1.397   0.010  0.00  0.00    -0.185 NA
ENDROOT
BRANCH   1   6
ATOM      3  C   UNL     1       0.346   5.599   0.029  0.00  0.00    +0.137 A 
ATOM      4  C   UNL     1       1.707   5.668   0.016  0.00  0.00    +0.050 A 
ATOM      5  C   UNL     1       2.186   4.351   0.010  0.00  0.00    +0.051 A 
ATOM      6  C   UNL     1       1.082   3.527   0.011  0.00  0.00    +0.148 A 
ATOM      7  O   UNL     1      -0.021   4.304   0.026  0.00  0.00    -0.454 OA
BRANCH   3  12
ATOM      8  C   UNL     1      -2.483   7.906  -0.848  0.00  0.00    +0.001 A 
ATOM      9  C   UNL     1      -2.300   8.921   0.075  0.00  0.00    +0.001 A 
ATOM     10  C   UNL     1      -1.258   8.858   0.984  0.00  0.00    +0.016 A 
ATOM     11  C   UNL     1      -0.398   7.779   0.979  0.00  0.00    +0.029 A 
ATOM     12  C   UNL     1      -0.574   6.754   0.045  0.00  0.00    +0.031 A 
ATOM     13  C   UNL     1      -1.628   6.824  -0.869  0.00  0.00    +0.012 A 
ATOM     14 BR   UNL     1       1.020   7.691   2.227  0.00  0.00    -0.050 Br
ENDBRANCH   3  12
ENDBRANCH   1   6
BRANCH   2  15
ATOM     15  N   UNL     1       0.002  -0.004   0.002  0.00  0.00    -0.207 N 
ATOM     16  C   UNL     1      -1.156  -0.694   0.009  0.00  0.00    +0.238 C 
ATOM     17  O   UNL     1      -2.215  -0.102   0.023  0.00  0.00    -0.274 OA
ATOM     18  H   UNL     1       0.849  -0.478  -0.009  0.00  0.00    +0.177 HD
BRANCH  16  19
ATOM     19  C   UNL     1      -1.135  -2.201   0.001  0.00  0.00    +0.154 C 
BRANCH  19  20
ATOM     20  C   UNL     1      -2.549  -2.722   0.012  0.00  0.00    +0.069 A 
ATOM     21  C   UNL     1      -3.080  -3.571  -0.883  0.00  0.00    +0.117 A 
ATOM     22  N   UNL     1      -4.403  -3.803  -0.515  0.00  0.00    -0.300 N 
ATOM     23  C   UNL     1      -5.481  -4.535  -0.961  0.00  0.00    +0.100 A 
ATOM     24  C   UNL     1      -6.646  -4.496  -0.315  0.00  0.00    +0.067 A 
ATOM     25  S   UNL     1      -6.286  -3.375   1.028  0.00  0.00    -0.058 S 
ATOM     26  C   UNL     1      -4.590  -3.046   0.611  0.00  0.00    +0.178 A 
ATOM     27  N   UNL     1      -3.493  -2.413   0.914  0.00  0.00    -0.226 NA
ENDBRANCH  19  20
ENDBRANCH  16  19
ENDBRANCH   2  15
TORSDOF 5
