REMARK  Name = ZINC63506623
REMARK  2 active torsions:
REMARK  status: ('A' for Active; 'I' for Inactive)
REMARK    1  A    between atoms: C_6  and  C_11
REMARK    2  A    between atoms: N_13  and  C_14
REMARK                            x       y       z     vdW  Elec       q    Type
REMARK                         _______ _______ _______ _____ _____    ______ ____
ROOT
ATOM      1  C   UNL     1       3.739  -4.743   2.549  0.00  0.00    +0.034 A 
ATOM      2  C   UNL     1       4.428  -4.066   3.551  0.00  0.00    +0.025 A 
ATOM      3  C   UNL     1       4.796  -4.718   4.712  0.00  0.00    +0.025 A 
ATOM      4  C   UNL     1       4.483  -6.057   4.879  0.00  0.00    +0.041 A 
ATOM      5  C   UNL     1       3.803  -6.749   3.862  0.00  0.00    +0.060 A 
ATOM      6  C   UNL     1       3.419  -6.082   2.702  0.00  0.00    +0.038 A 
ATOM      7  C   UNL     1       3.537  -8.187   4.053  0.00  0.00    +0.250 C 
ATOM      8  O   UNL     1       2.709  -8.758   3.370  0.00  0.00    -0.270 OA
ATOM      9  N   UNL     1       4.224  -8.857   4.993  0.00  0.00    -0.279 N 
ATOM     10  C   UNL     1       4.277 -10.331   4.961  0.00  0.00    +0.110 C 
ATOM     11  C   UNL     1       5.752 -10.731   4.811  0.00  0.00    +0.019 C 
ATOM     12  C   UNL     1       6.576 -10.102   5.935  0.00  0.00    +0.005 C 
ATOM     13  C   UNL     1       6.466  -8.574   5.884  0.00  0.00    +0.042 C 
ATOM     14  C   UNL     1       4.996  -8.185   6.038  0.00  0.00    +0.161 C 
ATOM     15  N   UNL     1       4.810  -6.744   6.041  0.00  0.00    -0.325 N 
ATOM     16  H   UNL     1       4.917  -6.253   6.871  0.00  0.00    +0.148 HD
ENDROOT
BRANCH   1  19
ATOM     17  C   UNL     1       3.329  -4.719   0.203  0.00  0.00    +0.244 C 
ATOM     18  O   UNL     1       3.714  -5.867   0.136  0.00  0.00    -0.273 OA
ATOM     19  N   UNL     1       3.363  -4.065   1.381  0.00  0.00    -0.284 N 
ATOM     20  H   UNL     1       3.128  -3.124   1.421  0.00  0.00    +0.155 HD
BRANCH  17  26
ATOM     21  C   UNL     1       5.412  -2.884  -4.702  0.00  0.00    +0.001 A 
ATOM     22  C   UNL     1       4.897  -4.116  -5.130  0.00  0.00    +0.002 A 
ATOM     23  C   UNL     1       4.059  -4.857  -4.375  0.00  0.00    +0.026 A 
ATOM     24  C   UNL     1       3.659  -4.403  -3.088  0.00  0.00    +0.043 A 
ATOM     25  N   UNL     1       2.871  -4.930  -2.183  0.00  0.00    -0.370 N 
ATOM     26  C   UNL     1       2.812  -4.024  -1.030  0.00  0.00    +0.190 C 
ATOM     27  C   UNL     1       3.699  -2.850  -1.379  0.00  0.00    +0.016 C 
ATOM     28  C   UNL     1       4.190  -3.106  -2.613  0.00  0.00    -0.004 A 
ATOM     29  C   UNL     1       5.097  -2.362  -3.496  0.00  0.00    +0.010 A 
ATOM     30  H   UNL     1       2.404  -5.776  -2.262  0.00  0.00    +0.161 HD
ENDBRANCH  17  26
ENDBRANCH   1  19
TORSDOF 2
