REMARK  Name = ZINC20134459
REMARK  8 active torsions:
REMARK  status: ('A' for Active; 'I' for Inactive)
REMARK    1  A    between atoms: C_1  and  C_2
REMARK    2  A    between atoms: C_2  and  C_3
REMARK    3  A    between atoms: C_2  and  C_4
REMARK    4  A    between atoms: C_11  and  S_24
REMARK    5  A    between atoms: C_20  and  C_22
REMARK    6  A    between atoms: C_20  and  C_23
REMARK    7  A    between atoms: S_24  and  C_25
REMARK    8  A    between atoms: C_25  and  C_26
REMARK                            x       y       z     vdW  Elec       q    Type
REMARK                         _______ _______ _______ _____ _____    ______ ____
ROOT
ATOM      1  C   UNL     1      -2.504   1.049   0.065  0.00  0.00    +0.065 C 
ATOM      2  C   UNL     1      -3.705   1.848  -0.345  0.00  0.00    +0.065 A 
ATOM      3  C   UNL     1      -4.887   1.203  -0.727  0.00  0.00    +0.258 A 
ATOM      4  O   UNL     1      -4.955  -0.016  -0.738  0.00  0.00    -0.267 OA
ATOM      5  N   UNL     1      -5.951   1.955  -1.082  0.00  0.00    -0.302 N 
ATOM      6  H   UNL     1      -6.890   1.469  -1.387  0.00  0.00    +0.171 HD
ATOM      7  C   UNL     1      -5.865   3.314  -1.063  0.00  0.00    +0.171 A 
ATOM      8  N   UNL     1      -4.754   3.926  -0.706  0.00  0.00    -0.208 NA
ATOM      9  C   UNL     1      -3.668   3.231  -0.348  0.00  0.00    +0.134 A 
ATOM     10  N   UNL     1      -2.509   3.885   0.020  0.00  0.00    -0.302 N 
ATOM     11  C   UNL     1      -1.306   3.232   0.006  0.00  0.00    +0.017 C 
ATOM     12  C   UNL     1      -1.250   1.883   0.018  0.00  0.00    +0.020 C 
ATOM     13  C   UNL     1      -0.014   1.211   0.009  0.00  0.00    +0.162 C 
ATOM     14  O   UNL     1       0.002  -0.004   0.002  0.00  0.00    -0.292 OA
ATOM     15  C   UNL     1       1.286   1.966   0.000  0.00  0.00    +0.086 C 
ATOM     16  C   UNL     1       1.081   3.320   0.688  0.00  0.00    -0.023 C 
ATOM     17  C   UNL     1      -0.046   4.062  -0.034  0.00  0.00    +0.058 C 
ATOM     18  C   UNL     1       0.698   3.101   2.153  0.00  0.00    +0.011 C 
ATOM     19  C   UNL     1       2.370   4.139   0.609  0.00  0.00    +0.011 C 
ATOM     20  H   UNL     1      -2.546   4.941   0.327  0.00  0.00    +0.153 HD
ENDROOT
BRANCH   1  22
ATOM     21  C   UNL     1      -3.958  -0.358   1.531  0.00  0.00    +0.008 C 
ATOM     22  C   UNL     1      -2.712   0.528   1.489  0.00  0.00    -0.005 C 
ATOM     23  C   UNL     1      -1.491  -0.288   1.917  0.00  0.00    +0.008 C 
ENDBRANCH   1  22
BRANCH   7  24
ATOM     24  S   UNL     1      -7.268   4.274  -1.526  0.00  0.00    -0.083 S 
BRANCH  24  25
ATOM     25  C   UNL     1      -6.592   5.940  -1.317  0.00  0.00    +0.112 C 
BRANCH  25  26
ATOM     26  C   UNL     1      -7.646   6.958  -1.667  0.00  0.00    -0.037 A 
ATOM     27  C   UNL     1      -7.756   7.421  -2.965  0.00  0.00    +0.006 A 
ATOM     28  C   UNL     1      -8.727   8.351  -3.287  0.00  0.00    +0.020 A 
ATOM     29  C   UNL     1      -9.582   8.825  -2.309  0.00  0.00    +0.041 A 
ATOM     30  C   UNL     1      -9.468   8.365  -1.009  0.00  0.00    +0.020 A 
ATOM     31  C   UNL     1      -8.501   7.432  -0.689  0.00  0.00    +0.006 A 
ATOM     32 CL   UNL     1     -10.797   9.998  -2.712  0.00  0.00    -0.084 Cl
ENDBRANCH  25  26
ENDBRANCH  24  25
ENDBRANCH   7  24
TORSDOF 4
