REMARK  Name = ZINC13640364
REMARK  8 active torsions:
REMARK  status: ('A' for Active; 'I' for Inactive)
REMARK    1  A    between atoms: C_1  and  C_2
REMARK    2  A    between atoms: C_2  and  C_3
REMARK    3  A    between atoms: C_3  and  C_5
REMARK    4  A    between atoms: C_3  and  N_6
REMARK    5  A    between atoms: C_7  and  C_9
REMARK    6  A    between atoms: C_16  and  C_25
REMARK    7  A    between atoms: C_28  and  O_32
REMARK    8  A    between atoms: C_30  and  O_31
REMARK                            x       y       z     vdW  Elec       q    Type
REMARK                         _______ _______ _______ _____ _____    ______ ____
ROOT
ATOM      1  C   UNL     1      -3.682   2.870   3.615  0.00  0.00    +0.058 A 
ATOM      2  C   UNL     1      -4.847   3.432   3.095  0.00  0.00    +0.015 A 
ATOM      3  C   UNL     1      -5.146   3.287   1.758  0.00  0.00    +0.001 A 
ATOM      4  C   UNL     1      -4.290   2.576   0.933  0.00  0.00    +0.006 A 
ATOM      5  C   UNL     1      -3.124   2.022   1.432  0.00  0.00    -0.019 A 
ATOM      6  C   UNL     1      -2.801   2.151   2.780  0.00  0.00    +0.044 A 
ATOM      7  N   UNL     1      -1.654   1.633   3.356  0.00  0.00    -0.336 N 
ATOM      8  C   UNL     1      -0.785   0.818   2.491  0.00  0.00    +0.108 C 
ATOM      9  C   UNL     1      -0.779   1.471   1.125  0.00  0.00    +0.029 C 
ATOM     10  C   UNL     1      -2.219   1.233   0.568  0.00  0.00    +0.049 C 
ATOM     11  C   UNL     1      -2.065   1.498  -0.883  0.00  0.00    -0.023 C 
ATOM     12  C   UNL     1      -0.814   1.218  -1.234  0.00  0.00    -0.030 C 
ATOM     13  C   UNL     1      -0.017   0.771  -0.005  0.00  0.00    +0.033 C 
ATOM     14  H   UNL     1      -1.125   2.355   3.821  0.00  0.00    +0.147 HD
ENDROOT
BRANCH   8  15
ATOM     15  C   UNL     1       0.614   0.783   3.051  0.00  0.00    +0.015 A 
ATOM     16  C   UNL     1       1.593   1.596   2.512  0.00  0.00    +0.012 A 
ATOM     17  C   UNL     1       2.875   1.571   3.026  0.00  0.00    +0.046 A 
ATOM     18  C   UNL     1       3.185   0.721   4.078  0.00  0.00    +0.120 A 
ATOM     19  C   UNL     1       2.206  -0.099   4.617  0.00  0.00    +0.091 A 
ATOM     20  C   UNL     1       0.919  -0.068   4.103  0.00  0.00    +0.125 A 
BRANCH  20  21
ATOM     21  O   UNL     1      -0.043  -0.871   4.629  0.00  0.00    -0.506 OA
ATOM     22  H   UNL     1      -0.056  -1.764   4.258  0.00  0.00    +0.292 HD
ENDBRANCH  20  21
BRANCH  18  23
ATOM     23  O   UNL     1       4.448   0.693   4.580  0.00  0.00    -0.507 OA
ATOM     24  H   UNL     1       5.028   0.050   4.149  0.00  0.00    +0.292 HD
ENDBRANCH  18  23
ENDBRANCH   8  15
BRANCH   1  26
ATOM     25  N   UNL     1      -4.205   3.718   5.847  0.00  0.00    -0.309 N 
ATOM     26  C   UNL     1      -3.367   3.031   5.046  0.00  0.00    +0.246 C 
ATOM     27  O   UNL     1      -2.352   2.543   5.504  0.00  0.00    -0.270 OA
ATOM     28  H   UNL     1      -5.015   4.107   5.482  0.00  0.00    +0.149 HD
BRANCH  25  29
ATOM     29  C   UNL     1      -3.893   3.877   7.270  0.00  0.00    +0.070 C 
ATOM     30  C   UNL     1      -4.392   2.654   8.042  0.00  0.00    +0.028 C 
BRANCH  29  32
ATOM     31  C   UNL     1      -3.991   6.369   7.121  0.00  0.00    +0.005 C 
ATOM     32  C   UNL     1      -4.581   5.134   7.806  0.00  0.00    +0.018 C 
ENDBRANCH  29  32
ENDBRANCH  25  29
ENDBRANCH   1  26
TORSDOF 6
