REMARK  Name = ZINC06134154
REMARK  12 active torsions:
REMARK  status: ('A' for Active; 'I' for Inactive)
REMARK    1  A    between atoms: C_1  and  C_2
REMARK    2  A    between atoms: C_2  and  C_3
REMARK    3  A    between atoms: C_2  and  C_4
REMARK    4  A    between atoms: C_4  and  C_5
REMARK    5  A    between atoms: C_5  and  N_6
REMARK    6  A    between atoms: C_7  and  C_9
REMARK    7  A    between atoms: C_9  and  C_11
REMARK    8  A    between atoms: C_9  and  N_18
REMARK    9  A    between atoms: N_18  and  C_19
REMARK   10  A    between atoms: C_26  and  C_28
REMARK   11  A    between atoms: C_29  and  N_36
REMARK   12  A    between atoms: C_30  and  C_33
REMARK                            x       y       z     vdW  Elec       q    Type
REMARK                         _______ _______ _______ _____ _____    ______ ____
ROOT
ATOM      1  N   UNL     1      -6.647   1.497   0.606  0.00  0.00    -0.248 N 
ATOM      2  C   UNL     1      -5.935   0.670  -0.186  0.00  0.00    +0.262 C 
ATOM      3  O   UNL     1      -6.186   0.600  -1.375  0.00  0.00    -0.269 OA
ENDROOT
BRANCH   1   4
ATOM      4  C   UNL     1      -6.358   1.578   1.973  0.00  0.00    +0.073 A 
ATOM      5  C   UNL     1      -5.414   2.486   2.432  0.00  0.00    +0.026 A 
ATOM      6  C   UNL     1      -5.131   2.563   3.782  0.00  0.00    +0.002 A 
ATOM      7  C   UNL     1      -5.787   1.738   4.677  0.00  0.00    +0.003 A 
ATOM      8  C   UNL     1      -6.728   0.832   4.224  0.00  0.00    +0.040 A 
ATOM      9  C   UNL     1      -7.021   0.752   2.875  0.00  0.00    +0.145 A 
ATOM     10  F   UNL     1      -7.944  -0.129   2.434  0.00  0.00    -0.204 F 
ENDBRANCH   1   4
BRANCH   2  11
ATOM     11  C   UNL     1      -4.859  -0.143   0.385  0.00  0.00    +0.116 A 
ATOM     12  C   UNL     1      -4.004  -1.049  -0.247  0.00  0.00    +0.076 A 
ATOM     13  C   UNL     1      -3.102  -1.637   0.639  0.00  0.00    +0.155 A 
ATOM     14  N   UNL     1      -3.132  -1.298   1.909  0.00  0.00    -0.203 NA
ATOM     15  S   UNL     1      -4.285  -0.236   2.068  0.00  0.00    +0.019 S 
BRANCH  13  16
ATOM     16  C   UNL     1      -2.120  -2.626   0.155  0.00  0.00    +0.262 C 
ATOM     17  O   UNL     1      -2.098  -2.935  -1.021  0.00  0.00    -0.269 OA
ATOM     18  N   UNL     1      -1.244  -3.182   1.015  0.00  0.00    -0.324 N 
ATOM     19  H   UNL     1      -0.596  -3.829   0.696  0.00  0.00    +0.145 HD
ATOM     20  H   UNL     1      -1.262  -2.935   1.953  0.00  0.00    +0.145 HD
ENDBRANCH  13  16
BRANCH  12  21
ATOM     21  N   UNL     1      -4.050  -1.335  -1.605  0.00  0.00    -0.355 N 
ATOM     22  H   UNL     1      -3.432  -1.977  -1.986  0.00  0.00    +0.142 HD
ATOM     23  H   UNL     1      -4.701  -0.892  -2.172  0.00  0.00    +0.142 HD
ENDBRANCH  12  21
ENDBRANCH   2  11
BRANCH   1  24
ATOM     24  C   UNL     1      -7.723   2.310   0.035  0.00  0.00    +0.198 C 
BRANCH  24  25
ATOM     25  C   UNL     1      -7.159   3.212  -1.033  0.00  0.00    -0.018 A 
ATOM     26  C   UNL     1      -6.008   3.938  -0.787  0.00  0.00    +0.007 A 
ATOM     27  C   UNL     1      -5.487   4.761  -1.768  0.00  0.00    +0.020 A 
ATOM     28  C   UNL     1      -6.124   4.867  -2.991  0.00  0.00    +0.041 A 
ATOM     29  C   UNL     1      -7.279   4.145  -3.235  0.00  0.00    +0.020 A 
ATOM     30  C   UNL     1      -7.796   3.318  -2.255  0.00  0.00    +0.007 A 
ATOM     31 CL   UNL     1      -5.474   5.905  -4.221  0.00  0.00    -0.084 Cl
ENDBRANCH  24  25
BRANCH  24  33
ATOM     32  N   UNL     1      -9.688   3.297   1.168  0.00  0.00    -0.313 N 
ATOM     33  C   UNL     1      -8.350   3.147   1.120  0.00  0.00    +0.238 C 
ATOM     34  O   UNL     1      -7.649   3.687   1.950  0.00  0.00    -0.273 OA
ATOM     35  H   UNL     1     -10.248   2.865   0.504  0.00  0.00    +0.149 HD
BRANCH  32  36
ATOM     36  C   UNL     1     -10.297   4.110   2.223  0.00  0.00    +0.104 C 
BRANCH  36  37
ATOM     37  C   UNL     1     -11.818   4.116   2.049  0.00  0.00    +0.022 C 
BRANCH  37  39
ATOM     38  C   UNL     1     -13.960   5.073   2.906  0.00  0.00    +0.007 C 
ATOM     39  C   UNL     1     -12.454   4.965   3.151  0.00  0.00    -0.016 C 
ATOM     40  C   UNL     1     -12.204   4.309   4.510  0.00  0.00    +0.007 C 
ENDBRANCH  37  39
ENDBRANCH  36  37
ENDBRANCH  32  36
ENDBRANCH  24  33
ENDBRANCH   1  24
TORSDOF 10
