REMARK  Name = ZINC09870735
REMARK  5 active torsions:
REMARK  status: ('A' for Active; 'I' for Inactive)
REMARK    1  A    between atoms: C_1  and  C_2
REMARK    2  A    between atoms: C_2  and  C_4
REMARK    3  A    between atoms: C_2  and  S_16
REMARK    4  A    between atoms: S_16  and  C_17
REMARK    5  A    between atoms: N_21  and  C_22
REMARK                            x       y       z     vdW  Elec       q    Type
REMARK                         _______ _______ _______ _____ _____    ______ ____
ROOT
ATOM      1  C   UNL     1       1.490  -6.514  -1.052  0.00  0.00    +0.198 A 
ATOM      2  N   UNL     1       0.558  -7.230  -0.472  0.00  0.00    -0.120 NA
ATOM      3  N   UNL     1       0.817  -8.580  -0.741  0.00  0.00    -0.112 NA
ATOM      4  C   UNL     1       1.899  -8.647  -1.477  0.00  0.00    +0.225 A 
ATOM      5  N   UNL     1       2.343  -7.371  -1.694  0.00  0.00    -0.258 N 
ATOM      6  N   UNL     1       2.489  -9.810  -1.958  0.00  0.00    -0.299 N 
ATOM      7  C   UNL     1       3.857  -9.979  -1.407  0.00  0.00    +0.108 C 
ATOM      8  C   UNL     1       4.131 -11.492  -1.596  0.00  0.00    +0.020 C 
ATOM      9  C   UNL     1       2.755 -12.132  -1.301  0.00  0.00    +0.020 C 
ATOM     10  C   UNL     1       1.730 -11.005  -1.529  0.00  0.00    +0.108 C 
ENDROOT
BRANCH   5  11
ATOM     11  C   UNL     1       3.473  -7.006  -2.441  0.00  0.00    +0.053 A 
ATOM     12  C   UNL     1       4.553  -6.399  -1.815  0.00  0.00    +0.026 A 
ATOM     13  C   UNL     1       5.665  -6.041  -2.552  0.00  0.00    +0.003 A 
ATOM     14  C   UNL     1       5.703  -6.286  -3.912  0.00  0.00    +0.020 A 
ATOM     15  C   UNL     1       4.628  -6.891  -4.539  0.00  0.00    +0.043 A 
ATOM     16  C   UNL     1       3.515  -7.257  -3.805  0.00  0.00    +0.046 A 
ATOM     17 CL   UNL     1       4.680  -7.197  -6.247  0.00  0.00    -0.083 Cl
ENDBRANCH   5  11
BRANCH   1  18
ATOM     18  S   UNL     1       1.619  -4.757  -1.018  0.00  0.00    -0.075 S 
BRANCH  18  20
ATOM     19  C   UNL     1       0.365  -4.742   1.413  0.00  0.00    +0.027 C 
ATOM     20  C   UNL     1       0.198  -4.232  -0.020  0.00  0.00    +0.117 C 
BRANCH  20  21
ATOM     21  C   UNL     1       0.119  -2.727  -0.012  0.00  0.00    +0.124 A 
ATOM     22  N   UNL     1      -1.110  -2.147   0.003  0.00  0.00    -0.309 N 
ATOM     23  H   UNL     1      -1.904  -2.703   0.009  0.00  0.00    +0.170 HD
ATOM     24  C   UNL     1      -1.235  -0.799   0.011  0.00  0.00    +0.259 A 
ATOM     25  O   UNL     1      -2.329  -0.266   0.024  0.00  0.00    -0.267 OA
ATOM     26  C   UNL     1       0.002  -0.004   0.002  0.00  0.00    +0.065 A 
ATOM     27  C   UNL     1      -0.017   1.389   0.010  0.00  0.00    +0.015 A 
ATOM     28  C   UNL     1       1.173   2.084   0.002  0.00  0.00    +0.001 A 
ATOM     29  C   UNL     1       2.386   1.408  -0.014  0.00  0.00    +0.002 A 
ATOM     30  C   UNL     1       2.426   0.032  -0.021  0.00  0.00    +0.028 A 
ATOM     31  C   UNL     1       1.234  -0.695  -0.013  0.00  0.00    +0.078 A 
ATOM     32  N   UNL     1       1.227  -2.051  -0.020  0.00  0.00    -0.233 NA
ENDBRANCH  20  21
ENDBRANCH  18  20
ENDBRANCH   1  18
TORSDOF 4
