REMARK  Name = ZINC22017181
REMARK  4 active torsions:
REMARK  status: ('A' for Active; 'I' for Inactive)
REMARK    1  A    between atoms: C_6  and  N_7
REMARK    2  A    between atoms: N_20  and  N_21
REMARK    3  A    between atoms: C_22  and  C_23
REMARK    4  A    between atoms: C_28  and  O_29
REMARK                            x       y       z     vdW  Elec       q    Type
REMARK                         _______ _______ _______ _____ _____    ______ ____
ROOT
ATOM      1  N   UNL     1      -1.145  -0.645  -0.298  0.00  0.00    -0.283 N 
ATOM      2  C   UNL     1      -1.116  -1.998  -0.578  0.00  0.00    +0.225 A 
ATOM      3  N   UNL     1       0.029  -2.669  -0.495  0.00  0.00    -0.179 NA
ATOM      4  C   UNL     1       0.057  -3.970  -0.765  0.00  0.00    +0.241 A 
ATOM      5  N   UNL     1      -1.060  -4.601  -1.118  0.00  0.00    -0.180 NA
ATOM      6  C   UNL     1      -2.204  -3.929  -1.200  0.00  0.00    +0.224 A 
ATOM      7  N   UNL     1      -2.233  -2.629  -0.926  0.00  0.00    -0.181 NA
ATOM      8  N   UNL     1      -3.363  -4.584  -1.567  0.00  0.00    -0.295 N 
ATOM      9  C   UNL     1      -4.640  -3.860  -1.671  0.00  0.00    +0.136 C 
ATOM     10  C   UNL     1      -5.268  -4.183  -3.031  0.00  0.00    +0.179 C 
ATOM     11  O   UNL     1      -5.326  -5.601  -3.199  0.00  0.00    -0.377 OA
ATOM     12  C   UNL     1      -4.048  -6.241  -3.216  0.00  0.00    +0.179 C 
ATOM     13  C   UNL     1      -3.356  -6.023  -1.870  0.00  0.00    +0.136 C 
ATOM     14  N   UNL     1       1.246  -4.668  -0.680  0.00  0.00    -0.205 N 
ATOM     15  H   UNL     1      -1.988  -0.165  -0.314  0.00  0.00    +0.155 HD
ATOM     16  H   UNL     1       2.075  -4.194  -0.510  0.00  0.00    +0.177 HD
ENDROOT
BRANCH   1  22
ATOM     17  C   UNL     1       0.203   1.357  -0.371  0.00  0.00    +0.025 A 
ATOM     18  C   UNL     1       1.374   2.023  -0.067  0.00  0.00    +0.022 A 
ATOM     19  C   UNL     1       2.384   1.371   0.618  0.00  0.00    +0.041 A 
ATOM     20  C   UNL     1       2.224   0.050   0.998  0.00  0.00    +0.022 A 
ATOM     21  C   UNL     1       1.056  -0.621   0.696  0.00  0.00    +0.025 A 
ATOM     22  C   UNL     1       0.040   0.032   0.009  0.00  0.00    +0.034 A 
ATOM     23 CL   UNL     1       3.855   2.210   0.999  0.00  0.00    -0.084 Cl
ENDBRANCH   1  22
BRANCH  14  24
ATOM     24  N   UNL     1       1.255  -6.059  -0.838  0.00  0.00    -0.187 NA
ATOM     25  C   UNL     1       2.379  -6.708  -0.818  0.00  0.00    +0.142 C 
BRANCH  25  26
ATOM     26  C   UNL     1       2.391  -8.168  -1.021  0.00  0.00    +0.037 A 
ATOM     27  C   UNL     1       3.601  -8.865  -1.027  0.00  0.00    +0.028 A 
ATOM     28  C   UNL     1       3.606 -10.232  -1.217  0.00  0.00    +0.019 A 
ATOM     29  C   UNL     1       2.415 -10.915  -1.401  0.00  0.00    +0.019 A 
ATOM     30  C   UNL     1       1.212 -10.235  -1.397  0.00  0.00    +0.047 A 
ATOM     31  C   UNL     1       1.189  -8.864  -1.202  0.00  0.00    +0.126 A 
ATOM     32 BR   UNL     1       5.244 -11.176  -1.226  0.00  0.00    -0.050 Br
BRANCH  31  33
ATOM     33  O   UNL     1       0.006  -8.196  -1.192  0.00  0.00    -0.506 OA
ATOM     34  H   UNL     1      -0.266  -7.865  -2.059  0.00  0.00    +0.292 HD
ENDBRANCH  31  33
ENDBRANCH  25  26
ENDBRANCH  14  24
TORSDOF 4
