REMARK  Name = ZINC20242243
REMARK  7 active torsions:
REMARK  status: ('A' for Active; 'I' for Inactive)
REMARK    1  A    between atoms: C_1  and  C_2
REMARK    2  A    between atoms: C_2  and  C_3
REMARK    3  A    between atoms: C_3  and  C_5
REMARK    4  A    between atoms: C_3  and  N_6
REMARK    5  A    between atoms: C_7  and  C_9
REMARK    6  A    between atoms: N_15  and  C_26
REMARK    7  A    between atoms: C_26  and  C_27
REMARK                            x       y       z     vdW  Elec       q    Type
REMARK                         _______ _______ _______ _____ _____    ______ ____
ROOT
ATOM      1  C   UNL     1       1.011   1.607   0.525  0.00  0.00    +0.039 A 
ATOM      2  C   UNL     1       0.851   2.989   0.639  0.00  0.00    +0.014 A 
ATOM      3  C   UNL     1       1.955   3.812   0.558  0.00  0.00    +0.020 A 
ATOM      4  C   UNL     1       3.217   3.277   0.365  0.00  0.00    +0.065 A 
ATOM      5  C   UNL     1       3.393   1.907   0.253  0.00  0.00    +0.054 A 
ATOM      6  C   UNL     1       2.281   1.070   0.338  0.00  0.00    +0.037 A 
ATOM      7  N   UNL     1       4.637   1.333   0.065  0.00  0.00    -0.262 N 
ATOM      8  C   UNL     1       5.612   1.660  -0.740  0.00  0.00    +0.252 C 
ATOM      9  O   UNL     1       6.591   0.940  -0.698  0.00  0.00    -0.270 OA
ATOM     10  C   UNL     1       5.689   2.775  -1.686  0.00  0.00    +0.053 A 
ATOM     11  C   UNL     1       6.212   2.553  -2.967  0.00  0.00    +0.014 A 
ATOM     12  C   UNL     1       6.290   3.588  -3.873  0.00  0.00    +0.001 A 
ATOM     13  C   UNL     1       5.851   4.853  -3.524  0.00  0.00    +0.001 A 
ATOM     14  C   UNL     1       5.333   5.083  -2.262  0.00  0.00    +0.018 A 
ATOM     15  C   UNL     1       5.253   4.054  -1.347  0.00  0.00    +0.056 A 
ATOM     16  S   UNL     1       4.603   4.362   0.262  0.00  0.00    +0.088 S 
ATOM     17  O   UNL     1       5.560   3.782   1.137  0.00  0.00    -0.247 OA
ENDROOT
BRANCH   1  19
ATOM     18  N   UNL     1      -1.395   1.237   0.790  0.00  0.00    -0.309 N 
ATOM     19  C   UNL     1      -0.166   0.716   0.609  0.00  0.00    +0.244 C 
ATOM     20  O   UNL     1      -0.025  -0.488   0.509  0.00  0.00    -0.270 OA
ATOM     21  H   UNL     1      -1.523   2.326   0.880  0.00  0.00    +0.149 HD
BRANCH  18  22
ATOM     22  C   UNL     1      -2.562   0.354   0.868  0.00  0.00    +0.070 C 
ATOM     23  C   UNL     1      -3.062   0.045  -0.545  0.00  0.00    +0.028 C 
BRANCH  22  25
ATOM     24  C   UNL     1      -3.217   1.242   3.109  0.00  0.00    +0.005 C 
ATOM     25  C   UNL     1      -3.672   1.045   1.662  0.00  0.00    +0.018 C 
ENDBRANCH  22  25
ENDBRANCH  18  22
ENDBRANCH   1  19
BRANCH   7  26
ATOM     26  C   UNL     1       4.905   0.165   0.909  0.00  0.00    +0.149 C 
BRANCH  26  27
ATOM     27  C   UNL     1       5.560   0.611   2.191  0.00  0.00    -0.030 A 
ATOM     28  C   UNL     1       6.937   0.588   2.307  0.00  0.00    +0.006 A 
ATOM     29  C   UNL     1       7.539   1.003   3.481  0.00  0.00    +0.020 A 
ATOM     30  C   UNL     1       6.762   1.430   4.542  0.00  0.00    +0.041 A 
ATOM     31  C   UNL     1       5.383   1.448   4.427  0.00  0.00    +0.020 A 
ATOM     32  C   UNL     1       4.783   1.038   3.251  0.00  0.00    +0.006 A 
ATOM     33 CL   UNL     1       7.516   1.944   6.019  0.00  0.00    -0.084 Cl
ENDBRANCH  26  27
ENDBRANCH   7  26
TORSDOF 5
