REMARK  Name = ZINC42958952
REMARK  5 active torsions:
REMARK  status: ('A' for Active; 'I' for Inactive)
REMARK    1  A    between atoms: C_6  and  C_7
REMARK    2  A    between atoms: C_7  and  C_9
REMARK    3  A    between atoms: C_7  and  S_11
REMARK    4  A    between atoms: C_9  and  N_10
REMARK    5  A    between atoms: S_11  and  C_12
REMARK                            x       y       z     vdW  Elec       q    Type
REMARK                         _______ _______ _______ _____ _____    ______ ____
ROOT
ATOM      1  C   UNL     1      -1.276  -0.705  -0.123  0.00  0.00    +0.067 C 
ENDROOT
BRANCH   1   7
ATOM      2  C   UNL     1      -0.667   1.720  -0.015  0.00  0.00    +0.006 A 
ATOM      3  C   UNL     1       0.265   2.733   0.110  0.00  0.00    +0.015 A 
ATOM      4  C   UNL     1       1.604   2.426   0.265  0.00  0.00    +0.018 A 
ATOM      5  C   UNL     1       2.011   1.104   0.294  0.00  0.00    +0.015 A 
ATOM      6  C   UNL     1       1.079   0.091   0.169  0.00  0.00    +0.006 A 
ATOM      7  C   UNL     1      -0.260   0.399   0.014  0.00  0.00    -0.036 A 
ATOM      8 BR   UNL     1       2.879   3.812   0.436  0.00  0.00    -0.050 Br
ENDBRANCH   1   7
BRANCH   1   9
ATOM      9  C   UNL     1      -0.947  -1.552  -1.354  0.00  0.00    -0.067 C 
BRANCH   9  10
ATOM     10  N   UNL     1      -1.108  -0.737  -2.566  0.00  0.00    +0.379 N 
ATOM     11  H   UNL     1      -0.425   0.006  -2.565  0.00  0.00    -0.090 HD
ATOM     12  H   UNL     1      -0.974  -1.317  -3.381  0.00  0.00    -0.090 HD
ATOM     13  H   UNL     1      -2.036  -0.341  -2.583  0.00  0.00    -0.090 HD
ENDBRANCH   9  10
ENDBRANCH   1   9
BRANCH   1  14
ATOM     14  S   UNL     1      -1.235  -1.751   1.359  0.00  0.00    -0.080 S 
BRANCH  14  15
ATOM     15  C   UNL     1      -2.611  -2.833   1.155  0.00  0.00    +0.192 A 
ATOM     16  N   UNL     1      -3.496  -2.801   0.183  0.00  0.00    -0.122 NA
ATOM     17  N   UNL     1      -4.358  -3.743   0.344  0.00  0.00    -0.134 NA
ATOM     18  C   UNL     1      -4.074  -4.425   1.414  0.00  0.00    +0.134 A 
ATOM     19  N   UNL     1      -2.958  -3.867   1.969  0.00  0.00    -0.306 N 
ATOM     20  C   UNL     1      -2.292  -4.292   3.200  0.00  0.00    +0.125 C 
ATOM     21  C   UNL     1      -2.533  -5.790   3.414  0.00  0.00    +0.022 C 
ATOM     22  C   UNL     1      -3.816  -5.996   4.217  0.00  0.00    +0.002 C 
ATOM     23  C   UNL     1      -5.019  -5.442   3.461  0.00  0.00    +0.008 C 
ATOM     24  C   UNL     1      -4.814  -5.620   1.958  0.00  0.00    +0.076 C 
ENDBRANCH  14  15
ENDBRANCH   1  14
TORSDOF 5
