REMARK  Name = ZINC34915513
REMARK  11 active torsions:
REMARK  status: ('A' for Active; 'I' for Inactive)
REMARK    1  A    between atoms: C_1  and  O_2
REMARK    2  A    between atoms: O_2  and  C_3
REMARK    3  A    between atoms: C_3  and  C_5
REMARK    4  A    between atoms: C_8  and  C_11
REMARK    5  A    between atoms: C_11  and  O_12
REMARK    6  A    between atoms: O_12  and  C_13
REMARK    7  A    between atoms: C_13  and  C_15
REMARK    8  A    between atoms: C_13  and  C_32
REMARK    9  A    between atoms: C_15  and  N_16
REMARK   10  A    between atoms: C_22  and  C_24
REMARK   11  A    between atoms: C_27  and  C_30
REMARK                            x       y       z     vdW  Elec       q    Type
REMARK                         _______ _______ _______ _____ _____    ______ ____
ROOT
ATOM      1  C   UNL     1      -1.496  -8.982   1.455  0.00  0.00    +0.132 C 
ENDROOT
BRANCH   1   2
ATOM      2  C   UNL     1      -0.173  -9.704   1.456  0.00  0.00    -0.021 A 
ATOM      3  C   UNL     1       0.897  -9.184   2.162  0.00  0.00    +0.007 A 
ATOM      4  C   UNL     1       2.110  -9.845   2.163  0.00  0.00    +0.020 A 
ATOM      5  C   UNL     1       2.255 -11.028   1.460  0.00  0.00    +0.041 A 
ATOM      6  C   UNL     1       1.184 -11.547   0.754  0.00  0.00    +0.020 A 
ATOM      7  C   UNL     1      -0.031 -10.888   0.757  0.00  0.00    +0.007 A 
ATOM      8 CL   UNL     1       3.779 -11.859   1.461  0.00  0.00    -0.084 Cl
ENDBRANCH   1   2
BRANCH   1   9
ATOM      9  O   UNL     1      -1.270  -7.574   1.355  0.00  0.00    -0.369 OA
BRANCH   9  10
ATOM     10  C   UNL     1      -1.224  -7.087   0.012  0.00  0.00    +0.195 C 
BRANCH  10  14
ATOM     11  C   UNL     1      -0.540  -2.866   0.051  0.00  0.00    +0.059 A 
ATOM     12  C   UNL     1       0.539  -3.751   0.016  0.00  0.00    +0.015 A 
ATOM     13  C   UNL     1       0.312  -5.112   0.004  0.00  0.00    +0.007 A 
ATOM     14  C   UNL     1      -0.983  -5.600   0.026  0.00  0.00    -0.022 A 
ATOM     15  C   UNL     1      -2.057  -4.728   0.060  0.00  0.00    +0.007 A 
ATOM     16  C   UNL     1      -1.843  -3.366   0.079  0.00  0.00    +0.015 A 
BRANCH  11  17
ATOM     17  C   UNL     1      -0.304  -1.408   0.064  0.00  0.00    +0.339 C 
ATOM     18  O   UNL     1      -1.245  -0.640   0.099  0.00  0.00    -0.245 OA
BRANCH  17  20
ATOM     19  C   UNL     1       1.110   0.491   0.051  0.00  0.00    +0.280 C 
ATOM     20  O   UNL     1       0.955  -0.929   0.036  0.00  0.00    -0.464 OA
ENDBRANCH  17  20
ENDBRANCH  11  17
ENDBRANCH  10  14
ENDBRANCH   9  10
ENDBRANCH   1   9
BRANCH   1  21
ATOM     21  C   UNL     1      -2.245  -9.287   2.753  0.00  0.00    -0.042 C 
BRANCH  21  22
ATOM     22  N   UNL     1      -3.537  -8.588   2.750  0.00  0.00    +0.384 N 
ATOM     23  C   UNL     1      -4.183  -8.751   4.058  0.00  0.00    -0.059 C 
ATOM     24  C   UNL     1      -5.475  -7.927   4.094  0.00  0.00    +0.089 C 
ATOM     25  N   UNL     1      -6.312  -8.322   2.950  0.00  0.00    -0.301 N 
ATOM     26  C   UNL     1      -5.694  -8.345   1.615  0.00  0.00    +0.089 C 
ATOM     27  C   UNL     1      -4.392  -9.149   1.696  0.00  0.00    -0.059 C 
ATOM     28  C   UNL     1      -7.607  -8.653   3.121  0.00  0.00    +0.246 C 
ATOM     29  O   UNL     1      -8.255  -9.072   2.182  0.00  0.00    -0.270 OA
ATOM     30  H   UNL     1      -3.386  -7.606   2.572  0.00  0.00    -0.082 HD
BRANCH  28  31
ATOM     31  C   UNL     1      -8.239  -8.508   4.450  0.00  0.00    +0.037 A 
ATOM     32  C   UNL     1      -7.835  -7.481   5.306  0.00  0.00    +0.014 A 
ATOM     33  C   UNL     1      -8.423  -7.345   6.544  0.00  0.00    +0.019 A 
ATOM     34  C   UNL     1      -9.424  -8.234   6.943  0.00  0.00    +0.052 A 
ATOM     35  C   UNL     1      -9.827  -9.261   6.087  0.00  0.00    +0.019 A 
ATOM     36  C   UNL     1      -9.243  -9.393   4.847  0.00  0.00    +0.014 A 
BRANCH  34  37
ATOM     37  C   UNL     1     -10.035  -8.093   8.230  0.00  0.00    +0.099 C 
ATOM     38  N   UNL     1     -10.520  -7.981   9.252  0.00  0.00    -0.191 NA
ENDBRANCH  34  37
ENDBRANCH  28  31
ENDBRANCH  21  22
ENDBRANCH   1  21
TORSDOF 10
