REMARK  Name = ZINC12534051
REMARK  9 active torsions:
REMARK  status: ('A' for Active; 'I' for Inactive)
REMARK    1  A    between atoms: C_1  and  C_2
REMARK    2  A    between atoms: C_7  and  S_28
REMARK    3  A    between atoms: N_11  and  C_12
REMARK    4  A    between atoms: C_12  and  C_13
REMARK    5  A    between atoms: N_15  and  C_16
REMARK    6  A    between atoms: C_23  and  C_27
REMARK    7  A    between atoms: C_24  and  C_25
REMARK    8  A    between atoms: C_24  and  C_26
REMARK    9  A    between atoms: S_28  and  N_31
REMARK                            x       y       z     vdW  Elec       q    Type
REMARK                         _______ _______ _______ _____ _____    ______ ____
ROOT
ATOM      1  C   UNL     1       1.409   1.466  -0.885  0.00  0.00    +0.028 C 
ATOM      2  C   UNL     1       0.874   2.823  -0.424  0.00  0.00    +0.075 C 
ATOM      3  C   UNL     1       0.074   2.679   0.891  0.00  0.00    +0.059 C 
ATOM      4  C   UNL     1       1.122   2.946   1.954  0.00  0.00    -0.023 A 
ATOM      5  C   UNL     1       1.135   2.694   3.309  0.00  0.00    +0.034 A 
ATOM      6  C   UNL     1       2.243   3.031   4.066  0.00  0.00    +0.105 A 
ATOM      7  C   UNL     1       3.333   3.632   3.463  0.00  0.00    +0.030 A 
ATOM      8  C   UNL     1       3.324   3.888   2.108  0.00  0.00    +0.025 A 
ATOM      9  C   UNL     1       2.213   3.548   1.338  0.00  0.00    +0.034 A 
ATOM     10  N   UNL     1       1.981   3.723  -0.032  0.00  0.00    -0.318 N 
ENDROOT
BRANCH   6  11
ATOM     11  S   UNL     1       2.262   2.702   5.797  0.00  0.00    +0.056 S 
ATOM     12  O   UNL     1       1.344   1.640   6.019  0.00  0.00    -0.153 OA
ATOM     13  O   UNL     1       3.628   2.620   6.180  0.00  0.00    -0.153 OA
BRANCH  11  14
ATOM     14  N   UNL     1       1.637   4.034   6.556  0.00  0.00    -0.204 NA
ATOM     15  H   UNL     1       1.345   4.798   6.034  0.00  0.00    +0.144 HD
ATOM     16  H   UNL     1       1.561   4.051   7.523  0.00  0.00    +0.144 HD
ENDBRANCH  11  14
ENDBRANCH   6  11
BRANCH  10  17
ATOM     17  C   UNL     1       3.192   3.437  -0.812  0.00  0.00    +0.201 C 
BRANCH  17  18
ATOM     18  C   UNL     1       2.886   3.564  -2.282  0.00  0.00    +0.231 C 
ATOM     19  O   UNL     1       1.801   3.971  -2.642  0.00  0.00    -0.274 OA
ATOM     20  N   UNL     1       3.816   3.226  -3.196  0.00  0.00    -0.311 N 
ATOM     21  H   UNL     1       4.683   2.900  -2.908  0.00  0.00    +0.149 HD
BRANCH  20  22
ATOM     22  C   UNL     1       3.518   3.349  -4.625  0.00  0.00    +0.080 C 
ATOM     23  C   UNL     1       4.411   2.392  -5.447  0.00  0.00    +0.027 C 
ATOM     24  C   UNL     1       5.240   3.333  -6.378  0.00  0.00    -0.003 C 
ATOM     25  C   UNL     1       6.224   4.067  -5.417  0.00  0.00    +0.005 C 
ATOM     26  C   UNL     1       5.321   5.031  -4.577  0.00  0.00    +0.009 C 
ATOM     27  C   UNL     1       3.888   4.775  -5.136  0.00  0.00    -0.008 C 
ATOM     28  C   UNL     1       4.194   4.472  -6.646  0.00  0.00    -0.025 C 
ATOM     29  C   UNL     1       2.960   3.954  -7.388  0.00  0.00    +0.012 C 
ATOM     30  C   UNL     1       4.819   5.673  -7.357  0.00  0.00    +0.012 C 
ATOM     31  C   UNL     1       2.857   5.872  -4.862  0.00  0.00    +0.013 C 
ENDBRANCH  20  22
ENDBRANCH  17  18
ENDBRANCH  10  17
TORSDOF 5
