REMARK  Name = ZINC12761814
REMARK  6 active torsions:
REMARK  status: ('A' for Active; 'I' for Inactive)
REMARK    1  A    between atoms: C_1  and  C_2
REMARK    2  A    between atoms: C_2  and  C_4
REMARK    3  A    between atoms: C_2  and  N_11
REMARK    4  A    between atoms: N_11  and  C_12
REMARK    5  A    between atoms: C_12  and  C_13
REMARK    6  A    between atoms: C_17  and  C_26
REMARK                            x       y       z     vdW  Elec       q    Type
REMARK                         _______ _______ _______ _____ _____    ______ ____
ROOT
ATOM      1  C   UNL     1      -3.336  -1.100  -1.298  0.00  0.00    +0.234 C 
ATOM      2  O   UNL     1      -3.810  -1.465  -0.243  0.00  0.00    -0.274 OA
ATOM      3  N   UNL     1      -4.078  -1.149  -2.423  0.00  0.00    -0.263 N 
ATOM      4  C   UNL     1      -3.499  -0.806  -3.733  0.00  0.00    +0.168 C 
ATOM      5  C   UNL     1      -4.535   0.037  -4.491  0.00  0.00    +0.276 C 
ATOM      6  O   UNL     1      -5.742  -0.719  -4.615  0.00  0.00    -0.476 OA
ATOM      7  C   UNL     1      -6.242  -1.302  -3.494  0.00  0.00    +0.143 A 
ATOM      8  C   UNL     1      -5.428  -1.536  -2.387  0.00  0.00    +0.078 A 
ATOM      9  C   UNL     1      -5.948  -2.141  -1.254  0.00  0.00    +0.027 A 
ATOM     10  C   UNL     1      -7.279  -2.516  -1.222  0.00  0.00    +0.002 A 
ATOM     11  C   UNL     1      -8.089  -2.288  -2.319  0.00  0.00    +0.004 A 
ATOM     12  C   UNL     1      -7.577  -1.675  -3.452  0.00  0.00    +0.047 A 
ENDROOT
BRANCH   5  13
ATOM     13  C   UNL     1      -4.005   0.377  -5.860  0.00  0.00    +0.253 C 
ATOM     14  O   UNL     1      -4.557  -0.058  -6.849  0.00  0.00    -0.272 OA
ATOM     15  N   UNL     1      -2.918   1.164  -5.986  0.00  0.00    -0.326 N 
ATOM     16  H   UNL     1      -2.477   1.512  -5.195  0.00  0.00    +0.145 HD
ATOM     17  H   UNL     1      -2.577   1.383  -6.867  0.00  0.00    +0.145 HD
ENDBRANCH   5  13
BRANCH   1  18
ATOM     18  C   UNL     1      -1.919  -0.592  -1.352  0.00  0.00    +0.178 C 
BRANCH  18  19
ATOM     19  N   UNL     1      -1.370  -0.526   0.009  0.00  0.00    -0.302 NA
ATOM     20  H   UNL     1      -1.430  -1.423   0.467  0.00  0.00    +0.123 HD
BRANCH  19  22
ATOM     21  C   UNL     1       0.010   1.497  -0.006  0.00  0.00    +0.029 C 
ATOM     22  C   UNL     1       0.014  -0.033  -0.004  0.00  0.00    +0.081 C 
BRANCH  22  23
ATOM     23  C   UNL     1       0.737  -0.532   1.220  0.00  0.00    -0.029 A 
ATOM     24  C   UNL     1       0.086  -0.571   2.439  0.00  0.00    +0.005 A 
ATOM     25  C   UNL     1       0.748  -1.029   3.563  0.00  0.00    +0.002 A 
ATOM     26  C   UNL     1       2.062  -1.447   3.468  0.00  0.00    +0.020 A 
ATOM     27  C   UNL     1       2.714  -1.408   2.249  0.00  0.00    +0.041 A 
ATOM     28  C   UNL     1       2.049  -0.955   1.123  0.00  0.00    +0.025 A 
ATOM     29 CL   UNL     1       4.365  -1.933   2.130  0.00  0.00    -0.084 Cl
ENDBRANCH  22  23
ENDBRANCH  19  22
ENDBRANCH  18  19
ENDBRANCH   1  18
TORSDOF 5
