REMARK  Name = ZINC20379682
REMARK  7 active torsions:
REMARK  status: ('A' for Active; 'I' for Inactive)
REMARK    1  A    between atoms: C_10  and  C_13
REMARK    2  A    between atoms: C_13  and  C_14
REMARK    3  A    between atoms: N_16  and  C_17
REMARK    4  A    between atoms: C_17  and  C_18
REMARK    5  A    between atoms: C_18  and  C_19
REMARK    6  A    between atoms: C_19  and  N_20
REMARK    7  A    between atoms: N_23  and  C_26
REMARK                            x       y       z     vdW  Elec       q    Type
REMARK                         _______ _______ _______ _____ _____    ______ ____
ROOT
ATOM      1  C   UNL     1       4.975  -0.976   2.472  0.00  0.00    +0.217 C 
ATOM      2  O   UNL     1       5.773  -0.678   1.608  0.00  0.00    -0.276 OA
ATOM      3  N   UNL     1       5.234  -0.679   3.760  0.00  0.00    -0.315 N 
ATOM      4  H   UNL     1       4.596  -0.917   4.451  0.00  0.00    +0.149 HD
ENDROOT
BRANCH   1   5
ATOM      5  C   UNL     1       3.693  -1.677   2.103  0.00  0.00    +0.150 C 
BRANCH   5  15
ATOM      6  C   UNL     1      -0.017   1.378   0.010  0.00  0.00    +0.002 A 
ATOM      7  C   UNL     1       1.169   2.090   0.002  0.00  0.00    +0.004 A 
ATOM      8  C   UNL     1       2.381   1.424  -0.019  0.00  0.00    +0.047 A 
ATOM      9  C   UNL     1       2.408   0.040  -0.030  0.00  0.00    +0.143 A 
ATOM     10  C   UNL     1       1.213  -0.677  -0.012  0.00  0.00    +0.076 A 
ATOM     11  C   UNL     1       0.002  -0.004   0.002  0.00  0.00    +0.027 A 
ATOM     12  N   UNL     1       1.250  -2.078   0.012  0.00  0.00    -0.280 N 
ATOM     13  C   UNL     1       2.425  -2.703   0.235  0.00  0.00    +0.259 C 
ATOM     14  O   UNL     1       2.498  -3.911   0.151  0.00  0.00    -0.271 OA
ATOM     15  C   UNL     1       3.647  -1.893   0.589  0.00  0.00    +0.268 C 
ATOM     16  O   UNL     1       3.593  -0.626  -0.070  0.00  0.00    -0.477 OA
ATOM     17  H   UNL     1       0.440  -2.592  -0.130  0.00  0.00    +0.155 HD
ENDBRANCH   5  15
ENDBRANCH   1   5
BRANCH   3  18
ATOM     18  C   UNL     1       6.480   0.003   4.119  0.00  0.00    +0.105 C 
BRANCH  18  19
ATOM     19  C   UNL     1       6.526   0.220   5.633  0.00  0.00    +0.034 C 
BRANCH  19  20
ATOM     20  C   UNL     1       7.828   0.932   6.007  0.00  0.00    +0.086 C 
BRANCH  20  21
ATOM     21  N   UNL     1       7.872   1.140   7.460  0.00  0.00    -0.306 NA
ATOM     22  C   UNL     1       6.828   2.081   7.890  0.00  0.00    +0.066 C 
ATOM     23  C   UNL     1       6.870   2.224   9.413  0.00  0.00    -0.063 C 
ATOM     24  N   UNL     1       8.193   2.712   9.823  0.00  0.00    +0.383 N 
ATOM     25  C   UNL     1       9.222   1.750   9.409  0.00  0.00    -0.063 C 
ATOM     26  C   UNL     1       9.200   1.603   7.886  0.00  0.00    +0.066 C 
ATOM     27  H   UNL     1       8.372   3.604   9.387  0.00  0.00    -0.081 HD
BRANCH  24  28
ATOM     28  C   UNL     1       8.226   2.866  11.284  0.00  0.00    -0.068 C 
ATOM     29  C   UNL     1       7.155   3.870  11.715  0.00  0.00    -0.015 C 
ATOM     30  C   UNL     1       7.190   4.031  13.236  0.00  0.00    -0.002 C 
ATOM     31  C   UNL     1       8.568   4.539  13.664  0.00  0.00    -0.000 C 
ATOM     32  C   UNL     1       9.639   3.535  13.232  0.00  0.00    -0.002 C 
ATOM     33  C   UNL     1       9.604   3.375  11.711  0.00  0.00    -0.015 C 
ENDBRANCH  24  28
ENDBRANCH  20  21
ENDBRANCH  19  20
ENDBRANCH  18  19
ENDBRANCH   3  18
TORSDOF 7
