REMARK  Name = ZINC05090327
REMARK  8 active torsions:
REMARK  status: ('A' for Active; 'I' for Inactive)
REMARK    1  A    between atoms: C_1  and  C_2
REMARK    2  A    between atoms: C_7  and  N_8
REMARK    3  A    between atoms: C_11  and  C_16
REMARK    4  A    between atoms: C_16  and  S_17
REMARK    5  A    between atoms: S_17  and  C_18
REMARK    6  A    between atoms: C_20  and  C_29
REMARK    7  A    between atoms: C_21  and  C_28
REMARK    8  A    between atoms: N_22  and  C_23
REMARK                            x       y       z     vdW  Elec       q    Type
REMARK                         _______ _______ _______ _____ _____    ______ ____
ROOT
ATOM      1  N   UNL     1       0.197   9.259  -3.171  0.00  0.00    -0.283 N 
ATOM      2  C   UNL     1       0.246   8.612  -1.951  0.00  0.00    +0.224 A 
ATOM      3  N   UNL     1       0.714   7.368  -1.875  0.00  0.00    -0.198 NA
ATOM      4  C   UNL     1       0.756   6.747  -0.710  0.00  0.00    +0.146 A 
ATOM      5  N   UNL     1       0.344   7.361   0.386  0.00  0.00    -0.199 NA
ATOM      6  C   UNL     1      -0.119   8.606   0.319  0.00  0.00    +0.217 A 
ATOM      7  N   UNL     1      -0.168   9.233  -0.852  0.00  0.00    -0.181 NA
ATOM      8  N   UNL     1      -0.549   9.246   1.463  0.00  0.00    -0.327 N 
ATOM      9  H   UNL     1       0.578   8.839  -3.958  0.00  0.00    +0.155 HD
ATOM     10  H   UNL     1      -0.514   8.788   2.317  0.00  0.00    +0.145 HD
ATOM     11  H   UNL     1      -0.887  10.154   1.413  0.00  0.00    +0.145 HD
ENDROOT
BRANCH   1  18
ATOM     12  C   UNL     1       1.152  11.047  -5.168  0.00  0.00    +0.045 C 
ATOM     13  C   UNL     1       0.032  11.422  -4.231  0.00  0.00    -0.029 A 
ATOM     14  C   UNL     1      -0.562  12.665  -4.327  0.00  0.00    +0.005 A 
ATOM     15  C   UNL     1      -1.590  13.009  -3.469  0.00  0.00    +0.000 A 
ATOM     16  C   UNL     1      -2.026  12.111  -2.512  0.00  0.00    +0.002 A 
ATOM     17  C   UNL     1      -1.439  10.866  -2.413  0.00  0.00    +0.023 A 
ATOM     18  C   UNL     1      -0.403  10.518  -3.271  0.00  0.00    +0.036 A 
ENDBRANCH   1  18
BRANCH   4  19
ATOM     19  C   UNL     1       1.280   5.336  -0.629  0.00  0.00    +0.153 C 
BRANCH  19  20
ATOM     20  S   UNL     1      -0.087   4.170  -0.852  0.00  0.00    -0.080 S 
BRANCH  20  21
ATOM     21  C   UNL     1       0.785   2.646  -0.715  0.00  0.00    +0.170 A 
ATOM     22  N   UNL     1       2.075   2.515  -0.505  0.00  0.00    -0.227 NA
ATOM     23  C   UNL     1       2.388   1.209  -0.465  0.00  0.00    +0.060 A 
ATOM     24  C   UNL     1       1.262   0.498  -0.650  0.00  0.00    +0.039 A 
ATOM     25  N   UNL     1       0.237   1.403  -0.807  0.00  0.00    -0.320 N 
ATOM     26  C   UNL     1       1.145  -1.004  -0.682  0.00  0.00    +0.065 C 
ATOM     27  C   UNL     1       3.766   0.638  -0.250  0.00  0.00    +0.067 C 
BRANCH  25  28
ATOM     28  C   UNL     1      -1.176   1.089  -1.035  0.00  0.00    +0.089 C 
ATOM     29  C   UNL     1      -1.350   0.405  -2.406  0.00  0.00    +0.025 C 
ATOM     30  C   UNL     1      -1.348  -1.110  -2.077  0.00  0.00    +0.002 C 
ATOM     31  C   UNL     1      -2.129  -1.171  -0.741  0.00  0.00    +0.002 C 
ATOM     32  C   UNL     1      -1.671   0.088   0.024  0.00  0.00    +0.025 C 
ENDBRANCH  25  28
ENDBRANCH  20  21
ENDBRANCH  19  20
ENDBRANCH   4  19
TORSDOF 5
