REMARK  Name = ZINC58849232
REMARK  8 active torsions:
REMARK  status: ('A' for Active; 'I' for Inactive)
REMARK    1  A    between atoms: C_1  and  O_2
REMARK    2  A    between atoms: O_2  and  C_3
REMARK    3  A    between atoms: C_6  and  N_11
REMARK    4  A    between atoms: C_7  and  O_9
REMARK    5  A    between atoms: O_9  and  C_10
REMARK    6  A    between atoms: N_11  and  S_12
REMARK    7  A    between atoms: S_12  and  C_15
REMARK    8  A    between atoms: C_28  and  C_31
REMARK                            x       y       z     vdW  Elec       q    Type
REMARK                         _______ _______ _______ _____ _____    ______ ____
ROOT
ATOM      1  C   UNL     1       5.090  -1.614  -3.926  0.00  0.00    +0.109 A 
ATOM      2  C   UNL     1       5.297  -0.593  -3.016  0.00  0.00    +0.030 A 
ATOM      3  C   UNL     1       6.385  -0.641  -2.168  0.00  0.00    +0.025 A 
ATOM      4  C   UNL     1       7.269  -1.713  -2.227  0.00  0.00    +0.031 A 
ATOM      5  C   UNL     1       7.056  -2.744  -3.129  0.00  0.00    -0.018 A 
ATOM      6  C   UNL     1       5.961  -2.684  -3.979  0.00  0.00    +0.034 A 
ATOM      7  C   UNL     1       7.960  -3.928  -3.194  0.00  0.00    +0.049 C 
ATOM      8  C   UNL     1       8.886  -3.871  -4.382  0.00  0.00    -0.023 C 
ATOM      9  C   UNL     1      10.056  -4.370  -4.068  0.00  0.00    -0.030 C 
ATOM     10  C   UNL     1      10.079  -4.826  -2.626  0.00  0.00    +0.033 C 
ATOM     11  C   UNL     1       8.879  -4.091  -1.986  0.00  0.00    +0.029 C 
ATOM     12  C   UNL     1       9.378  -2.778  -1.417  0.00  0.00    +0.108 C 
ATOM     13  N   UNL     1       8.371  -1.738  -1.380  0.00  0.00    -0.336 N 
ATOM     14  H   UNL     1       8.482  -1.010  -0.748  0.00  0.00    +0.147 HD
ENDROOT
BRANCH  12  15
ATOM     15  C   UNL     1      10.553  -2.316  -2.239  0.00  0.00    +0.008 A 
ATOM     16  C   UNL     1      11.841  -2.588  -1.817  0.00  0.00    +0.008 A 
ATOM     17  C   UNL     1      12.920  -2.164  -2.571  0.00  0.00    +0.000 A 
ATOM     18  C   UNL     1      12.712  -1.468  -3.747  0.00  0.00    +0.003 A 
ATOM     19  C   UNL     1      11.425  -1.196  -4.171  0.00  0.00    +0.039 A 
ATOM     20  C   UNL     1      10.344  -1.625  -3.420  0.00  0.00    +0.128 A 
ATOM     21  F   UNL     1       9.086  -1.363  -3.836  0.00  0.00    -0.205 F 
ENDBRANCH  12  15
BRANCH   1  22
ATOM     22  S   UNL     1       3.707  -1.552  -5.016  0.00  0.00    +0.072 S 
ATOM     23  O   UNL     1       4.038  -2.360  -6.138  0.00  0.00    -0.150 OA
ATOM     24  O   UNL     1       3.350  -0.183  -5.141  0.00  0.00    -0.150 OA
BRANCH  22  25
ATOM     25  N   UNL     1       2.445  -2.303  -4.249  0.00  0.00    -0.213 N 
ATOM     26  H   UNL     1       2.032  -3.085  -4.647  0.00  0.00    +0.174 HD
BRANCH  25  30
ATOM     27  C   UNL     1       1.043  -0.827  -0.605  0.00  0.00    +0.124 A 
ATOM     28  C   UNL     1       1.496   0.048  -1.581  0.00  0.00    +0.048 A 
ATOM     29  C   UNL     1       1.961  -0.441  -2.788  0.00  0.00    +0.032 A 
ATOM     30  C   UNL     1       1.975  -1.807  -3.024  0.00  0.00    +0.090 A 
ATOM     31  C   UNL     1       1.521  -2.687  -2.045  0.00  0.00    +0.146 A 
ATOM     32  C   UNL     1       1.061  -2.195  -0.835  0.00  0.00    +0.093 A 
BRANCH  27  34
ATOM     33  C   UNL     1       0.597   1.075   0.751  0.00  0.00    +0.277 C 
ATOM     34  O   UNL     1       0.587  -0.343   0.582  0.00  0.00    -0.495 OA
ENDBRANCH  27  34
BRANCH  31  35
ATOM     35  O   UNL     1       1.533  -4.027  -2.274  0.00  0.00    -0.493 OA
ATOM     36  C   UNL     1       1.052  -4.870  -1.225  0.00  0.00    +0.277 C 
ENDBRANCH  31  35
ENDBRANCH  25  30
ENDBRANCH  22  25
ENDBRANCH   1  22
TORSDOF 6
