REMARK  Name = ZINC05566735
REMARK  4 active torsions:
REMARK  status: ('A' for Active; 'I' for Inactive)
REMARK    1  A    between atoms: C_4  and  N_73
REMARK    2  A    between atoms: N_8  and  C_23
REMARK    3  A    between atoms: C_10  and  N_75
REMARK    4  A    between atoms: N_16  and  C_17
REMARK                            x       y       z     vdW  Elec       q    Type
REMARK                         _______ _______ _______ _____ _____    ______ ____
ROOT
ATOM      1  C   UNL     1      -3.803   0.917  -4.002  0.00  0.00    +0.172 C 
ATOM      2  N   UNL     1      -3.421  -0.306  -3.462  0.00  0.00    -0.245 N 
ATOM      3  C   UNL     1      -2.521  -0.415  -4.514  0.00  0.00    +0.172 C 
ATOM      4  N   UNL     1      -3.354   0.439  -5.228  0.00  0.00    -0.245 N 
ATOM      5  N   UNL     1      -4.356   2.065  -3.606  0.00  0.00    -0.358 N 
ATOM      6  H   UNL     1      -4.636   2.767  -4.301  0.00  0.00    +0.162 HD
ATOM      7  N   UNL     1      -1.365  -1.021  -4.791  0.00  0.00    -0.358 N 
ATOM      8  H   UNL     1      -0.878  -0.820  -5.672  0.00  0.00    +0.162 HD
ENDROOT
BRANCH   5  12
ATOM      9  C   UNL     1      -5.602   4.113  -0.058  0.00  0.00    +0.000 C 
ATOM     10  C   UNL     1      -4.100   3.963  -0.309  0.00  0.00    +0.002 C 
ATOM     11  C   UNL     1      -3.860   3.639  -1.784  0.00  0.00    +0.024 C 
ATOM     12  C   UNL     1      -4.569   2.331  -2.141  0.00  0.00    +0.082 C 
ATOM     13  C   UNL     1      -6.071   2.481  -1.890  0.00  0.00    +0.024 C 
ATOM     14  C   UNL     1      -6.311   2.805  -0.415  0.00  0.00    +0.002 C 
ENDBRANCH   5  12
BRANCH   7  15
ATOM     15  C   UNL     1      -0.775  -1.999  -3.812  0.00  0.00    +0.082 C 
ATOM     16  C   UNL     1       0.653  -1.551  -3.494  0.00  0.00    +0.024 C 
ATOM     17  C   UNL     1       1.300  -2.554  -2.537  0.00  0.00    +0.002 C 
ATOM     18  C   UNL     1       1.333  -3.937  -3.192  0.00  0.00    +0.000 C 
ATOM     19  C   UNL     1      -0.096  -4.384  -3.511  0.00  0.00    +0.002 C 
ATOM     20  C   UNL     1      -0.743  -3.381  -4.468  0.00  0.00    +0.024 C 
ENDBRANCH   7  15
BRANCH   4  21
ATOM     21  C   UNL     1      -3.634   0.713  -6.640  0.00  0.00    +0.084 C 
ATOM     22  C   UNL     1      -4.147  -0.561  -7.314  0.00  0.00    +0.023 C 
ATOM     23  C   UNL     1      -4.439  -0.276  -8.789  0.00  0.00    +0.002 C 
ATOM     24  C   UNL     1      -3.156   0.187  -9.482  0.00  0.00    +0.000 C 
ATOM     25  C   UNL     1      -2.642   1.461  -8.808  0.00  0.00    +0.002 C 
ATOM     26  C   UNL     1      -2.351   1.175  -7.333  0.00  0.00    +0.023 C 
ENDBRANCH   4  21
BRANCH   2  27
ATOM     27  C   UNL     1      -3.797  -1.118  -2.302  0.00  0.00    +0.084 C 
ATOM     28  C   UNL     1      -5.250  -0.822  -1.922  0.00  0.00    +0.023 C 
ATOM     29  C   UNL     1      -5.642  -1.670  -0.711  0.00  0.00    +0.002 C 
ATOM     30  C   UNL     1      -4.728  -1.330   0.468  0.00  0.00    +0.000 C 
ATOM     31  C   UNL     1      -3.276  -1.625   0.088  0.00  0.00    +0.002 C 
ATOM     32  C   UNL     1      -2.883  -0.777  -1.124  0.00  0.00    +0.023 C 
ENDBRANCH   2  27
TORSDOF 4
