REMARK  Name = ZINC40901625
REMARK  7 active torsions:
REMARK  status: ('A' for Active; 'I' for Inactive)
REMARK    1  A    between atoms: C_1  and  C_2
REMARK    2  A    between atoms: C_2  and  C_3
REMARK    3  A    between atoms: C_2  and  C_4
REMARK    4  A    between atoms: C_6  and  C_9
REMARK    5  A    between atoms: C_12  and  N_16
REMARK    6  A    between atoms: C_19  and  C_22
REMARK    7  A    between atoms: C_27  and  N_30
REMARK                            x       y       z     vdW  Elec       q    Type
REMARK                         _______ _______ _______ _____ _____    ______ ____
ROOT
ATOM      1  N   UNL     1       6.593  -4.565  -4.155  0.00  0.00    -0.328 N 
ATOM      2  C   UNL     1       7.909  -3.942  -4.349  0.00  0.00    +0.106 C 
ATOM      3  C   UNL     1       8.415  -4.285  -5.754  0.00  0.00    +0.031 C 
ATOM      4  C   UNL     1       8.405  -5.804  -5.939  0.00  0.00    +0.078 C 
ATOM      5  C   UNL     1       6.973  -6.328  -5.800  0.00  0.00    +0.031 C 
ATOM      6  C   UNL     1       6.453  -6.009  -4.390  0.00  0.00    +0.106 C 
ENDROOT
BRANCH   4   7
ATOM      7  C   UNL     1       8.933  -6.147  -7.308  0.00  0.00    +0.219 C 
ATOM      8  O   UNL     1       8.163  -6.327  -8.228  0.00  0.00    -0.275 OA
ATOM      9  N   UNL     1      10.261  -6.254  -7.511  0.00  0.00    -0.301 N 
ATOM     10  C   UNL     1      11.201  -6.146  -6.386  0.00  0.00    +0.106 C 
ATOM     11  C   UNL     1      12.243  -5.073  -6.715  0.00  0.00    +0.004 C 
ATOM     12  C   UNL     1      12.903  -5.404  -8.056  0.00  0.00    -0.066 C 
ATOM     13  C   UNL     1      11.844  -5.404  -9.161  0.00  0.00    +0.004 C 
ATOM     14  C   UNL     1      10.797  -6.486  -8.859  0.00  0.00    +0.106 C 
BRANCH  12  15
ATOM     15  N   UNL     1      13.927  -4.395  -8.360  0.00  0.00    +0.382 N 
ATOM     16  C   UNL     1      14.553  -4.707  -9.650  0.00  0.00    -0.078 C 
ATOM     17  C   UNL     1      15.563  -3.616 -10.009  0.00  0.00    -0.019 C 
ATOM     18  C   UNL     1      16.639  -3.546  -8.922  0.00  0.00    -0.004 C 
ATOM     19  C   UNL     1      15.968  -3.293  -7.569  0.00  0.00    -0.019 C 
ATOM     20  C   UNL     1      14.943  -4.397  -7.300  0.00  0.00    -0.078 C 
ATOM     21  H   UNL     1      13.496  -3.484  -8.409  0.00  0.00    -0.081 HD
ENDBRANCH  12  15
ENDBRANCH   4   7
BRANCH   1  25
ATOM     22  C   UNL     1       3.322  -2.283  -2.945  0.00  0.00    +0.025 A 
ATOM     23  C   UNL     1       4.148  -2.880  -1.994  0.00  0.00    +0.013 A 
ATOM     24  C   UNL     1       5.229  -3.635  -2.396  0.00  0.00    +0.027 A 
ATOM     25  C   UNL     1       5.497  -3.801  -3.750  0.00  0.00    +0.065 A 
ATOM     26  C   UNL     1       4.674  -3.206  -4.702  0.00  0.00    +0.145 A 
ATOM     27  C   UNL     1       3.588  -2.454  -4.303  0.00  0.00    +0.052 A 
ATOM     28  F   UNL     1       4.937  -3.368  -6.018  0.00  0.00    -0.204 F 
BRANCH  22  31
ATOM     29  C   UNL     1       0.733  -0.483  -1.210  0.00  0.00    +0.230 A 
ATOM     30  N   UNL     1       1.799  -1.232  -1.239  0.00  0.00    -0.191 NA
ATOM     31  C   UNL     1       2.159  -1.471  -2.513  0.00  0.00    +0.202 A 
ATOM     32  N   UNL     1       1.311  -0.866  -3.308  0.00  0.00    -0.056 NA
ATOM     33  O   UNL     1       0.366  -0.218  -2.470  0.00  0.00    -0.337 OA
BRANCH  29  35
ATOM     34  C   UNL     1       0.018   1.528   0.053  0.00  0.00    +0.017 C 
ATOM     35  C   UNL     1       0.029  -0.002   0.033  0.00  0.00    +0.072 C 
ATOM     36  C   UNL     1      -1.410  -0.522   0.037  0.00  0.00    +0.017 C 
ENDBRANCH  29  35
ENDBRANCH  22  31
ENDBRANCH   1  25
TORSDOF 5
