REMARK  Name = ZINC32528758
REMARK  8 active torsions:
REMARK  status: ('A' for Active; 'I' for Inactive)
REMARK    1  A    between atoms: C_1  and  C_2
REMARK    2  A    between atoms: C_9  and  S_13
REMARK    3  A    between atoms: C_11  and  C_12
REMARK    4  A    between atoms: S_13  and  C_14
REMARK    5  A    between atoms: C_14  and  C_16
REMARK    6  A    between atoms: C_14  and  C_17
REMARK    7  A    between atoms: C_25  and  S_29
REMARK    8  A    between atoms: S_29  and  N_32
REMARK                            x       y       z     vdW  Elec       q    Type
REMARK                         _______ _______ _______ _____ _____    ______ ____
ROOT
ATOM      1  C   UNL     1       5.287   1.782  -0.162  0.00  0.00    +0.232 C 
ATOM      2  O   UNL     1       5.535   0.626   0.109  0.00  0.00    -0.274 OA
ATOM      3  N   UNL     1       6.271   2.599  -0.588  0.00  0.00    -0.264 N 
ATOM      4  C   UNL     1       7.564   2.118  -0.717  0.00  0.00    +0.165 A 
ATOM      5  N   UNL     1       8.022   0.912  -0.474  0.00  0.00    -0.225 NA
ATOM      6  C   UNL     1       9.320   0.581  -0.646  0.00  0.00    +0.080 A 
ATOM      7  C   UNL     1       9.938  -0.672  -0.423  0.00  0.00    +0.031 A 
ATOM      8  C   UNL     1      11.279  -0.841  -0.649  0.00  0.00    +0.030 A 
ATOM      9  C   UNL     1      12.075   0.202  -1.100  0.00  0.00    +0.106 A 
ATOM     10  C   UNL     1      11.504   1.440  -1.328  0.00  0.00    +0.045 A 
ATOM     11  C   UNL     1      10.162   1.619  -1.105  0.00  0.00    +0.043 A 
ATOM     12  S   UNL     1       9.031   2.981  -1.261  0.00  0.00    -0.052 S 
ATOM     13  H   UNL     1       6.046   3.647  -0.834  0.00  0.00    +0.157 HD
ENDROOT
BRANCH   9  14
ATOM     14  S   UNL     1      13.796  -0.050  -1.380  0.00  0.00    +0.056 S 
ATOM     15  O   UNL     1      13.971  -1.441  -1.612  0.00  0.00    -0.153 OA
ATOM     16  O   UNL     1      14.203   0.936  -2.320  0.00  0.00    -0.153 OA
BRANCH  14  17
ATOM     17  N   UNL     1      14.579   0.296   0.037  0.00  0.00    -0.204 NA
ATOM     18  H   UNL     1      15.661   0.151  -0.096  0.00  0.00    +0.144 HD
ATOM     19  H   UNL     1      14.214  -0.373   0.830  0.00  0.00    +0.144 HD
ENDBRANCH  14  17
ENDBRANCH   9  14
BRANCH   1  20
ATOM     20  C   UNL     1       3.881   2.304  -0.022  0.00  0.00    +0.136 C 
ATOM     21  C   UNL     1       3.753   3.080   1.290  0.00  0.00    +0.029 C 
BRANCH  20  22
ATOM     22  S   UNL     1       2.719   0.916  -0.018  0.00  0.00    -0.093 S 
BRANCH  22  31
ATOM     23  C   UNL     1       1.412   5.960   0.020  0.00  0.00    +0.046 C 
ATOM     24  C   UNL     1       0.096   5.225   0.028  0.00  0.00    -0.024 A 
ATOM     25  C   UNL     1      -1.075   5.921   0.042  0.00  0.00    +0.005 A 
ATOM     26  C   UNL     1      -2.301   5.261   0.050  0.00  0.00    +0.001 A 
ATOM     27  C   UNL     1      -2.363   3.900   0.045  0.00  0.00    +0.010 A 
ATOM     28  C   UNL     1      -1.176   3.152   0.030  0.00  0.00    +0.004 A 
ATOM     29  C   UNL     1       0.073   3.821   0.022  0.00  0.00    +0.075 A 
ATOM     30  N   UNL     1       1.208   3.113   0.007  0.00  0.00    -0.240 NA
ATOM     31  C   UNL     1       1.192   1.795   0.000  0.00  0.00    +0.099 A 
ATOM     32  C   UNL     1      -0.013   1.076   0.008  0.00  0.00    +0.038 A 
ATOM     33  C   UNL     1      -1.200   1.742   0.017  0.00  0.00    -0.039 A 
ATOM     34  C   UNL     1      -2.507   0.991   0.019  0.00  0.00    +0.044 C 
ENDBRANCH  22  31
ENDBRANCH  20  22
ENDBRANCH   1  20
TORSDOF 5
