REMARK  Name = ZINC13499373
REMARK  11 active torsions:
REMARK  status: ('A' for Active; 'I' for Inactive)
REMARK    1  A    between atoms: C_1  and  C_2
REMARK    2  A    between atoms: C_2  and  C_3
REMARK    3  A    between atoms: C_3  and  C_4
REMARK    4  A    between atoms: C_4  and  C_6
REMARK    5  A    between atoms: C_4  and  N_76
REMARK    6  A    between atoms: N_10  and  C_11
REMARK    7  A    between atoms: C_17  and  C_18
REMARK    8  A    between atoms: C_17  and  N_76
REMARK    9  A    between atoms: C_23  and  O_30
REMARK   10  A    between atoms: O_30  and  C_31
REMARK   11  A    between atoms: C_32  and  N_76
REMARK                            x       y       z     vdW  Elec       q    Type
REMARK                         _______ _______ _______ _____ _____    ______ ____
ROOT
ATOM      1  N   UNL     1      -8.492  -1.603   4.023  0.00  0.00    +0.391 N 
ATOM      2  H   UNL     1      -7.981  -1.734   4.904  0.00  0.00    -0.080 HD
ENDROOT
BRANCH   1   3
ATOM      3  C   UNL     1      -8.184  -2.730   3.118  0.00  0.00    -0.067 C 
ATOM      4  C   UNL     1      -9.105  -3.908   3.442  0.00  0.00    -0.015 C 
ATOM      5  C   UNL     1      -8.769  -5.085   2.524  0.00  0.00    -0.002 C 
ATOM      6  C   UNL     1      -7.313  -5.502   2.741  0.00  0.00    -0.000 C 
ATOM      7  C   UNL     1      -6.392  -4.324   2.417  0.00  0.00    -0.002 C 
ATOM      8  C   UNL     1      -6.728  -3.147   3.334  0.00  0.00    -0.015 C 
ENDBRANCH   1   3
BRANCH   1   9
ATOM      9  C   UNL     1      -9.941  -1.567   4.309  0.00  0.00    +0.003 C 
BRANCH   9  10
ATOM     10  C   UNL     1     -10.160  -0.808   5.593  0.00  0.00    +0.138 A 
ATOM     11  N   UNL     1      -9.627   0.343   5.922  0.00  0.00    -0.115 NA
ATOM     12  N   UNL     1     -10.060   0.661   7.093  0.00  0.00    -0.023 NA
ATOM     13  N   UNL     1     -10.850  -0.261   7.522  0.00  0.00    -0.044 NA
ATOM     14  N   UNL     1     -10.937  -1.184   6.626  0.00  0.00    -0.228 N 
BRANCH  14  15
ATOM     15  C   UNL     1     -11.732  -2.412   6.715  0.00  0.00    +0.111 C 
ATOM     16  C   UNL     1     -13.209  -2.051   6.887  0.00  0.00    +0.027 C 
ATOM     17  C   UNL     1     -14.040  -3.332   6.980  0.00  0.00    +0.002 C 
ATOM     18  C   UNL     1     -13.573  -4.156   8.181  0.00  0.00    +0.000 C 
ATOM     19  C   UNL     1     -12.096  -4.517   8.009  0.00  0.00    +0.002 C 
ATOM     20  C   UNL     1     -11.265  -3.236   7.916  0.00  0.00    +0.027 C 
ENDBRANCH  14  15
ENDBRANCH   9  10
BRANCH   9  21
ATOM     21  C   UNL     1     -10.693  -0.872   3.171  0.00  0.00    -0.008 C 
BRANCH  21  23
ATOM     22  C   UNL     1     -11.528  -1.131   0.831  0.00  0.00    +0.004 C 
ATOM     23  C   UNL     1     -10.651  -1.752   1.920  0.00  0.00    -0.005 C 
ENDBRANCH  21  23
ENDBRANCH   9  21
ENDBRANCH   1   9
BRANCH   1  24
ATOM     24  C   UNL     1      -8.066  -0.329   3.407  0.00  0.00    -0.036 C 
BRANCH  24  25
ATOM     25  C   UNL     1      -6.564  -0.233   3.484  0.00  0.00    +0.001 A 
ATOM     26  C   UNL     1      -5.814  -0.463   2.376  0.00  0.00    +0.017 A 
ATOM     27  C   UNL     1      -4.359  -0.361   2.483  0.00  0.00    -0.001 A 
ATOM     28  C   UNL     1      -3.535  -0.589   1.374  0.00  0.00    +0.013 A 
ATOM     29  C   UNL     1      -2.181  -0.481   1.502  0.00  0.00    +0.046 A 
ATOM     30  C   UNL     1      -1.610  -0.158   2.732  0.00  0.00    +0.122 A 
ATOM     31  C   UNL     1      -2.407   0.070   3.840  0.00  0.00    +0.072 A 
ATOM     32  C   UNL     1      -3.788  -0.029   3.727  0.00  0.00    +0.053 A 
ATOM     33  N   UNL     1      -4.606   0.192   4.815  0.00  0.00    -0.322 N 
ATOM     34  H   UNL     1      -4.212   0.420   5.671  0.00  0.00    +0.169 HD
ATOM     35  C   UNL     1      -5.943   0.096   4.706  0.00  0.00    +0.251 A 
ATOM     36  O   UNL     1      -6.635   0.299   5.688  0.00  0.00    -0.268 OA
BRANCH  30  37
ATOM     37  O   UNL     1      -0.261  -0.061   2.843  0.00  0.00    -0.495 OA
ATOM     38  C   UNL     1       0.506  -0.307   1.663  0.00  0.00    +0.277 C 
ENDBRANCH  30  37
ENDBRANCH  24  25
ENDBRANCH   1  24
TORSDOF 9
