REMARK  Name = ZINC03454765
REMARK  12 active torsions:
REMARK  status: ('A' for Active; 'I' for Inactive)
REMARK    1  A    between atoms: C_1  and  O_2
REMARK    2  A    between atoms: O_2  and  C_3
REMARK    3  A    between atoms: C_6  and  C_11
REMARK    4  A    between atoms: C_8  and  O_9
REMARK    5  A    between atoms: O_9  and  C_10
REMARK    6  A    between atoms: C_11  and  N_12
REMARK    7  A    between atoms: C_13  and  C_15
REMARK    8  A    between atoms: C_15  and  S_16
REMARK    9  A    between atoms: S_16  and  C_17
REMARK   10  A    between atoms: C_20  and  C_29
REMARK   11  A    between atoms: N_21  and  C_22
REMARK   12  A    between atoms: C_29  and  N_30
REMARK                            x       y       z     vdW  Elec       q    Type
REMARK                         _______ _______ _______ _____ _____    ______ ____
ROOT
ATOM      1  C   UNL     1      -8.883  -4.498  -4.996  0.00  0.00    +0.197 A 
ATOM      2  N   UNL     1      -8.274  -4.048  -6.069  0.00  0.00    -0.122 NA
ATOM      3  N   UNL     1      -8.833  -4.528  -7.122  0.00  0.00    -0.131 NA
ATOM      4  C   UNL     1      -9.824  -5.307  -6.790  0.00  0.00    +0.159 A 
ATOM      5  N   UNL     1      -9.890  -5.321  -5.422  0.00  0.00    -0.271 N 
ENDROOT
BRANCH   5   6
ATOM      6  C   UNL     1     -10.801  -6.029  -4.624  0.00  0.00    +0.069 A 
ATOM      7  C   UNL     1     -11.962  -5.412  -4.181  0.00  0.00    +0.028 A 
ATOM      8  C   UNL     1     -12.858  -6.111  -3.395  0.00  0.00    +0.002 A 
ATOM      9  C   UNL     1     -12.598  -7.425  -3.050  0.00  0.00    +0.002 A 
ATOM     10  C   UNL     1     -11.442  -8.043  -3.490  0.00  0.00    +0.022 A 
ATOM     11  C   UNL     1     -10.545  -7.350  -4.282  0.00  0.00    +0.065 A 
ATOM     12 CL   UNL     1      -9.097  -8.129  -4.840  0.00  0.00    -0.081 Cl
ENDBRANCH   5   6
BRANCH   1  13
ATOM     13  S   UNL     1      -8.476  -4.119  -3.324  0.00  0.00    -0.076 S 
BRANCH  13  14
ATOM     14  C   UNL     1      -7.065  -2.988  -3.462  0.00  0.00    +0.173 C 
BRANCH  14  16
ATOM     15  N   UNL     1      -5.569  -1.738  -1.938  0.00  0.00    -0.311 N 
ATOM     16  C   UNL     1      -6.611  -2.581  -2.083  0.00  0.00    +0.224 C 
ATOM     17  O   UNL     1      -7.184  -3.012  -1.105  0.00  0.00    -0.275 OA
ATOM     18  H   UNL     1      -5.111  -1.394  -2.721  0.00  0.00    +0.149 HD
BRANCH  15  19
ATOM     19  C   UNL     1      -5.128  -1.343  -0.598  0.00  0.00    +0.139 C 
BRANCH  19  23
ATOM     20  C   UNL     1      -1.805   1.329  -0.922  0.00  0.00    +0.162 A 
ATOM     21  C   UNL     1      -3.098   1.827  -0.898  0.00  0.00    +0.050 A 
ATOM     22  C   UNL     1      -4.170   0.961  -0.793  0.00  0.00    +0.009 A 
ATOM     23  C   UNL     1      -3.956  -0.403  -0.712  0.00  0.00    -0.027 A 
ATOM     24  C   UNL     1      -2.668  -0.906  -0.736  0.00  0.00    +0.054 A 
ATOM     25  C   UNL     1      -1.589  -0.044  -0.846  0.00  0.00    +0.162 A 
BRANCH  20  27
ATOM     26  C   UNL     1      -1.045   3.576  -1.098  0.00  0.00    +0.277 C 
ATOM     27  O   UNL     1      -0.749   2.180  -1.025  0.00  0.00    -0.491 OA
ENDBRANCH  20  27
BRANCH  25  28
ATOM     28  O   UNL     1      -0.323  -0.538  -0.875  0.00  0.00    -0.491 OA
ATOM     29  C   UNL     1      -0.177  -1.957  -0.793  0.00  0.00    +0.277 C 
ENDBRANCH  25  28
ENDBRANCH  19  23
ENDBRANCH  15  19
ENDBRANCH  14  16
ENDBRANCH  13  14
ENDBRANCH   1  13
BRANCH   4  30
ATOM     30  C   UNL     1     -10.726  -6.057  -7.736  0.00  0.00    +0.199 C 
BRANCH  30  31
ATOM     31  N   UNL     1     -11.809  -5.176  -8.179  0.00  0.00    -0.323 N 
ATOM     32  C   UNL     1     -13.068  -5.124  -7.665  0.00  0.00    +0.200 A 
ATOM     33  N   UNL     1     -13.771  -4.229  -8.294  0.00  0.00    -0.236 NA
ATOM     34  C   UNL     1     -13.012  -3.645  -9.256  0.00  0.00    +0.089 A 
ATOM     35  C   UNL     1     -11.741  -4.241  -9.192  0.00  0.00    +0.069 A 
ATOM     36  C   UNL     1     -10.743  -3.834 -10.066  0.00  0.00    +0.028 A 
ATOM     37  C   UNL     1     -11.005  -2.845 -10.990  0.00  0.00    +0.002 A 
ATOM     38  C   UNL     1     -12.259  -2.254 -11.050  0.00  0.00    +0.002 A 
ATOM     39  C   UNL     1     -13.256  -2.647 -10.203  0.00  0.00    +0.030 A 
ENDBRANCH  30  31
ENDBRANCH   4  30
TORSDOF 10
