REMARK  Name = ZINC24773308
REMARK  5 active torsions:
REMARK  status: ('A' for Active; 'I' for Inactive)
REMARK    1  A    between atoms: C_6  and  S_7
REMARK    2  A    between atoms: S_7  and  C_8
REMARK    3  A    between atoms: C_8  and  C_9
REMARK    4  A    between atoms: C_24  and  O_32
REMARK    5  A    between atoms: C_27  and  C_29
REMARK                            x       y       z     vdW  Elec       q    Type
REMARK                         _______ _______ _______ _____ _____    ______ ____
ROOT
ATOM      1  C   UNL     1       0.556   1.601  -5.127  0.00  0.00    +0.142 A 
ATOM      2  N   UNL     1       1.381   1.140  -4.208  0.00  0.00    -0.216 NA
ATOM      3  C   UNL     1       1.177   1.260  -2.898  0.00  0.00    +0.134 A 
ATOM      4  C   UNL     1      -0.018   1.935  -2.515  0.00  0.00    +0.051 A 
ATOM      5  C   UNL     1      -0.481   2.201  -1.163  0.00  0.00    -0.025 A 
ATOM      6  C   UNL     1      -1.655   2.862  -1.043  0.00  0.00    -0.004 A 
ATOM      7  S   UNL     1      -2.196   3.161  -2.707  0.00  0.00    -0.073 S 
ATOM      8  C   UNL     1      -0.853   2.401  -3.562  0.00  0.00    +0.114 A 
ATOM      9  N   UNL     1      -0.572   2.238  -4.839  0.00  0.00    -0.224 NA
ATOM     10  C   UNL     1      -2.348   3.256   0.225  0.00  0.00    +0.043 C 
ATOM     11  C   UNL     1      -1.718   2.476   1.387  0.00  0.00    +0.005 C 
ATOM     12  C   UNL     1      -0.192   2.580   1.279  0.00  0.00    +0.005 C 
ATOM     13  C   UNL     1       0.296   1.769   0.078  0.00  0.00    +0.037 C 
ATOM     14  N   UNL     1       2.070   0.762  -1.966  0.00  0.00    -0.300 N 
ATOM     15  C   UNL     1       3.326   1.544  -1.964  0.00  0.00    +0.138 C 
ATOM     16  C   UNL     1       4.470   0.560  -1.658  0.00  0.00    +0.134 C 
ATOM     17  C   UNL     1       3.789  -0.821  -1.521  0.00  0.00    +0.064 C 
ATOM     18  C   UNL     1       2.462  -0.632  -2.298  0.00  0.00    +0.163 C 
ENDROOT
BRANCH  18  19
ATOM     19  C   UNL     1       1.419  -1.607  -1.815  0.00  0.00    +0.231 C 
ATOM     20  O   UNL     1       0.430  -1.202  -1.243  0.00  0.00    -0.274 OA
ATOM     21  N   UNL     1       1.587  -2.929  -2.018  0.00  0.00    -0.328 N 
ATOM     22  H   UNL     1       0.826  -3.640  -1.666  0.00  0.00    +0.145 HD
ATOM     23  H   UNL     1       2.485  -3.296  -2.537  0.00  0.00    +0.145 HD
ENDBRANCH  18  19
BRANCH  16  24
ATOM     24  O   UNL     1       5.118   0.917  -0.436  0.00  0.00    -0.390 OA
ATOM     25  H   UNL     1       5.963   0.317  -0.065  0.00  0.00    +0.210 HD
ENDBRANCH  16  24
BRANCH   1  26
ATOM     26  C   UNL     1       0.912   1.394  -6.577  0.00  0.00    +0.150 C 
BRANCH  26  27
ATOM     27  S   UNL     1       1.894   2.801  -7.166  0.00  0.00    -0.117 S 
BRANCH  27  33
ATOM     28  C   UNL     1       1.746   1.230  -9.402  0.00  0.00    +0.016 A 
ATOM     29  C   UNL     1       2.004   0.932 -10.725  0.00  0.00    +0.021 A 
ATOM     30  C   UNL     1       2.747   1.804 -11.501  0.00  0.00    +0.041 A 
ATOM     31  C   UNL     1       3.229   2.981 -10.955  0.00  0.00    +0.021 A 
ATOM     32  C   UNL     1       2.971   3.288  -9.634  0.00  0.00    +0.016 A 
ATOM     33  C   UNL     1       2.225   2.413  -8.852  0.00  0.00    +0.008 A 
ATOM     34 CL   UNL     1       3.075   1.422 -13.162  0.00  0.00    -0.084 Cl
ENDBRANCH  27  33
ENDBRANCH  26  27
ENDBRANCH   1  26
TORSDOF 5
