REMARK  Name = ZINC20025098
REMARK  4 active torsions:
REMARK  status: ('A' for Active; 'I' for Inactive)
REMARK    1  A    between atoms: C_1  and  C_2
REMARK    2  A    between atoms: C_2  and  C_3
REMARK    3  A    between atoms: C_2  and  C_4
REMARK    4  A    between atoms: C_10  and  C_11
REMARK                            x       y       z     vdW  Elec       q    Type
REMARK                         _______ _______ _______ _____ _____    ______ ____
ROOT
ATOM      1  C   UNL     1      -1.641  -0.004   0.734  0.00  0.00    +0.102 C 
ATOM      2  N   UNL     1      -2.528  -0.414   1.595  0.00  0.00    -0.169 NA
ATOM      3  N   UNL     1      -3.707  -0.998   1.184  0.00  0.00    -0.152 N 
ATOM      4  C   UNL     1      -4.770  -1.393   2.025  0.00  0.00    +0.152 C 
ATOM      5  N   UNL     1      -4.965  -0.896   3.218  0.00  0.00    -0.283 NA
ATOM      6  C   UNL     1      -5.646  -2.432   1.419  0.00  0.00    +0.081 C 
ATOM      7  C   UNL     1      -6.263  -3.403   2.187  0.00  0.00    +0.026 C 
ATOM      8  C   UNL     1      -5.825  -2.371  -0.051  0.00  0.00    +0.273 C 
ATOM      9  O   UNL     1      -6.820  -2.837  -0.582  0.00  0.00    -0.268 OA
ATOM     10  N   UNL     1      -4.856  -1.785  -0.784  0.00  0.00    -0.152 NA
ATOM     11  C   UNL     1      -3.868  -1.183  -0.173  0.00  0.00    +0.181 C 
ATOM     12  S   UNL     1      -2.408  -0.418  -0.827  0.00  0.00    -0.038 S 
ATOM     13  H   UNL     1      -4.392  -0.186   3.547  0.00  0.00    +0.188 HD
ENDROOT
BRANCH   7  14
ATOM     14  C   UNL     1      -5.942  -3.529   3.558  0.00  0.00    +0.001 A 
ATOM     15  C   UNL     1      -4.728  -3.250   4.155  0.00  0.00    +0.091 A 
ATOM     16  N   UNL     1      -4.810  -3.492   5.478  0.00  0.00    -0.360 N 
ATOM     17  H   UNL     1      -4.082  -3.368   6.107  0.00  0.00    +0.165 HD
ATOM     18  C   UNL     1      -6.072  -3.939   5.816  0.00  0.00    +0.047 A 
ATOM     19  C   UNL     1      -6.839  -3.978   4.641  0.00  0.00    +0.007 A 
ATOM     20  C   UNL     1      -8.167  -4.392   4.686  0.00  0.00    +0.010 A 
ATOM     21  C   UNL     1      -8.726  -4.759   5.892  0.00  0.00    +0.001 A 
ATOM     22  C   UNL     1      -7.971  -4.717   7.054  0.00  0.00    +0.002 A 
ATOM     23  C   UNL     1      -6.653  -4.317   7.021  0.00  0.00    +0.026 A 
ENDBRANCH   7  14
BRANCH   1  25
ATOM     24  C   UNL     1      -0.473   2.175   0.921  0.00  0.00    +0.014 C 
ATOM     25  C   UNL     1      -0.310   0.655   0.989  0.00  0.00    +0.040 C 
ATOM     26  C   UNL     1       0.198   0.259   2.377  0.00  0.00    +0.014 C 
ENDBRANCH   1  25
TORSDOF 2
