REMARK  Name = ZINC09905763
REMARK  11 active torsions:
REMARK  status: ('A' for Active; 'I' for Inactive)
REMARK    1  A    between atoms: C_1  and  C_2
REMARK    2  A    between atoms: C_4  and  C_16
REMARK    3  A    between atoms: C_5  and  C_15
REMARK    4  A    between atoms: N_6  and  C_7
REMARK    5  A    between atoms: N_11  and  C_12
REMARK    6  A    between atoms: C_12  and  C_13
REMARK    7  A    between atoms: C_12  and  C_14
REMARK    8  A    between atoms: C_17  and  C_18
REMARK    9  A    between atoms: N_20  and  C_21
REMARK   10  A    between atoms: C_23  and  C_32
REMARK   11  A    between atoms: C_26  and  N_27
REMARK                            x       y       z     vdW  Elec       q    Type
REMARK                         _______ _______ _______ _____ _____    ______ ____
ROOT
ATOM      1  C   UNL     1      -4.616   8.778   1.598  0.00  0.00    +0.241 C 
ATOM      2  O   UNL     1      -5.791   8.715   1.913  0.00  0.00    -0.270 OA
ATOM      3  N   UNL     1      -4.021   9.978   1.452  0.00  0.00    -0.280 N 
ATOM      4  H   UNL     1      -3.104  10.031   1.140  0.00  0.00    +0.155 HD
ENDROOT
BRANCH   3   5
ATOM      5  C   UNL     1      -4.726  11.151   1.753  0.00  0.00    +0.056 A 
ATOM      6  C   UNL     1      -6.095  11.201   1.570  0.00  0.00    +0.038 A 
ATOM      7  C   UNL     1      -6.795  12.372   1.871  0.00  0.00    +0.038 A 
ATOM      8  C   UNL     1      -6.109  13.489   2.357  0.00  0.00    +0.015 A 
ATOM      9  C   UNL     1      -4.745  13.435   2.537  0.00  0.00    +0.026 A 
ATOM     10  C   UNL     1      -4.047  12.270   2.244  0.00  0.00    +0.051 A 
BRANCH  10  11
ATOM     11  N   UNL     1      -2.668  12.218   2.434  0.00  0.00    -0.328 N 
ATOM     12  C   UNL     1      -2.166  13.480   3.034  0.00  0.00    +0.105 C 
ATOM     13  C   UNL     1      -0.803  13.065   3.643  0.00  0.00    +0.020 C 
ATOM     14  C   UNL     1      -1.083  11.643   4.181  0.00  0.00    +0.020 C 
ATOM     15  C   UNL     1      -2.304  11.146   3.385  0.00  0.00    +0.105 C 
ENDBRANCH  10  11
BRANCH   7  16
ATOM     16  C   UNL     1      -8.257  12.430   1.677  0.00  0.00    +0.242 C 
ATOM     17  O   UNL     1      -8.853  11.458   1.254  0.00  0.00    -0.270 OA
ATOM     18  N   UNL     1      -8.931  13.560   1.968  0.00  0.00    -0.325 N 
ATOM     19  H   UNL     1      -8.455  14.336   2.305  0.00  0.00    +0.145 HD
ATOM     20  H   UNL     1      -9.892  13.599   1.840  0.00  0.00    +0.145 HD
ENDBRANCH   7  16
ENDBRANCH   3   5
BRANCH   1  22
ATOM     21  C   UNL     1      -4.473   6.385   1.529  0.00  0.00    +0.015 C 
ATOM     22  C   UNL     1      -3.876   7.590   1.383  0.00  0.00    +0.068 C 
BRANCH  21  26
ATOM     23  C   UNL     1      -0.672   3.154   0.477  0.00  0.00    +0.064 C 
ATOM     24  C   UNL     1      -2.012   3.739   0.839  0.00  0.00    +0.023 A 
ATOM     25  C   UNL     1      -2.292   5.051   0.925  0.00  0.00    +0.031 A 
ATOM     26  C   UNL     1      -3.705   5.154   1.307  0.00  0.00    -0.004 A 
ATOM     27  C   UNL     1      -4.167   3.857   1.415  0.00  0.00    +0.029 A 
ATOM     28  N   UNL     1      -3.139   3.021   1.128  0.00  0.00    -0.302 N 
ATOM     29  C   UNL     1      -5.567   3.443   1.787  0.00  0.00    +0.064 C 
BRANCH  28  30
ATOM     30  C   UNL     1      -3.218   1.626   1.132  0.00  0.00    +0.136 A 
ATOM     31  C   UNL     1      -3.578   0.844   2.185  0.00  0.00    +0.068 A 
ATOM     32  C   UNL     1      -3.521  -0.489   1.769  0.00  0.00    +0.136 A 
ATOM     33  N   UNL     1      -3.147  -0.515   0.515  0.00  0.00    -0.178 NA
ATOM     34  N   UNL     1      -2.952   0.803   0.084  0.00  0.00    -0.246 N 
BRANCH  34  35
ATOM     35  C   UNL     1      -2.531   1.220  -1.256  0.00  0.00    +0.103 C 
ATOM     36  C   UNL     1      -3.591   0.802  -2.276  0.00  0.00    +0.032 C 
ATOM     37  C   UNL     1      -1.198   0.553  -1.602  0.00  0.00    +0.032 C 
ENDBRANCH  34  35
ENDBRANCH  28  30
ENDBRANCH  21  26
ENDBRANCH   1  22
TORSDOF 7
