REMARK  Name = ZINC62977223
REMARK  10 active torsions:
REMARK  status: ('A' for Active; 'I' for Inactive)
REMARK    1  A    between atoms: C_1  and  C_2
REMARK    2  A    between atoms: C_2  and  N_3
REMARK    3  A    between atoms: N_3  and  C_4
REMARK    4  A    between atoms: N_3  and  C_6
REMARK    5  A    between atoms: C_4  and  C_5
REMARK    6  A    between atoms: C_9  and  C_12
REMARK    7  A    between atoms: C_19  and  O_37
REMARK    8  A    between atoms: C_20  and  C_23
REMARK    9  A    between atoms: C_23  and  N_24
REMARK   10  A    between atoms: N_27  and  C_30
REMARK                            x       y       z     vdW  Elec       q    Type
REMARK                         _______ _______ _______ _____ _____    ______ ____
ROOT
ATOM      1  C   UNL     1      -1.322  -6.124   0.448  0.00  0.00    +0.058 C 
ATOM      2  C   UNL     1      -1.823  -6.734   1.551  0.00  0.00    +0.176 C 
ATOM      3  C   UNL     1      -2.515  -6.075   2.671  0.00  0.00    +0.231 C 
ATOM      4  O   UNL     1      -2.757  -4.888   2.804  0.00  0.00    -0.283 OA
ATOM      5  C   UNL     1      -2.851  -7.173   3.595  0.00  0.00    +0.068 A 
ATOM      6  C   UNL     1      -3.503  -7.217   4.828  0.00  0.00    +0.019 A 
ATOM      7  C   UNL     1      -3.672  -8.413   5.466  0.00  0.00    +0.046 A 
ATOM      8  C   UNL     1      -3.195  -9.587   4.889  0.00  0.00    +0.125 A 
ATOM      9  C   UNL     1      -2.546  -9.558   3.666  0.00  0.00    +0.051 A 
ATOM     10  C   UNL     1      -2.366  -8.351   3.003  0.00  0.00    +0.147 A 
ATOM     11  O   UNL     1      -1.782  -8.060   1.820  0.00  0.00    -0.451 OA
ENDROOT
BRANCH   1  15
ATOM     12  C   UNL     1      -1.210  -1.891   0.234  0.00  0.00    +0.013 A 
ATOM     13  C   UNL     1      -1.496  -2.630  -0.901  0.00  0.00    +0.022 A 
ATOM     14  C   UNL     1      -1.534  -4.007  -0.840  0.00  0.00    +0.010 A 
ATOM     15  C   UNL     1      -1.283  -4.656   0.374  0.00  0.00    -0.021 A 
ATOM     16  C   UNL     1      -0.994  -3.901   1.516  0.00  0.00    +0.010 A 
ATOM     17  C   UNL     1      -0.954  -2.526   1.437  0.00  0.00    +0.022 A 
BRANCH  12  18
ATOM     18  N   UNL     1      -1.173  -0.495   0.163  0.00  0.00    -0.394 NA
ATOM     19  H   UNL     1      -0.947  -0.118   1.071  0.00  0.00    +0.126 HD
BRANCH  18  21
ATOM     20  C   UNL     1      -0.022   1.444  -0.794  0.00  0.00    +0.022 C 
ATOM     21  C   UNL     1      -0.150  -0.081  -0.807  0.00  0.00    +0.081 C 
ENDBRANCH  18  21
BRANCH  18  22
ATOM     22  C   UNL     1      -2.485   0.009  -0.264  0.00  0.00    +0.081 C 
ATOM     23  C   UNL     1      -3.528  -0.315   0.807  0.00  0.00    +0.022 C 
ENDBRANCH  18  22
ENDBRANCH  12  18
ENDBRANCH   1  15
BRANCH   8  24
ATOM     24  O   UNL     1      -3.367 -10.771   5.532  0.00  0.00    -0.506 OA
ATOM     25  H   UNL     1      -4.191 -11.225   5.306  0.00  0.00    +0.292 HD
ENDBRANCH   8  24
BRANCH   9  26
ATOM     26  C   UNL     1      -2.035 -10.837   3.054  0.00  0.00    +0.127 C 
BRANCH  26  27
ATOM     27  N   UNL     1      -3.081 -11.428   2.208  0.00  0.00    -0.295 NA
ATOM     28  C   UNL     1      -4.232 -11.854   3.014  0.00  0.00    +0.103 C 
ATOM     29  C   UNL     1      -5.368 -12.294   2.085  0.00  0.00    +0.120 C 
ATOM     30  N   UNL     1      -4.846 -13.311   1.159  0.00  0.00    -0.327 N 
ATOM     31  C   UNL     1      -3.614 -13.009   0.415  0.00  0.00    +0.120 C 
ATOM     32  C   UNL     1      -2.547 -12.540   1.411  0.00  0.00    +0.103 C 
BRANCH  30  33
ATOM     33  C   UNL     1      -5.505 -14.533   0.991  0.00  0.00    +0.030 A 
ATOM     34  C   UNL     1      -6.731 -14.753   1.605  0.00  0.00    +0.026 A 
ATOM     35  C   UNL     1      -7.379 -15.961   1.437  0.00  0.00    +0.040 A 
ATOM     36  C   UNL     1      -6.808 -16.952   0.658  0.00  0.00    +0.124 A 
ATOM     37  C   UNL     1      -5.585 -16.735   0.045  0.00  0.00    +0.040 A 
ATOM     38  C   UNL     1      -4.936 -15.527   0.206  0.00  0.00    +0.026 A 
ATOM     39  F   UNL     1      -7.444 -18.133   0.495  0.00  0.00    -0.205 F 
ENDBRANCH  30  33
ENDBRANCH  26  27
ENDBRANCH   9  26
TORSDOF 8
