REMARK  Name = ZINC10050107
REMARK  11 active torsions:
REMARK  status: ('A' for Active; 'I' for Inactive)
REMARK    1  A    between atoms: C_1  and  C_2
REMARK    2  A    between atoms: C_6  and  N_8
REMARK    3  A    between atoms: C_9  and  C_37
REMARK    4  A    between atoms: N_18  and  C_23
REMARK    5  A    between atoms: N_21  and  C_22
REMARK    6  A    between atoms: C_23  and  C_24
REMARK    7  A    between atoms: C_24  and  C_26
REMARK    8  A    between atoms: C_24  and  C_27
REMARK    9  A    between atoms: C_27  and  N_71
REMARK   10  A    between atoms: C_29  and  C_36
REMARK   11  A    between atoms: C_32  and  C_35
REMARK                            x       y       z     vdW  Elec       q    Type
REMARK                         _______ _______ _______ _____ _____    ______ ____
ROOT
ATOM      1  N   UNL     1       2.177  -2.085  -3.035  0.00  0.00    -0.283 N 
ATOM      2  C   UNL     1       3.445  -1.537  -3.105  0.00  0.00    +0.040 A 
ATOM      3  C   UNL     1       3.390  -0.301  -2.618  0.00  0.00    +0.116 A 
ATOM      4  N   UNL     1       2.087  -0.042  -2.231  0.00  0.00    -0.277 N 
ATOM      5  C   UNL     1       1.343  -1.143  -2.489  0.00  0.00    +0.223 A 
ATOM      6  N   UNL     1       0.089  -0.917  -2.126  0.00  0.00    -0.193 NA
ATOM      7  C   UNL     1      -0.026   0.311  -1.629  0.00  0.00    +0.170 A 
ATOM      8  C   UNL     1       1.235   0.903  -1.681  0.00  0.00    +0.157 A 
ATOM      9  C   UNL     1       1.395   2.217  -1.211  0.00  0.00    +0.283 A 
ATOM     10  O   UNL     1       2.488   2.755  -1.246  0.00  0.00    -0.265 OA
ATOM     11  N   UNL     1       0.326   2.879  -0.722  0.00  0.00    -0.259 N 
ATOM     12  C   UNL     1      -0.887   2.300  -0.676  0.00  0.00    +0.333 A 
ATOM     13  O   UNL     1      -1.828   2.930  -0.233  0.00  0.00    -0.246 OA
ATOM     14  N   UNL     1      -1.086   1.043  -1.115  0.00  0.00    -0.279 N 
ATOM     15  C   UNL     1      -2.423   0.448  -1.049  0.00  0.00    +0.155 C 
ATOM     16  C   UNL     1       4.676  -2.223  -3.639  0.00  0.00    +0.065 C 
ENDROOT
BRANCH   1  22
ATOM     17  C   UNL     1       2.527  -6.961  -2.505  0.00  0.00    +0.044 C 
ATOM     18  C   UNL     1       1.965  -5.753  -3.209  0.00  0.00    -0.048 A 
ATOM     19  C   UNL     1       1.087  -5.915  -4.265  0.00  0.00    +0.003 A 
ATOM     20  C   UNL     1       0.570  -4.809  -4.913  0.00  0.00    +0.002 A 
ATOM     21  C   UNL     1       0.929  -3.538  -4.508  0.00  0.00    +0.026 A 
ATOM     22  C   UNL     1       1.810  -3.372  -3.448  0.00  0.00    +0.050 A 
ATOM     23  C   UNL     1       2.332  -4.485  -2.802  0.00  0.00    +0.029 A 
ENDBRANCH   1  22
BRANCH  11  24
ATOM     24  C   UNL     1       0.489   4.250  -0.232  0.00  0.00    +0.131 C 
BRANCH  24  25
ATOM     25  C   UNL     1       0.836   4.221   1.258  0.00  0.00    -0.011 C 
ATOM     26  C   UNL     1      -0.343   3.648   2.046  0.00  0.00    +0.007 C 
BRANCH  25  27
ATOM     27  C   UNL     1       1.129   5.644   1.740  0.00  0.00    -0.074 C 
BRANCH  27  35
ATOM     28  C   UNL     1       3.539   5.476   1.590  0.00  0.00    -0.076 C 
ATOM     29  C   UNL     1       4.759   5.917   0.778  0.00  0.00    -0.031 C 
ATOM     30  C   UNL     1       4.915   7.436   0.887  0.00  0.00    +0.003 C 
ATOM     31  C   UNL     1       3.633   8.110   0.391  0.00  0.00    -0.031 C 
ATOM     32  C   UNL     1       2.446   7.605   1.214  0.00  0.00    -0.076 C 
ATOM     33  C   UNL     1       3.758   9.627   0.551  0.00  0.00    +0.005 C 
ATOM     34  C   UNL     1       4.565   5.527  -0.688  0.00  0.00    +0.005 C 
ATOM     35  N   UNL     1       2.335   6.140   1.047  0.00  0.00    +0.380 N 
ATOM     36  H   UNL     1       2.258   5.923   0.047  0.00  0.00    -0.082 HD
ENDBRANCH  27  35
ENDBRANCH  25  27
ENDBRANCH  24  25
ENDBRANCH  11  24
TORSDOF 5
