REMARK  Name = ZINC01323540
REMARK  10 active torsions:
REMARK  status: ('A' for Active; 'I' for Inactive)
REMARK    1  A    between atoms: C_1  and  C_2
REMARK    2  A    between atoms: C_2  and  C_3
REMARK    3  A    between atoms: N_5  and  C_6
REMARK    4  A    between atoms: C_6  and  C_7
REMARK    5  A    between atoms: C_7  and  C_8
REMARK    6  A    between atoms: C_17  and  C_18
REMARK    7  A    between atoms: C_20  and  O_35
REMARK    8  A    between atoms: N_24  and  C_27
REMARK    9  A    between atoms: C_30  and  C_34
REMARK   10  A    between atoms: C_32  and  C_33
REMARK                            x       y       z     vdW  Elec       q    Type
REMARK                         _______ _______ _______ _____ _____    ______ ____
ROOT
ATOM      1  C   UNL     1       4.600   3.323   1.824  0.00  0.00    +0.044 C 
ATOM      2  C   UNL     1       3.902   2.193   1.411  0.00  0.00    +0.098 C 
ATOM      3  C   UNL     1       4.156   0.874   2.006  0.00  0.00    +0.218 C 
ATOM      4  N   UNL     1       3.458  -0.161   1.568  0.00  0.00    -0.127 NA
ATOM      5  C   UNL     1       2.541  -0.040   0.613  0.00  0.00    +0.340 C 
ATOM      6  O   UNL     1       1.939  -1.040   0.263  0.00  0.00    -0.250 OA
ATOM      7  N   UNL     1       2.242   1.122   0.013  0.00  0.00    -0.188 N 
ATOM      8  C   UNL     1       2.877   2.264   0.352  0.00  0.00    +0.263 C 
ATOM      9  O   UNL     1       2.611   3.318  -0.195  0.00  0.00    -0.269 OA
ENDROOT
BRANCH   1  19
ATOM     10  C   UNL     1       5.069   5.593   0.940  0.00  0.00    -0.013 A 
ATOM     11  C   UNL     1       4.279   6.700   0.564  0.00  0.00    +0.003 A 
ATOM     12  C   UNL     1       4.588   7.975   0.064  0.00  0.00    +0.010 A 
ATOM     13  C   UNL     1       3.585   8.856  -0.214  0.00  0.00    +0.001 A 
ATOM     14  C   UNL     1       2.257   8.504  -0.007  0.00  0.00    +0.002 A 
ATOM     15  C   UNL     1       1.927   7.260   0.482  0.00  0.00    +0.026 A 
ATOM     16  C   UNL     1       2.932   6.342   0.774  0.00  0.00    +0.047 A 
ATOM     17  N   UNL     1       2.911   5.054   1.257  0.00  0.00    -0.354 N 
ATOM     18  H   UNL     1       2.115   4.550   1.487  0.00  0.00    +0.166 HD
ATOM     19  C   UNL     1       4.213   4.596   1.364  0.00  0.00    +0.044 A 
BRANCH  10  20
ATOM     20  C   UNL     1       6.573   5.512   0.888  0.00  0.00    +0.056 C 
BRANCH  20  21
ATOM     21  C   UNL     1       7.009   4.975  -0.477  0.00  0.00    +0.109 C 
BRANCH  21  24
ATOM     22  C   UNL     1       9.084   4.448  -1.641  0.00  0.00    +0.213 C 
ATOM     23  O   UNL     1       8.425   4.109  -2.601  0.00  0.00    -0.276 OA
ATOM     24  N   UNL     1       8.471   4.897  -0.528  0.00  0.00    -0.315 N 
ATOM     25  H   UNL     1       8.998   5.168   0.240  0.00  0.00    +0.149 HD
BRANCH  22  27
ATOM     26  C   UNL     1      11.023   3.831  -3.058  0.00  0.00    +0.013 C 
ATOM     27  C   UNL     1      10.588   4.368  -1.693  0.00  0.00    +0.092 C 
ENDBRANCH  22  27
ENDBRANCH  21  24
ENDBRANCH  20  21
ENDBRANCH  10  20
ENDBRANCH   1  19
BRANCH   7  28
ATOM     28  C   UNL     1       1.260   1.150  -0.985  0.00  0.00    +0.049 A 
ATOM     29  C   UNL     1      -0.068   1.378  -0.649  0.00  0.00    +0.024 A 
ATOM     30  C   UNL     1      -1.034   1.405  -1.635  0.00  0.00    +0.005 A 
ATOM     31  C   UNL     1      -0.680   1.206  -2.957  0.00  0.00    -0.050 A 
ATOM     32  C   UNL     1       0.642   0.984  -3.296  0.00  0.00    +0.008 A 
ATOM     33  C   UNL     1       1.612   0.950  -2.313  0.00  0.00    -0.028 A 
ATOM     34  C   UNL     1       3.052   0.702  -2.683  0.00  0.00    +0.046 C 
ATOM     35  C   UNL     1      -1.737   1.238  -4.031  0.00  0.00    +0.044 C 
ENDBRANCH   7  28
BRANCH   3  36
ATOM     36  O   UNL     1       5.081   0.721   2.978  0.00  0.00    -0.493 OA
ATOM     37  H   UNL     1       5.168  -0.187   3.299  0.00  0.00    +0.294 HD
ENDBRANCH   3  36
TORSDOF 7
