REMARK  Name = ZINC41656473
REMARK  4 active torsions:
REMARK  status: ('A' for Active; 'I' for Inactive)
REMARK    1  A    between atoms: C_1  and  C_2
REMARK    2  A    between atoms: C_2  and  C_4
REMARK    3  A    between atoms: C_2  and  N_10
REMARK    4  A    between atoms: C_20  and  C_21
REMARK                            x       y       z     vdW  Elec       q    Type
REMARK                         _______ _______ _______ _____ _____    ______ ____
ROOT
ATOM      1  N   UNL     1       0.713  -0.491   1.192  0.00  0.00    -0.259 NA
ATOM      2  C   UNL     1       0.037  -0.057   2.423  0.00  0.00    +0.130 C 
ATOM      3  C   UNL     1       0.681  -0.720   3.614  0.00  0.00    +0.051 A 
ATOM      4  C   UNL     1       1.484  -1.837   3.457  0.00  0.00    +0.130 A 
ATOM      5  C   UNL     1       2.071  -2.444   4.566  0.00  0.00    +0.047 A 
ATOM      6  C   UNL     1       1.863  -1.944   5.820  0.00  0.00    +0.019 A 
ATOM      7  C   UNL     1       1.058  -0.818   5.992  0.00  0.00    +0.068 A 
ATOM      8  C   UNL     1       0.460  -0.198   4.882  0.00  0.00    +0.147 A 
ATOM      9  O   UNL     1      -0.262   0.859   5.312  0.00  0.00    -0.451 OA
ATOM     10  C   UNL     1      -0.189   0.995   6.656  0.00  0.00    +0.179 C 
ATOM     11  C   UNL     1      -0.805   1.963   7.394  0.00  0.00    +0.096 C 
ATOM     12  C   UNL     1       0.637  -0.041   7.170  0.00  0.00    +0.232 C 
ATOM     13  O   UNL     1       0.935  -0.242   8.336  0.00  0.00    -0.283 OA
ATOM     14  O   UNL     1       1.716  -2.357   2.223  0.00  0.00    -0.476 OA
ATOM     15  C   UNL     1       0.835  -1.958   1.171  0.00  0.00    +0.319 C 
ENDROOT
BRANCH  11  16
ATOM     16  C   UNL     1      -1.603   2.938   6.755  0.00  0.00    +0.131 A 
ATOM     17  C   UNL     1      -2.277   3.973   7.375  0.00  0.00    +0.049 A 
ATOM     18  C   UNL     1      -2.934   4.685   6.360  0.00  0.00    +0.042 A 
ATOM     19  C   UNL     1      -2.643   4.074   5.190  0.00  0.00    +0.195 A 
ATOM     20  O   UNL     1      -1.840   3.028   5.429  0.00  0.00    -0.463 OA
ENDBRANCH  11  16
BRANCH   1  22
ATOM     21  C   UNL     1      -0.019   1.526   0.010  0.00  0.00    +0.029 C 
ATOM     22  C   UNL     1       0.002  -0.004   0.002  0.00  0.00    +0.087 C 
BRANCH  22  23
ATOM     23  C   UNL     1       0.707  -0.490  -1.238  0.00  0.00    -0.030 A 
ATOM     24  C   UNL     1       2.089  -0.511  -1.284  0.00  0.00    +0.005 A 
ATOM     25  C   UNL     1       2.736  -0.957  -2.421  0.00  0.00    +0.000 A 
ATOM     26  C   UNL     1       2.002  -1.382  -3.512  0.00  0.00    +0.000 A 
ATOM     27  C   UNL     1       0.620  -1.362  -3.466  0.00  0.00    +0.000 A 
ATOM     28  C   UNL     1      -0.027  -0.920  -2.327  0.00  0.00    +0.005 A 
ENDBRANCH  22  23
ENDBRANCH   1  22
TORSDOF 3
