REMARK  Name = ZINC09345293
REMARK  9 active torsions:
REMARK  status: ('A' for Active; 'I' for Inactive)
REMARK    1  A    between atoms: C_1  and  C_2
REMARK    2  A    between atoms: C_2  and  O_3
REMARK    3  A    between atoms: O_3  and  C_4
REMARK    4  A    between atoms: C_7  and  C_10
REMARK    5  A    between atoms: C_27  and  C_29
REMARK    6  A    between atoms: C_32  and  O_37
REMARK    7  A    between atoms: C_33  and  O_35
REMARK    8  A    between atoms: O_35  and  C_36
REMARK    9  A    between atoms: O_37  and  C_38
REMARK                            x       y       z     vdW  Elec       q    Type
REMARK                         _______ _______ _______ _____ _____    ______ ____
ROOT
ATOM      1  C   UNL     1       1.144  -6.059   1.764  0.00  0.00    +0.234 C 
ATOM      2  C   UNL     1       2.508  -6.498   1.316  0.00  0.00    +0.028 C 
ATOM      3  C   UNL     1       3.535  -6.549   2.190  0.00  0.00    +0.083 C 
ATOM      4  C   UNL     1       3.257  -6.166   3.597  0.00  0.00    +0.042 A 
ATOM      5  C   UNL     1       4.282  -5.872   4.486  0.00  0.00    +0.013 A 
ATOM      6  C   UNL     1       3.978  -5.519   5.786  0.00  0.00    +0.001 A 
ATOM      7  C   UNL     1       2.659  -5.458   6.201  0.00  0.00    +0.004 A 
ATOM      8  C   UNL     1       1.632  -5.749   5.322  0.00  0.00    +0.046 A 
ATOM      9  C   UNL     1       1.922  -6.106   4.017  0.00  0.00    +0.131 A 
ATOM     10  O   UNL     1       0.939  -6.404   3.136  0.00  0.00    -0.479 OA
ATOM     11  N   UNL     1       4.774  -6.936   1.798  0.00  0.00    -0.216 NA
ATOM     12  C   UNL     1       5.081  -7.297   0.572  0.00  0.00    +0.209 C 
ATOM     13  N   UNL     1       6.258  -7.714   0.009  0.00  0.00    -0.275 N 
ATOM     14  C   UNL     1       6.029  -7.974  -1.321  0.00  0.00    +0.208 C 
ATOM     15  N   UNL     1       4.786  -7.737  -1.595  0.00  0.00    -0.169 NA
ATOM     16  N   UNL     1       4.153  -7.306  -0.428  0.00  0.00    -0.182 N 
ATOM     17  C   UNL     1       2.775  -6.897  -0.118  0.00  0.00    +0.163 C 
ATOM     18  H   UNL     1       7.107  -7.811   0.469  0.00  0.00    +0.156 HD
ENDROOT
BRANCH   1  22
ATOM     19  C   UNL     1       0.802  -1.824   1.306  0.00  0.00    +0.121 A 
ATOM     20  C   UNL     1       0.260  -2.673   0.351  0.00  0.00    +0.046 A 
ATOM     21  C   UNL     1       0.372  -4.041   0.502  0.00  0.00    +0.011 A 
ATOM     22  C   UNL     1       1.024  -4.566   1.603  0.00  0.00    -0.003 A 
ATOM     23  C   UNL     1       1.565  -3.722   2.555  0.00  0.00    +0.011 A 
ATOM     24  C   UNL     1       1.460  -2.353   2.406  0.00  0.00    +0.046 A 
BRANCH  19  25
ATOM     25  O   UNL     1       0.693  -0.477   1.160  0.00  0.00    -0.492 OA
BRANCH  25  27
ATOM     26  C   UNL     1      -0.019   1.526   0.010  0.00  0.00    +0.048 C 
ATOM     27  C   UNL     1       0.002  -0.004   0.002  0.00  0.00    +0.225 C 
ENDBRANCH  25  27
ENDBRANCH  19  25
ENDBRANCH   1  22
BRANCH  17  28
ATOM     28  C   UNL     1       2.421  -5.730  -1.003  0.00  0.00    -0.017 A 
ATOM     29  C   UNL     1       3.311  -4.683  -1.153  0.00  0.00    +0.009 A 
ATOM     30  C   UNL     1       2.990  -3.610  -1.964  0.00  0.00    +0.050 A 
ATOM     31  C   UNL     1       1.776  -3.584  -2.630  0.00  0.00    +0.162 A 
ATOM     32  C   UNL     1       0.880  -4.638  -2.480  0.00  0.00    +0.162 A 
ATOM     33  C   UNL     1       1.210  -5.713  -1.669  0.00  0.00    +0.055 A 
BRANCH  32  34
ATOM     34  O   UNL     1      -0.313  -4.617  -3.132  0.00  0.00    -0.491 OA
ATOM     35  C   UNL     1      -1.182  -5.734  -2.931  0.00  0.00    +0.277 C 
ENDBRANCH  32  34
BRANCH  31  36
ATOM     36  O   UNL     1       1.459  -2.529  -3.428  0.00  0.00    -0.491 OA
ATOM     37  C   UNL     1       2.426  -1.482  -3.534  0.00  0.00    +0.277 C 
ENDBRANCH  31  36
ENDBRANCH  17  28
TORSDOF 6
