REMARK  Name = ZINC01402112
REMARK  5 active torsions:
REMARK  status: ('A' for Active; 'I' for Inactive)
REMARK    1  A    between atoms: C_1  and  C_2
REMARK    2  A    between atoms: C_9  and  C_24
REMARK    3  A    between atoms: C_11  and  S_15
REMARK    4  A    between atoms: C_12  and  N_14
REMARK    5  A    between atoms: S_15  and  C_18
REMARK                            x       y       z     vdW  Elec       q    Type
REMARK                         _______ _______ _______ _____ _____    ______ ____
ROOT
ATOM      1  C   UNL     1       3.781   2.044   0.474  0.00  0.00    +0.086 C 
ATOM      2  C   UNL     1       2.479   1.308   0.290  0.00  0.00    +0.110 A 
ATOM      3  C   UNL     1       2.467  -0.037   0.337  0.00  0.00    +0.088 A 
ATOM      4  C   UNL     1       1.249  -0.732   0.166  0.00  0.00    +0.144 A 
ATOM      5  C   UNL     1       0.095  -0.006  -0.046  0.00  0.00    +0.092 A 
ATOM      6  C   UNL     1       0.169   1.391  -0.085  0.00  0.00    +0.345 A 
ATOM      7  O   UNL     1      -0.840   2.051  -0.277  0.00  0.00    -0.245 OA
ATOM      8  O   UNL     1       1.353   2.006   0.083  0.00  0.00    -0.427 OA
ATOM      9  C   UNL     1      -1.223  -0.705  -0.232  0.00  0.00    +0.113 C 
ATOM     10  C   UNL     1      -0.998  -2.160  -0.534  0.00  0.00    +0.140 C 
ATOM     11  C   UNL     1       0.164  -2.744  -0.305  0.00  0.00    +0.206 C 
ATOM     12  O   UNL     1       1.220  -2.079   0.210  0.00  0.00    -0.440 OA
ENDROOT
BRANCH   9  13
ATOM     13  C   UNL     1      -2.038  -0.577   1.029  0.00  0.00    -0.034 A 
ATOM     14  C   UNL     1      -1.556  -1.090   2.219  0.00  0.00    +0.006 A 
ATOM     15  C   UNL     1      -2.301  -0.968   3.377  0.00  0.00    +0.020 A 
ATOM     16  C   UNL     1      -3.534  -0.341   3.343  0.00  0.00    +0.041 A 
ATOM     17  C   UNL     1      -4.019   0.167   2.151  0.00  0.00    +0.020 A 
ATOM     18  C   UNL     1      -3.271   0.049   0.995  0.00  0.00    +0.006 A 
ATOM     19 CL   UNL     1      -4.473  -0.193   4.796  0.00  0.00    -0.084 Cl
ENDBRANCH   9  13
BRANCH  11  20
ATOM     20  N   UNL     1       0.305  -4.093  -0.607  0.00  0.00    -0.328 N 
ATOM     21  H   UNL     1       0.708  -4.695   0.039  0.00  0.00    +0.145 HD
ATOM     22  H   UNL     1       0.001  -4.434  -1.463  0.00  0.00    +0.145 HD
ENDBRANCH  11  20
BRANCH  10  23
ATOM     23  S   UNL     1      -2.319  -3.111  -1.210  0.00  0.00    +0.027 S 
ATOM     24  O   UNL     1      -2.829  -2.372  -2.311  0.00  0.00    -0.164 OA
ATOM     25  O   UNL     1      -1.835  -4.440  -1.343  0.00  0.00    -0.164 OA
BRANCH  23  26
ATOM     26  C   UNL     1      -3.599  -3.159   0.000  0.00  0.00    +0.093 A 
ATOM     27  C   UNL     1      -3.627  -4.175   0.937  0.00  0.00    +0.027 A 
ATOM     28  C   UNL     1      -4.628  -4.210   1.889  0.00  0.00    +0.002 A 
ATOM     29  C   UNL     1      -5.608  -3.235   1.898  0.00  0.00    +0.000 A 
ATOM     30  C   UNL     1      -5.583  -2.221   0.958  0.00  0.00    +0.002 A 
ATOM     31  C   UNL     1      -4.578  -2.183   0.009  0.00  0.00    +0.027 A 
ENDBRANCH  23  26
ENDBRANCH  10  23
TORSDOF 4
