REMARK  Name = ZINC41075109
REMARK  2 active torsions:
REMARK  status: ('A' for Active; 'I' for Inactive)
REMARK    1  A    between atoms: C_4  and  N_8
REMARK    2  A    between atoms: C_5  and  N_7
REMARK                            x       y       z     vdW  Elec       q    Type
REMARK                         _______ _______ _______ _____ _____    ______ ____
ROOT
ATOM      1  N   UNL     1       3.645  -0.624   0.187  0.00  0.00    -0.325 N 
ATOM      2  C   UNL     1       4.175  -1.182  -1.065  0.00  0.00    +0.124 C 
ATOM      3  C   UNL     1       5.583  -0.619  -1.296  0.00  0.00    +0.125 C 
ATOM      4  N   UNL     1       6.363  -0.784  -0.061  0.00  0.00    -0.312 N 
ATOM      5  C   UNL     1       5.833  -0.227   1.191  0.00  0.00    +0.125 C 
ATOM      6  C   UNL     1       4.428  -0.785   1.421  0.00  0.00    +0.124 C 
ATOM      7  C   UNL     1       7.580  -1.457  -0.077  0.00  0.00    +0.121 A 
ATOM      8  C   UNL     1       8.173  -1.779  -1.294  0.00  0.00    +0.046 A 
ATOM      9  C   UNL     1       9.384  -2.448  -1.296  0.00  0.00    +0.043 A 
ATOM     10  C   UNL     1       9.964  -2.774  -0.075  0.00  0.00    +0.142 A 
ATOM     11  C   UNL     1       9.319  -2.423   1.095  0.00  0.00    +0.151 A 
ATOM     12  N   UNL     1       8.166  -1.780   1.065  0.00  0.00    -0.237 NA
ATOM     13  F   UNL     1      11.146  -3.428  -0.034  0.00  0.00    -0.204 F 
ENDROOT
BRANCH   1  17
ATOM     14  C   UNL     1      -0.005   1.395   0.234  0.00  0.00    +0.002 A 
ATOM     15  C   UNL     1       1.168   2.089   0.002  0.00  0.00    +0.002 A 
ATOM     16  C   UNL     1       2.379   1.422  -0.014  0.00  0.00    +0.025 A 
ATOM     17  C   UNL     1       2.420   0.053   0.203  0.00  0.00    +0.051 A 
ATOM     18  C   UNL     1       1.237  -0.647   0.438  0.00  0.00    +0.046 A 
ATOM     19  C   UNL     1       0.027   0.030   0.452  0.00  0.00    +0.024 A 
BRANCH  18  20
ATOM     20  N   UNL     1       1.271  -2.029   0.657  0.00  0.00    -0.357 N 
ATOM     21  H   UNL     1       2.118  -2.501   0.647  0.00  0.00    +0.142 HD
ATOM     22  H   UNL     1       0.447  -2.515   0.820  0.00  0.00    +0.142 HD
ENDBRANCH  18  20
ENDBRANCH   1  17
TORSDOF 2
