REMARK  Name = ZINC39914327
REMARK  12 active torsions:
REMARK  status: ('A' for Active; 'I' for Inactive)
REMARK    1  A    between atoms: C_1  and  C_2
REMARK    2  A    between atoms: C_2  and  C_3
REMARK    3  A    between atoms: C_3  and  C_4
REMARK    4  A    between atoms: C_4  and  N_5
REMARK    5  A    between atoms: C_6  and  C_25
REMARK    6  A    between atoms: C_9  and  C_16
REMARK    7  A    between atoms: C_19  and  C_23
REMARK    8  A    between atoms: C_21  and  O_22
REMARK    9  A    between atoms: C_28  and  O_34
REMARK   10  A    between atoms: C_29  and  O_31
REMARK   11  A    between atoms: O_31  and  C_32
REMARK   12  A    between atoms: C_32  and  C_33
REMARK                            x       y       z     vdW  Elec       q    Type
REMARK                         _______ _______ _______ _____ _____    ______ ____
ROOT
ATOM      1  N   UNL     1       1.708  -1.613  -3.022  0.00  0.00    -0.285 N 
ATOM      2  C   UNL     1       0.890  -2.207  -4.088  0.00  0.00    +0.141 C 
ATOM      3  C   UNL     1       1.830  -3.034  -4.922  0.00  0.00    +0.035 A 
ATOM      4  C   UNL     1       1.996  -3.879  -6.024  0.00  0.00    +0.102 A 
ATOM      5  N   UNL     1       3.271  -4.212  -6.078  0.00  0.00    -0.173 NA
ATOM      6  N   UNL     1       3.926  -3.661  -5.120  0.00  0.00    -0.272 N 
ATOM      7  H   UNL     1       4.878  -3.765  -4.963  0.00  0.00    +0.189 HD
ATOM      8  C   UNL     1       3.083  -2.906  -4.354  0.00  0.00    +0.126 A 
ATOM      9  C   UNL     1       2.979  -2.021  -3.189  0.00  0.00    +0.265 C 
ATOM     10  O   UNL     1       3.909  -1.703  -2.473  0.00  0.00    -0.268 OA
ENDROOT
BRANCH   4  11
ATOM     11  C   UNL     1       0.932  -4.321  -6.960  0.00  0.00    +0.045 A 
ATOM     12  C   UNL     1      -0.398  -3.988  -6.716  0.00  0.00    +0.034 A 
ATOM     13  C   UNL     1      -1.384  -4.401  -7.590  0.00  0.00    +0.045 A 
ATOM     14  C   UNL     1      -1.054  -5.146  -8.710  0.00  0.00    -0.029 A 
ATOM     15  C   UNL     1       0.262  -5.481  -8.961  0.00  0.00    +0.050 A 
ATOM     16  C   UNL     1       1.262  -5.068  -8.095  0.00  0.00    +0.126 A 
ATOM     17  C   UNL     1      -2.137  -5.593  -9.658  0.00  0.00    +0.045 C 
ATOM     18 CL   UNL     1      -3.041  -3.985  -7.284  0.00  0.00    -0.083 Cl
BRANCH  16  19
ATOM     19  O   UNL     1       2.557  -5.393  -8.344  0.00  0.00    -0.506 OA
ATOM     20  H   UNL     1       2.834  -6.233  -7.953  0.00  0.00    +0.292 HD
ENDBRANCH  16  19
ENDBRANCH   4  11
BRANCH   2  21
ATOM     21  C   UNL     1       0.267  -1.122  -4.929  0.00  0.00    -0.019 A 
ATOM     22  C   UNL     1      -1.078  -1.179  -5.242  0.00  0.00    +0.009 A 
ATOM     23  C   UNL     1      -1.654  -0.187  -6.013  0.00  0.00    +0.049 A 
ATOM     24  C   UNL     1      -0.883   0.869  -6.472  0.00  0.00    +0.158 A 
ATOM     25  C   UNL     1       0.470   0.927  -6.156  0.00  0.00    +0.162 A 
ATOM     26  C   UNL     1       1.041  -0.069  -5.379  0.00  0.00    +0.055 A 
BRANCH  24  27
ATOM     27  O   UNL     1      -1.449   1.846  -7.231  0.00  0.00    -0.503 OA
ATOM     28  H   UNL     1      -1.803   2.586  -6.719  0.00  0.00    +0.292 HD
ENDBRANCH  24  27
BRANCH  25  29
ATOM     29  O   UNL     1       1.231   1.961  -6.605  0.00  0.00    -0.489 OA
BRANCH  29  30
ATOM     30  C   UNL     1       2.635   1.895  -6.343  0.00  0.00    +0.226 C 
ATOM     31  C   UNL     1       3.334   3.080  -7.013  0.00  0.00    +0.048 C 
ENDBRANCH  29  30
ENDBRANCH  25  29
ENDBRANCH   2  21
BRANCH   1  32
ATOM     32  C   UNL     1       1.223  -0.726  -1.962  0.00  0.00    +0.109 C 
BRANCH  32  33
ATOM     33  C   UNL     1       1.311   0.727  -2.434  0.00  0.00    +0.019 C 
BRANCH  33  35
ATOM     34  C   UNL     1       0.892   3.107  -1.800  0.00  0.00    +0.004 C 
ATOM     35  C   UNL     1       0.804   1.654  -1.328  0.00  0.00    -0.002 C 
ENDBRANCH  33  35
ENDBRANCH  32  33
ENDBRANCH   1  32
TORSDOF 9
