REMARK  Name = ZINC03070892
REMARK  6 active torsions:
REMARK  status: ('A' for Active; 'I' for Inactive)
REMARK    1  A    between atoms: C_4  and  C_7
REMARK    2  A    between atoms: C_7  and  C_9
REMARK    3  A    between atoms: C_7  and  N_20
REMARK    4  A    between atoms: C_18  and  O_19
REMARK    5  A    between atoms: C_21  and  C_23
REMARK    6  A    between atoms: C_23  and  N_24
REMARK                            x       y       z     vdW  Elec       q    Type
REMARK                         _______ _______ _______ _____ _____    ______ ____
ROOT
ATOM      1  C   UNL     1       3.635  -0.633  -0.084  0.00  0.00    +0.138 C 
ENDROOT
BRANCH   1   2
ATOM      2  C   UNL     1       3.919  -1.231  -1.437  0.00  0.00    +0.026 A 
ATOM      3  C   UNL     1       4.933  -0.694  -2.248  0.00  0.00    -0.009 A 
ATOM      4  C   UNL     1       5.701   0.403  -1.822  0.00  0.00    +0.009 A 
ATOM      5  C   UNL     1       6.676   0.898  -2.633  0.00  0.00    +0.001 A 
ATOM      6  C   UNL     1       6.925   0.332  -3.883  0.00  0.00    +0.001 A 
ATOM      7  C   UNL     1       6.201  -0.731  -4.327  0.00  0.00    +0.008 A 
ATOM      8  C   UNL     1       5.187  -1.270  -3.518  0.00  0.00    -0.017 A 
ATOM      9  C   UNL     1       4.420  -2.368  -3.945  0.00  0.00    +0.012 A 
ATOM     10  C   UNL     1       3.445  -2.865  -3.137  0.00  0.00    +0.046 A 
ATOM     11  C   UNL     1       3.196  -2.302  -1.881  0.00  0.00    +0.123 A 
BRANCH  11  12
ATOM     12  O   UNL     1       2.220  -2.824  -1.094  0.00  0.00    -0.506 OA
ATOM     13  H   UNL     1       1.342  -2.452  -1.257  0.00  0.00    +0.292 HD
ENDBRANCH  11  12
ENDBRANCH   1   2
BRANCH   1  17
ATOM     14  C   UNL     1      -0.028   1.560  -0.239  0.00  0.00    +0.000 A 
ATOM     15  C   UNL     1       1.173   2.201  -0.484  0.00  0.00    +0.000 A 
ATOM     16  C   UNL     1       2.358   1.491  -0.433  0.00  0.00    +0.006 A 
ATOM     17  C   UNL     1       2.343   0.141  -0.138  0.00  0.00    -0.023 A 
ATOM     18  C   UNL     1       1.143  -0.500   0.108  0.00  0.00    +0.006 A 
ATOM     19  C   UNL     1      -0.043   0.210   0.056  0.00  0.00    +0.000 A 
ENDBRANCH   1  17
BRANCH   1  20
ATOM     20  N   UNL     1       3.521  -1.705   0.909  0.00  0.00    -0.303 N 
ATOM     21  C   UNL     1       3.770  -1.448   2.209  0.00  0.00    +0.232 C 
ATOM     22  O   UNL     1       4.088  -0.331   2.556  0.00  0.00    -0.274 OA
ATOM     23  H   UNL     1       3.266  -2.598   0.631  0.00  0.00    +0.150 HD
BRANCH  21  24
ATOM     24  C   UNL     1       3.653  -2.550   3.230  0.00  0.00    +0.212 C 
BRANCH  24  25
ATOM     25  N   UNL     1       3.972  -2.021   4.558  0.00  0.00    -0.225 N 
ATOM     26  C   UNL     1       5.206  -1.997   5.092  0.00  0.00    +0.254 C 
ATOM     27  O   UNL     1       6.218  -2.405   4.557  0.00  0.00    -0.270 OA
ATOM     28  C   UNL     1       5.126  -1.391   6.438  0.00  0.00    +0.049 A 
ATOM     29  C   UNL     1       6.052  -1.112   7.430  0.00  0.00    +0.014 A 
ATOM     30  C   UNL     1       5.635  -0.521   8.612  0.00  0.00    +0.001 A 
ATOM     31  C   UNL     1       4.303  -0.207   8.807  0.00  0.00    +0.001 A 
ATOM     32  C   UNL     1       3.366  -0.480   7.823  0.00  0.00    +0.014 A 
ATOM     33  C   UNL     1       3.768  -1.071   6.636  0.00  0.00    +0.049 A 
ATOM     34  C   UNL     1       3.069  -1.490   5.403  0.00  0.00    +0.254 C 
ATOM     35  O   UNL     1       1.880  -1.374   5.188  0.00  0.00    -0.270 OA
ENDBRANCH  24  25
ENDBRANCH  21  24
ENDBRANCH   1  20
TORSDOF 6
