REMARK  Name = ZINC30571442
REMARK  4 active torsions:
REMARK  status: ('A' for Active; 'I' for Inactive)
REMARK    1  A    between atoms: C_4  and  C_7
REMARK    2  A    between atoms: C_13  and  C_15
REMARK    3  A    between atoms: N_20  and  S_22
REMARK    4  A    between atoms: S_22  and  C_25
REMARK                            x       y       z     vdW  Elec       q    Type
REMARK                         _______ _______ _______ _____ _____    ______ ____
ROOT
ATOM      1  C   UNL     1      -4.612   3.932   8.065  0.00  0.00    +0.134 A 
ATOM      2  N   UNL     1      -4.579   4.616   6.927  0.00  0.00    -0.140 NA
ATOM      3  N   UNL     1      -3.611   4.480   6.129  0.00  0.00    -0.125 NA
ATOM      4  C   UNL     1      -2.606   3.655   6.380  0.00  0.00    +0.188 A 
ATOM      5  S   UNL     1      -3.084   3.013   7.925  0.00  0.00    -0.030 S 
ATOM      6  N   UNL     1      -1.475   3.382   5.621  0.00  0.00    -0.263 N 
ATOM      7  C   UNL     1      -1.295   3.998   4.436  0.00  0.00    +0.223 C 
ATOM      8  O   UNL     1      -2.119   4.790   4.032  0.00  0.00    -0.275 OA
ATOM      9  H   UNL     1      -0.727   2.664   5.987  0.00  0.00    +0.157 HD
ENDROOT
BRANCH   1  13
ATOM     10  C   UNL     1      -7.521   3.929  11.160  0.00  0.00    +0.000 A 
ATOM     11  C   UNL     1      -7.698   4.735  10.049  0.00  0.00    +0.001 A 
ATOM     12  C   UNL     1      -6.757   4.741   9.040  0.00  0.00    +0.010 A 
ATOM     13  C   UNL     1      -5.624   3.932   9.142  0.00  0.00    +0.009 A 
ATOM     14  C   UNL     1      -5.454   3.118  10.263  0.00  0.00    +0.010 A 
ATOM     15  C   UNL     1      -6.401   3.125  11.267  0.00  0.00    +0.001 A 
ENDBRANCH   1  13
BRANCH   7  16
ATOM     16  C   UNL     1      -0.068   3.702   3.612  0.00  0.00    +0.091 C 
ATOM     17  C   UNL     1       1.185   4.066   4.412  0.00  0.00    +0.015 C 
ATOM     18  C   UNL     1       2.432   3.735   3.589  0.00  0.00    +0.018 C 
ATOM     19  C   UNL     1       2.423   4.564   2.300  0.00  0.00    +0.109 C 
ATOM     20  N   UNL     1       1.155   4.329   1.596  0.00  0.00    -0.176 NA
ATOM     21  C   UNL     1      -0.105   4.535   2.322  0.00  0.00    +0.122 C 
BRANCH  20  22
ATOM     22  S   UNL     1       1.147   3.847   0.011  0.00  0.00    +0.061 S 
ATOM     23  O   UNL     1       2.382   4.273  -0.549  0.00  0.00    -0.153 OA
ATOM     24  O   UNL     1      -0.109   4.239  -0.526  0.00  0.00    -0.153 OA
BRANCH  22  25
ATOM     25  C   UNL     1       1.171   2.086   0.002  0.00  0.00    +0.105 A 
ATOM     26  C   UNL     1      -0.017   1.378   0.010  0.00  0.00    +0.028 A 
ATOM     27  C   UNL     1       0.002  -0.004   0.002  0.00  0.00    +0.002 A 
ATOM     28  C   UNL     1       1.208  -0.679  -0.014  0.00  0.00    +0.000 A 
ATOM     29  C   UNL     1       2.396   0.029  -0.021  0.00  0.00    +0.002 A 
ATOM     30  C   UNL     1       2.377   1.411  -0.014  0.00  0.00    +0.028 A 
ENDBRANCH  22  25
ENDBRANCH  20  22
ENDBRANCH   7  16
TORSDOF 4
