REMARK  Name = ZINC67050153
REMARK  5 active torsions:
REMARK  status: ('A' for Active; 'I' for Inactive)
REMARK    1  A    between atoms: C_1  and  N_2
REMARK    2  A    between atoms: C_3  and  C_8
REMARK    3  A    between atoms: C_8  and  N_9
REMARK    4  A    between atoms: C_10  and  C_12
REMARK    5  A    between atoms: C_18  and  C_20
REMARK                            x       y       z     vdW  Elec       q    Type
REMARK                         _______ _______ _______ _____ _____    ______ ____
ROOT
ATOM      1  C   UNL     1      -0.341   7.559  -1.241  0.00  0.00    +0.087 C 
ATOM      2  C   UNL     1       0.286   7.612  -2.636  0.00  0.00    +0.013 C 
ATOM      3  C   UNL     1      -0.636   8.387  -3.580  0.00  0.00    +0.001 C 
ATOM      4  C   UNL     1      -0.825   9.810  -3.052  0.00  0.00    +0.001 C 
ATOM      5  C   UNL     1      -1.452   9.758  -1.657  0.00  0.00    +0.013 C 
ATOM      6  C   UNL     1      -0.530   8.982  -0.713  0.00  0.00    +0.087 C 
ENDROOT
BRANCH   6   7
ATOM      7  C   UNL     1      -1.147   8.931   0.661  0.00  0.00    +0.224 C 
ATOM      8  O   UNL     1      -1.959   8.070   0.929  0.00  0.00    -0.275 OA
ATOM      9  N   UNL     1      -0.797   9.840   1.591  0.00  0.00    -0.271 N 
ATOM     10  C   UNL     1       0.083  10.988   1.355  0.00  0.00    +0.118 C 
ATOM     11  C   UNL     1       0.172  11.713   2.708  0.00  0.00    +0.056 C 
ATOM     12  C   UNL     1      -0.693  10.892   3.637  0.00  0.00    -0.024 A 
ATOM     13  C   UNL     1      -1.225   9.831   2.923  0.00  0.00    +0.039 A 
ATOM     14  C   UNL     1      -2.068   8.930   3.575  0.00  0.00    +0.024 A 
ATOM     15  C   UNL     1      -2.369   9.100   4.909  0.00  0.00    +0.002 A 
ATOM     16  C   UNL     1      -1.837  10.165   5.612  0.00  0.00    +0.000 A 
ATOM     17  C   UNL     1      -0.994  11.056   4.976  0.00  0.00    +0.005 A 
ENDBRANCH   6   7
BRANCH   1  19
ATOM     18  N   UNL     1       0.877   5.511  -0.578  0.00  0.00    -0.308 N 
ATOM     19  C   UNL     1       0.567   6.795  -0.312  0.00  0.00    +0.217 C 
ATOM     20  O   UNL     1       1.017   7.336   0.676  0.00  0.00    -0.275 OA
ATOM     21  H   UNL     1       0.517   5.078  -1.367  0.00  0.00    +0.149 HD
BRANCH  18  22
ATOM     22  C   UNL     1       1.760   4.768   0.326  0.00  0.00    +0.180 C 
BRANCH  22  25
ATOM     23  C   UNL     1       3.478   2.535   1.636  0.00  0.00    +0.152 C 
ATOM     24  N   UNL     1       2.710   2.390   0.397  0.00  0.00    -0.309 N 
ATOM     25  C   UNL     1       1.946   3.366  -0.194  0.00  0.00    +0.149 A 
ATOM     26  N   UNL     1       1.413   2.885  -1.271  0.00  0.00    -0.157 NA
ATOM     27  N   UNL     1       1.829   1.553  -1.406  0.00  0.00    -0.254 N 
ATOM     28  C   UNL     1       2.636   1.277  -0.360  0.00  0.00    +0.175 A 
ATOM     29  S   UNL     1       3.419  -0.214  -0.050  0.00  0.00    -0.011 S 
ATOM     30  H   UNL     1       1.585   0.944  -2.120  0.00  0.00    +0.191 HD
ENDBRANCH  22  25
ENDBRANCH  18  22
ENDBRANCH   1  19
TORSDOF 4
