REMARK  Name = ZINC09159485
REMARK  10 active torsions:
REMARK  status: ('A' for Active; 'I' for Inactive)
REMARK    1  A    between atoms: C_1  and  C_2
REMARK    2  A    between atoms: C_2  and  O_3
REMARK    3  A    between atoms: O_3  and  C_4
REMARK    4  A    between atoms: C_7  and  C_10
REMARK    5  A    between atoms: C_17  and  N_34
REMARK    6  A    between atoms: C_18  and  C_32
REMARK    7  A    between atoms: C_19  and  C_21
REMARK    8  A    between atoms: C_24  and  O_27
REMARK    9  A    between atoms: O_27  and  C_28
REMARK   10  A    between atoms: C_28  and  C_29
REMARK                            x       y       z     vdW  Elec       q    Type
REMARK                         _______ _______ _______ _____ _____    ______ ____
ROOT
ATOM      1  C   UNL     1       1.108  -6.016  -1.844  0.00  0.00    +0.074 A 
ATOM      2  C   UNL     1       2.219  -6.696  -2.216  0.00  0.00    +0.054 A 
ATOM      3  C   UNL     1       1.898  -8.067  -2.264  0.00  0.00    +0.245 A 
ATOM      4  N   UNL     1       0.645  -8.206  -1.934  0.00  0.00    -0.135 NA
ATOM      5  N   UNL     1       0.115  -6.936  -1.657  0.00  0.00    -0.273 N 
ATOM      6  H   UNL     1      -0.796  -6.746  -1.382  0.00  0.00    +0.189 HD
ATOM      7  O   UNL     1       2.815  -9.010  -2.612  0.00  0.00    -0.421 OA
ATOM      8  C   UNL     1       3.964  -8.582  -3.172  0.00  0.00    +0.201 C 
ATOM      9  C   UNL     1       4.381  -7.299  -3.177  0.00  0.00    +0.098 C 
ATOM     10  C   UNL     1       3.597  -6.179  -2.542  0.00  0.00    +0.102 C 
ENDROOT
BRANCH   1  14
ATOM     11  C   UNL     1       0.777  -1.810  -1.336  0.00  0.00    +0.121 A 
ATOM     12  C   UNL     1       0.241  -2.667  -0.384  0.00  0.00    +0.046 A 
ATOM     13  C   UNL     1       0.347  -4.032  -0.545  0.00  0.00    +0.013 A 
ATOM     14  C   UNL     1       0.992  -4.552  -1.667  0.00  0.00    +0.000 A 
ATOM     15  C   UNL     1       1.529  -3.688  -2.623  0.00  0.00    +0.013 A 
ATOM     16  C   UNL     1       1.415  -2.324  -2.457  0.00  0.00    +0.046 A 
BRANCH  11  17
ATOM     17  O   UNL     1       0.671  -0.465  -1.174  0.00  0.00    -0.492 OA
BRANCH  17  19
ATOM     18  C   UNL     1      -0.019   1.526   0.010  0.00  0.00    +0.048 C 
ATOM     19  C   UNL     1       0.002  -0.004   0.002  0.00  0.00    +0.225 C 
ENDBRANCH  17  19
ENDBRANCH  11  17
ENDBRANCH   1  14
BRANCH  10  20
ATOM     20  C   UNL     1       4.284  -5.730  -1.277  0.00  0.00    -0.034 A 
ATOM     21  C   UNL     1       4.507  -6.635  -0.255  0.00  0.00    +0.008 A 
ATOM     22  C   UNL     1       5.136  -6.226   0.905  0.00  0.00    +0.046 A 
ATOM     23  C   UNL     1       5.544  -4.907   1.044  0.00  0.00    +0.121 A 
ATOM     24  C   UNL     1       5.318  -4.002   0.017  0.00  0.00    +0.046 A 
ATOM     25  C   UNL     1       4.694  -4.417  -1.143  0.00  0.00    +0.008 A 
BRANCH  23  26
ATOM     26  O   UNL     1       6.162  -4.503   2.185  0.00  0.00    -0.483 OA
BRANCH  26  27
ATOM     27  C   UNL     1       6.554  -3.131   2.259  0.00  0.00    +0.324 C 
BRANCH  27  28
ATOM     28  C   UNL     1       7.219  -2.869   3.586  0.00  0.00    +0.248 C 
ATOM     29  O   UNL     1       7.344  -3.769   4.389  0.00  0.00    -0.272 OA
ATOM     30  N   UNL     1       7.673  -1.635   3.880  0.00  0.00    -0.327 N 
ATOM     31  H   UNL     1       7.573  -0.915   3.237  0.00  0.00    +0.145 HD
ATOM     32  H   UNL     1       8.101  -1.466   4.734  0.00  0.00    +0.145 HD
ENDBRANCH  27  28
ENDBRANCH  26  27
ENDBRANCH  23  26
ENDBRANCH  10  20
BRANCH   8  33
ATOM     33  N   UNL     1       4.765  -9.517  -3.779  0.00  0.00    -0.328 N 
ATOM     34  H   UNL     1       4.497 -10.449  -3.795  0.00  0.00    +0.145 HD
ATOM     35  H   UNL     1       5.600  -9.245  -4.192  0.00  0.00    +0.145 HD
ENDBRANCH   8  33
BRANCH   9  36
ATOM     36  C   UNL     1       5.625  -6.987  -3.814  0.00  0.00    +0.101 C 
ATOM     37  N   UNL     1       6.612  -6.739  -4.320  0.00  0.00    -0.191 NA
ENDBRANCH   9  36
TORSDOF 9
