REMARK  Name = ZINC39552437
REMARK  7 active torsions:
REMARK  status: ('A' for Active; 'I' for Inactive)
REMARK    1  A    between atoms: C_4  and  C_7
REMARK    2  A    between atoms: C_11  and  C_13
REMARK    3  A    between atoms: C_13  and  N_14
REMARK    4  A    between atoms: C_15  and  C_17
REMARK    5  A    between atoms: C_17  and  C_18
REMARK    6  A    between atoms: N_25  and  C_26
REMARK    7  A    between atoms: C_26  and  C_27
REMARK                            x       y       z     vdW  Elec       q    Type
REMARK                         _______ _______ _______ _____ _____    ______ ____
ROOT
ATOM      1  N   UNL     1       3.276  -3.952  -1.368  0.00  0.00    -0.314 N 
ATOM      2  C   UNL     1       2.895  -4.812  -2.333  0.00  0.00    +0.212 C 
ATOM      3  O   UNL     1       2.486  -4.390  -3.394  0.00  0.00    -0.276 OA
ATOM      4  H   UNL     1       3.603  -4.289  -0.520  0.00  0.00    +0.149 HD
ENDROOT
BRANCH   1   5
ATOM      5  C   UNL     1       3.196  -2.508  -1.601  0.00  0.00    +0.119 C 
BRANCH   5  10
ATOM      6  C   UNL     1       3.498  -0.268  -0.521  0.00  0.00    +0.080 C 
ATOM      7  N   UNL     1       4.694   0.249  -0.452  0.00  0.00    -0.153 NA
ATOM      8  N   UNL     1       5.675  -0.720  -0.265  0.00  0.00    -0.161 NA
ATOM      9  C   UNL     1       5.184  -1.915  -0.201  0.00  0.00    +0.119 C 
ATOM     10  C   UNL     1       3.684  -1.763  -0.356  0.00  0.00    +0.100 C 
BRANCH   6  14
ATOM     11  C   UNL     1      -0.159   1.810  -1.075  0.00  0.00    +0.000 A 
ATOM     12  C   UNL     1       1.033   2.513  -1.030  0.00  0.00    +0.001 A 
ATOM     13  C   UNL     1       2.225   1.845  -0.850  0.00  0.00    +0.010 A 
ATOM     14  C   UNL     1       2.229   0.453  -0.713  0.00  0.00    -0.001 A 
ATOM     15  C   UNL     1       1.022  -0.250  -0.759  0.00  0.00    +0.010 A 
ATOM     16  C   UNL     1      -0.163   0.432  -0.940  0.00  0.00    +0.001 A 
ENDBRANCH   6  14
ENDBRANCH   5  10
ENDBRANCH   1   5
BRANCH   2  17
ATOM     17  C   UNL     1       2.978  -6.298  -2.095  0.00  0.00    +0.089 C 
BRANCH  17  18
ATOM     18  C   UNL     1       2.355  -7.040  -3.279  0.00  0.00    +0.028 C 
ATOM     19  C   UNL     1       3.084  -6.667  -4.539  0.00  0.00    +0.200 C 
ATOM     20  O   UNL     1       4.293  -6.583  -4.509  0.00  0.00    -0.278 OA
ATOM     21  N   UNL     1       2.452  -6.424  -5.693  0.00  0.00    -0.318 N 
ATOM     22  C   UNL     1       0.998  -6.474  -5.820  0.00  0.00    +0.085 C 
ATOM     23  C   UNL     1       0.398  -7.238  -4.638  0.00  0.00    -0.058 C 
ATOM     24  N   UNL     1       0.938  -6.676  -3.391  0.00  0.00    +0.392 N 
ATOM     25  H   UNL     1       2.981  -6.206  -6.476  0.00  0.00    +0.149 HD
ATOM     26  H   UNL     1       0.847  -5.671  -3.405  0.00  0.00    -0.080 HD
BRANCH  24  27
ATOM     27  C   UNL     1       0.197  -7.223  -2.247  0.00  0.00    -0.034 C 
BRANCH  27  28
ATOM     28  C   UNL     1      -1.227  -6.730  -2.287  0.00  0.00    -0.027 A 
ATOM     29  C   UNL     1      -2.308  -7.290  -2.883  0.00  0.00    +0.009 A 
ATOM     30  C   UNL     1      -3.531  -6.653  -2.788  0.00  0.00    +0.008 A 
ATOM     31  C   UNL     1      -3.613  -5.487  -2.101  0.00  0.00    +0.045 A 
ATOM     32  S   UNL     1      -1.928  -5.260  -1.556  0.00  0.00    -0.103 S 
ENDBRANCH  27  28
ENDBRANCH  24  27
ENDBRANCH  17  18
ENDBRANCH   2  17
TORSDOF 7
