REMARK  Name = ZINC33810231
REMARK  9 active torsions:
REMARK  status: ('A' for Active; 'I' for Inactive)
REMARK    1  A    between atoms: C_1  and  C_2
REMARK    2  A    between atoms: C_2  and  O_3
REMARK    3  A    between atoms: O_3  and  C_4
REMARK    4  A    between atoms: C_6  and  C_11
REMARK    5  A    between atoms: C_9  and  O_10
REMARK    6  A    between atoms: C_16  and  S_20
REMARK    7  A    between atoms: S_20  and  C_21
REMARK    8  A    between atoms: C_21  and  C_22
REMARK    9  A    between atoms: C_25  and  C_28
REMARK                            x       y       z     vdW  Elec       q    Type
REMARK                         _______ _______ _______ _____ _____    ______ ____
ROOT
ATOM      1  C   UNL     1      -1.357   2.092   0.020  0.00  0.00    +0.093 C 
ATOM      2  C   UNL     1      -1.228   3.522   0.458  0.00  0.00    +0.069 A 
ATOM      3  C   UNL     1      -0.024   4.152   0.439  0.00  0.00    +0.135 A 
ATOM      4  N   UNL     1       0.054   5.462   0.836  0.00  0.00    -0.208 NA
ATOM      5  C   UNL     1      -1.067   6.119   1.245  0.00  0.00    +0.171 A 
ATOM      6  N   UNL     1      -2.238   5.518   1.270  0.00  0.00    -0.302 N 
ATOM      7  C   UNL     1      -2.365   4.237   0.892  0.00  0.00    +0.258 A 
ATOM      8  O   UNL     1      -3.460   3.693   0.922  0.00  0.00    -0.267 OA
ATOM      9  N   UNL     1       1.103   3.481   0.027  0.00  0.00    -0.302 N 
ATOM     10  C   UNL     1       1.131   2.112   0.003  0.00  0.00    +0.017 C 
ATOM     11  C   UNL     1      -0.017   1.402   0.010  0.00  0.00    +0.024 C 
ATOM     12  C   UNL     1       0.002  -0.004   0.002  0.00  0.00    +0.162 C 
ATOM     13  O   UNL     1      -1.049  -0.614  -0.002  0.00  0.00    -0.292 OA
ATOM     14  C   UNL     1       1.298  -0.767  -0.001  0.00  0.00    +0.080 C 
ATOM     15  C   UNL     1       2.375   0.076   0.690  0.00  0.00    +0.014 C 
ATOM     16  C   UNL     1       2.472   1.423  -0.029  0.00  0.00    +0.051 C 
ATOM     17  H   UNL     1       1.995   4.043  -0.287  0.00  0.00    +0.153 HD
ATOM     18  H   UNL     1      -3.131   6.067   1.605  0.00  0.00    +0.171 HD
ENDROOT
BRANCH   1  21
ATOM     19  C   UNL     1      -3.700   1.386  -2.858  0.00  0.00    +0.162 A 
ATOM     20  C   UNL     1      -3.156   1.421  -1.585  0.00  0.00    +0.054 A 
ATOM     21  C   UNL     1      -1.945   2.050  -1.367  0.00  0.00    -0.032 A 
ATOM     22  C   UNL     1      -1.268   2.636  -2.421  0.00  0.00    +0.008 A 
ATOM     23  C   UNL     1      -1.803   2.601  -3.695  0.00  0.00    +0.049 A 
ATOM     24  C   UNL     1      -3.019   1.976  -3.919  0.00  0.00    +0.158 A 
BRANCH  24  25
ATOM     25  O   UNL     1      -3.547   1.941  -5.172  0.00  0.00    -0.503 OA
ATOM     26  H   UNL     1      -3.007   2.408  -6.009  0.00  0.00    +0.292 HD
ENDBRANCH  24  25
BRANCH  19  27
ATOM     27  O   UNL     1      -4.894   0.772  -3.073  0.00  0.00    -0.489 OA
BRANCH  27  29
ATOM     28  C   UNL     1      -6.857  -0.452  -2.372  0.00  0.00    +0.048 C 
ATOM     29  C   UNL     1      -5.536   0.187  -1.938  0.00  0.00    +0.226 C 
ENDBRANCH  27  29
ENDBRANCH  19  27
ENDBRANCH   1  21
BRANCH   5  30
ATOM     30  S   UNL     1      -0.947   7.803   1.750  0.00  0.00    -0.083 S 
BRANCH  30  31
ATOM     31  C   UNL     1      -2.678   8.130   2.168  0.00  0.00    +0.112 C 
BRANCH  31  32
ATOM     32  C   UNL     1      -2.820   9.554   2.639  0.00  0.00    -0.037 A 
ATOM     33  C   UNL     1      -2.686   9.854   3.982  0.00  0.00    +0.005 A 
ATOM     34  C   UNL     1      -2.813  11.161   4.414  0.00  0.00    +0.003 A 
ATOM     35  C   UNL     1      -3.083  12.166   3.505  0.00  0.00    -0.050 A 
ATOM     36  C   UNL     1      -3.222  11.866   2.163  0.00  0.00    +0.003 A 
ATOM     37  C   UNL     1      -3.091  10.559   1.730  0.00  0.00    +0.005 A 
ATOM     38  C   UNL     1      -3.226  13.591   3.977  0.00  0.00    +0.044 C 
ENDBRANCH  31  32
ENDBRANCH  30  31
ENDBRANCH   5  30
TORSDOF 7
