REMARK  Name = ZINC19881075
REMARK  7 active torsions:
REMARK  status: ('A' for Active; 'I' for Inactive)
REMARK    1  A    between atoms: C_1  and  O_2
REMARK    2  A    between atoms: O_2  and  C_3
REMARK    3  A    between atoms: C_6  and  N_11
REMARK    4  A    between atoms: C_7  and  O_9
REMARK    5  A    between atoms: O_9  and  C_10
REMARK    6  A    between atoms: C_15  and  N_19
REMARK    7  A    between atoms: N_19  and  C_20
REMARK                            x       y       z     vdW  Elec       q    Type
REMARK                         _______ _______ _______ _____ _____    ______ ____
ROOT
ATOM      1  N   UNL     1      -4.927  -2.318  -0.589  0.00  0.00    -0.208 N 
ATOM      2  C   UNL     1      -5.178  -2.675   0.677  0.00  0.00    +0.225 C 
ATOM      3  O   UNL     1      -4.505  -2.372   1.638  0.00  0.00    -0.275 OA
ATOM      4  C   UNL     1      -6.436  -3.514   0.717  0.00  0.00    +0.090 C 
ATOM      5  C   UNL     1      -6.873  -3.582  -0.761  0.00  0.00    +0.026 C 
ATOM      6  C   UNL     1      -5.819  -2.769  -1.480  0.00  0.00    +0.213 C 
ATOM      7  O   UNL     1      -5.786  -2.561  -2.674  0.00  0.00    -0.277 OA
ENDROOT
BRANCH   1  11
ATOM      8  C   UNL     1      -1.639   0.021  -1.667  0.00  0.00    +0.124 A 
ATOM      9  C   UNL     1      -2.843   0.625  -1.333  0.00  0.00    +0.048 A 
ATOM     10  C   UNL     1      -3.931  -0.149  -0.977  0.00  0.00    +0.031 A 
ATOM     11  C   UNL     1      -3.821  -1.532  -0.952  0.00  0.00    +0.086 A 
ATOM     12  C   UNL     1      -2.613  -2.139  -1.287  0.00  0.00    +0.145 A 
ATOM     13  C   UNL     1      -1.526  -1.361  -1.649  0.00  0.00    +0.093 A 
BRANCH   8  15
ATOM     14  C   UNL     1      -0.758   2.203  -2.014  0.00  0.00    +0.277 C 
ATOM     15  O   UNL     1      -0.571   0.786  -2.017  0.00  0.00    -0.495 OA
ENDBRANCH   8  15
BRANCH  12  16
ATOM     16  O   UNL     1      -2.503  -3.494  -1.263  0.00  0.00    -0.493 OA
ATOM     17  C   UNL     1      -1.234  -4.048  -1.619  0.00  0.00    +0.277 C 
ENDBRANCH  12  16
ENDBRANCH   1  11
BRANCH   5  18
ATOM     18  N   UNL     1      -6.878  -4.972  -1.235  0.00  0.00    +0.391 N 
ATOM     19  H   UNL     1      -6.867  -4.983  -2.244  0.00  0.00    -0.084 HD
ATOM     20  H   UNL     1      -6.061  -5.450  -0.885  0.00  0.00    -0.084 HD
BRANCH  18  21
ATOM     21  C   UNL     1      -8.087  -5.651  -0.750  0.00  0.00    -0.067 C 
ATOM     22  C   UNL     1      -8.142  -5.567   0.776  0.00  0.00    -0.009 C 
ATOM     23  C   UNL     1      -9.401  -6.274   1.281  0.00  0.00    -0.012 C 
ATOM     24  C   UNL     1      -9.369  -7.742   0.851  0.00  0.00    +0.007 C 
ATOM     25  C   UNL     1      -9.315  -7.826  -0.675  0.00  0.00    -0.012 C 
ATOM     26  C   UNL     1      -8.055  -7.119  -1.180  0.00  0.00    -0.009 C 
ATOM     27  C   UNL     1     -10.552  -7.148  -1.268  0.00  0.00    +0.007 C 
ATOM     28  C   UNL     1     -10.584  -5.680  -0.838  0.00  0.00    -0.012 C 
ATOM     29  C   UNL     1     -10.639  -5.596   0.689  0.00  0.00    +0.007 C 
ATOM     30  C   UNL     1      -9.324  -4.973  -1.343  0.00  0.00    -0.009 C 
ENDBRANCH  18  21
ENDBRANCH   5  18
TORSDOF 5
