REMARK  Name = ZINC04555307
REMARK  9 active torsions:
REMARK  status: ('A' for Active; 'I' for Inactive)
REMARK    1  A    between atoms: C_1  and  C_2
REMARK    2  A    between atoms: C_2  and  C_3
REMARK    3  A    between atoms: C_2  and  N_52
REMARK    4  A    between atoms: C_11  and  O_26
REMARK    5  A    between atoms: C_13  and  C_16
REMARK    6  A    between atoms: C_18  and  O_24
REMARK    7  A    between atoms: C_21  and  O_22
REMARK    8  A    between atoms: O_22  and  C_23
REMARK    9  A    between atoms: O_24  and  C_25
REMARK                            x       y       z     vdW  Elec       q    Type
REMARK                         _______ _______ _______ _____ _____    ______ ____
ROOT
ATOM      1  C   UNL     1      -2.773   7.036   0.725  0.00  0.00    -0.073 C 
ATOM      2  C   UNL     1      -2.656   5.575   1.171  0.00  0.00    +0.018 C 
ATOM      3  C   UNL     1      -2.190   4.748  -0.022  0.00  0.00    -0.027 A 
ATOM      4  C   UNL     1      -2.297   5.251  -1.275  0.00  0.00    -0.021 A 
ATOM      5  S   UNL     1      -1.648   3.984  -2.330  0.00  0.00    -0.080 S 
ATOM      6  C   UNL     1      -1.250   2.823  -1.137  0.00  0.00    +0.080 A 
ATOM      7  C   UNL     1      -1.617   3.420   0.076  0.00  0.00    +0.067 A 
ATOM      8  C   UNL     1      -1.381   2.638   1.317  0.00  0.00    +0.220 C 
ATOM      9  N   UNL     1      -0.674   1.546   1.223  0.00  0.00    -0.223 NA
ATOM     10  C   UNL     1      -0.013   1.086   0.008  0.00  0.00    +0.227 C 
ATOM     11  N   UNL     1      -0.705   1.564  -1.203  0.00  0.00    -0.313 N 
ATOM     12  C   UNL     1      -2.851   6.588  -1.654  0.00  0.00    -0.035 C 
ATOM     13  H   UNL     1      -0.772   1.020  -2.003  0.00  0.00    +0.149 HD
ATOM     14  N   UNL     1      -3.608   7.112  -0.491  0.00  0.00    +0.384 N 
ATOM     15  H   UNL     1      -4.450   6.540  -0.355  0.00  0.00    -0.081 HD
ENDROOT
BRANCH  10  16
ATOM     16  C   UNL     1       1.405   1.596  -0.003  0.00  0.00    +0.040 A 
ATOM     17  C   UNL     1       2.008   1.935  -1.199  0.00  0.00    +0.056 A 
ATOM     18  C   UNL     1       3.313   2.405  -1.209  0.00  0.00    +0.121 A 
ATOM     19  C   UNL     1       4.012   2.536  -0.018  0.00  0.00    +0.049 A 
ATOM     20  C   UNL     1       3.409   2.198   1.178  0.00  0.00    +0.049 A 
ATOM     21  C   UNL     1       2.102   1.732   1.188  0.00  0.00    +0.127 A 
BRANCH  21  22
ATOM     22  O   UNL     1       1.507   1.404   2.366  0.00  0.00    -0.495 OA
ATOM     23  C   UNL     1       2.284   1.568   3.554  0.00  0.00    +0.277 C 
ENDBRANCH  21  22
BRANCH  18  24
ATOM     24  O   UNL     1       3.907   2.738  -2.386  0.00  0.00    -0.495 OA
ATOM     25  C   UNL     1       5.252   3.216  -2.321  0.00  0.00    +0.277 C 
ENDBRANCH  18  24
ENDBRANCH  10  16
BRANCH  14  27
ATOM     26  C   UNL     1      -2.782   9.392  -0.965  0.00  0.00    -0.014 C 
ATOM     27  C   UNL     1      -4.013   8.512  -0.740  0.00  0.00    -0.074 C 
ATOM     28  C   UNL     1      -4.907   8.559  -1.981  0.00  0.00    -0.014 C 
ENDBRANCH  14  27
BRANCH   8  29
ATOM     29  O   UNL     1      -1.883   3.045   2.506  0.00  0.00    -0.492 OA
ATOM     30  H   UNL     1      -1.668   2.459   3.245  0.00  0.00    +0.294 HD
ENDBRANCH   8  29
TORSDOF 5
