REMARK  Name = ZINC38517514
REMARK  9 active torsions:
REMARK  status: ('A' for Active; 'I' for Inactive)
REMARK    1  A    between atoms: C_1  and  N_2
REMARK    2  A    between atoms: C_10  and  C_12
REMARK    3  A    between atoms: C_12  and  C_14
REMARK    4  A    between atoms: C_12  and  N_30
REMARK    5  A    between atoms: C_14  and  N_15
REMARK    6  A    between atoms: N_18  and  C_19
REMARK    7  A    between atoms: C_19  and  C_20
REMARK    8  A    between atoms: N_30  and  C_31
REMARK    9  A    between atoms: N_30  and  C_32
REMARK                            x       y       z     vdW  Elec       q    Type
REMARK                         _______ _______ _______ _____ _____    ______ ____
ROOT
ATOM      1  C   UNL     1       5.076  -3.026  -1.916  0.00  0.00    +0.095 C 
ENDROOT
BRANCH   1   2
ATOM      2  N   UNL     1       3.988  -3.875  -2.408  0.00  0.00    -0.301 N 
ATOM      3  C   UNL     1       3.888  -4.147  -3.724  0.00  0.00    +0.300 C 
ATOM      4  O   UNL     1       4.701  -3.688  -4.503  0.00  0.00    -0.253 OA
ATOM      5  N   UNL     1       2.887  -4.927  -4.177  0.00  0.00    -0.295 N 
ATOM      6  H   UNL     1       3.339  -4.241  -1.787  0.00  0.00    +0.150 HD
ATOM      7  H   UNL     1       2.239  -5.294  -3.556  0.00  0.00    +0.151 HD
BRANCH   5   8
ATOM      8  C   UNL     1       2.779  -5.223  -5.608  0.00  0.00    +0.141 C 
BRANCH   8   9
ATOM      9  C   UNL     1       1.584  -6.109  -5.849  0.00  0.00    -0.023 A 
ATOM     10  C   UNL     1       1.748  -7.451  -6.010  0.00  0.00    +0.006 A 
ATOM     11  C   UNL     1       0.656  -8.286  -6.233  0.00  0.00    +0.001 A 
ATOM     12  C   UNL     1      -0.608  -7.785  -6.298  0.00  0.00    +0.008 A 
ATOM     13  C   UNL     1      -0.817  -6.404  -6.136  0.00  0.00    -0.018 A 
ATOM     14  C   UNL     1       0.293  -5.556  -5.903  0.00  0.00    -0.013 A 
ATOM     15  C   UNL     1       0.083  -4.176  -5.736  0.00  0.00    +0.009 A 
ATOM     16  C   UNL     1      -1.181  -3.676  -5.794  0.00  0.00    +0.001 A 
ATOM     17  C   UNL     1      -2.274  -4.511  -6.018  0.00  0.00    +0.001 A 
ATOM     18  C   UNL     1      -2.107  -5.850  -6.197  0.00  0.00    +0.008 A 
ENDBRANCH   8   9
ENDBRANCH   5   8
ENDBRANCH   1   2
BRANCH   1  19
ATOM     19  C   UNL     1       4.885  -2.769  -0.420  0.00  0.00    -0.021 C 
BRANCH  19  29
ATOM     20  C   UNL     1       0.190   1.673   0.475  0.00  0.00    +0.129 C 
ATOM     21  N   UNL     1       0.129   0.211   0.400  0.00  0.00    -0.333 N 
ATOM     22  C   UNL     1      -1.155  -0.490   0.527  0.00  0.00    +0.105 C 
ATOM     23  C   UNL     1      -0.947  -1.683   1.469  0.00  0.00    +0.024 C 
ATOM     24  C   UNL     1       0.053  -2.647   0.830  0.00  0.00    +0.038 C 
ATOM     25  C   UNL     1       1.296  -1.911   0.404  0.00  0.00    -0.026 A 
ATOM     26  C   UNL     1       1.293  -0.539   0.199  0.00  0.00    +0.033 A 
ATOM     27  C   UNL     1       2.455   0.109  -0.204  0.00  0.00    +0.023 A 
ATOM     28  C   UNL     1       3.615  -0.613  -0.404  0.00  0.00    +0.004 A 
ATOM     29  C   UNL     1       3.619  -1.981  -0.203  0.00  0.00    -0.059 A 
ATOM     30  C   UNL     1       2.465  -2.628   0.208  0.00  0.00    +0.007 A 
ENDBRANCH  19  29
BRANCH  19  31
ATOM     31  N   UNL     1       6.030  -2.007   0.096  0.00  0.00    +0.382 N 
ATOM     32  C   UNL     1       5.869  -1.800   1.541  0.00  0.00    -0.096 C 
ATOM     33  C   UNL     1       7.269  -2.755  -0.156  0.00  0.00    -0.096 C 
ATOM     34  H   UNL     1       6.076  -1.113  -0.369  0.00  0.00    -0.082 HD
ENDBRANCH  19  31
ENDBRANCH   1  19
TORSDOF 6
