REMARK  Name = ZINC29692523
REMARK  7 active torsions:
REMARK  status: ('A' for Active; 'I' for Inactive)
REMARK    1  A    between atoms: C_1  and  C_2
REMARK    2  A    between atoms: N_7  and  C_9
REMARK    3  A    between atoms: C_9  and  C_10
REMARK    4  A    between atoms: N_12  and  C_13
REMARK    5  A    between atoms: C_14  and  C_29
REMARK    6  A    between atoms: N_17  and  C_18
REMARK    7  A    between atoms: C_18  and  C_19
REMARK                            x       y       z     vdW  Elec       q    Type
REMARK                         _______ _______ _______ _____ _____    ______ ____
ROOT
ATOM      1  C   UNL     1      -0.899   2.179   6.002  0.00  0.00    +0.123 A 
ATOM      2  C   UNL     1      -0.448   2.191   7.317  0.00  0.00    +0.095 A 
ATOM      3  C   UNL     1      -1.241   3.211   8.000  0.00  0.00    -0.007 A 
ATOM      4  C   UNL     1      -2.088   3.729   7.090  0.00  0.00    +0.025 A 
ATOM      5  N   UNL     1      -1.879   3.115   5.887  0.00  0.00    -0.329 N 
ATOM      6  C   UNL     1      -3.086   4.820   7.399  0.00  0.00    +0.054 C 
ATOM      7  C   UNL     1      -3.256   4.904   8.921  0.00  0.00    +0.006 C 
ATOM      8  C   UNL     1      -1.879   4.987   9.586  0.00  0.00    +0.005 C 
ATOM      9  C   UNL     1      -1.163   3.638   9.442  0.00  0.00    +0.038 C 
ENDROOT
BRANCH   1  12
ATOM     10  C   UNL     1      -0.159   0.065   5.234  0.00  0.00    +0.202 C 
ATOM     11  O   UNL     1      -0.362  -0.396   6.338  0.00  0.00    -0.278 OA
ATOM     12  N   UNL     1      -0.429   1.362   4.986  0.00  0.00    -0.272 N 
ATOM     13  H   UNL     1      -0.276   1.771   3.976  0.00  0.00    +0.156 HD
BRANCH  10  14
ATOM     14  C   UNL     1       0.395  -0.813   4.142  0.00  0.00    +0.019 C 
BRANCH  14  20
ATOM     15  C   UNL     1       0.870  -5.561   2.949  0.00  0.00    +0.005 C 
ATOM     16  C   UNL     1       0.708  -4.565   4.099  0.00  0.00    -0.031 C 
ATOM     17  C   UNL     1       1.882  -4.712   5.071  0.00  0.00    -0.001 C 
ATOM     18  C   UNL     1       1.745  -3.672   6.186  0.00  0.00    -0.018 C 
ATOM     19  C   UNL     1       1.696  -2.272   5.569  0.00  0.00    -0.078 C 
ATOM     20  N   UNL     1       0.556  -2.182   4.648  0.00  0.00    +0.386 N 
ATOM     21  C   UNL     1       0.689  -3.140   3.542  0.00  0.00    -0.075 C 
ATOM     22  H   UNL     1      -0.352  -2.446   5.211  0.00  0.00    -0.081 HD
ENDBRANCH  14  20
ENDBRANCH  10  14
ENDBRANCH   1  12
BRANCH   2  23
ATOM     23  C   UNL     1       0.580   1.373   7.885  0.00  0.00    +0.103 C 
ATOM     24  N   UNL     1       1.397   0.724   8.335  0.00  0.00    -0.191 NA
ENDBRANCH   2  23
BRANCH   5  25
ATOM     25  C   UNL     1      -2.608   3.418   4.653  0.00  0.00    +0.154 C 
BRANCH  25  26
ATOM     26  C   UNL     1      -3.813   2.483   4.529  0.00  0.00    +0.138 C 
ATOM     27  C   UNL     1      -4.509   2.680   3.164  0.00  0.00    +0.035 C 
ATOM     28  C   UNL     1      -6.013   2.530   3.484  0.00  0.00    +0.031 C 
ATOM     29  C   UNL     1      -6.048   2.261   5.005  0.00  0.00    +0.160 C 
ATOM     30  O   UNL     1      -4.817   2.824   5.510  0.00  0.00    -0.375 OA
ENDBRANCH  25  26
ENDBRANCH   5  25
TORSDOF 6
