REMARK  Name = ZINC14753467
REMARK  6 active torsions:
REMARK  status: ('A' for Active; 'I' for Inactive)
REMARK    1  A    between atoms: C_1  and  N_2
REMARK    2  A    between atoms: C_5  and  C_7
REMARK    3  A    between atoms: C_16  and  N_60
REMARK    4  A    between atoms: C_20  and  C_21
REMARK    5  A    between atoms: C_20  and  N_60
REMARK    6  A    between atoms: C_21  and  O_27
REMARK                            x       y       z     vdW  Elec       q    Type
REMARK                         _______ _______ _______ _____ _____    ______ ____
ROOT
ATOM      1  C   UNL     1      -0.110  -0.235   2.829  0.00  0.00    +0.172 C 
ATOM      2  N   UNL     1      -0.815   0.990   2.442  0.00  0.00    -0.270 N 
ATOM      3  C   UNL     1      -0.704   1.596   1.249  0.00  0.00    +0.043 A 
ATOM      4  C   UNL     1      -1.504   2.691   1.280  0.00  0.00    +0.004 A 
ATOM      5  C   UNL     1      -2.097   2.700   2.554  0.00  0.00    +0.151 A 
ATOM      6  N   UNL     1      -1.631   1.643   3.196  0.00  0.00    -0.166 NA
ATOM      7  C   UNL     1      -1.673   3.659   0.141  0.00  0.00    +0.023 C 
ATOM      8  C   UNL     1      -0.523   3.440  -0.851  0.00  0.00    -0.067 C 
ATOM      9  C   UNL     1      -0.402   1.948  -1.173  0.00  0.00    -0.009 C 
ATOM     10  C   UNL     1       0.125   1.197   0.056  0.00  0.00    +0.054 C 
ENDROOT
BRANCH   5  11
ATOM     11  C   UNL     1      -3.053   3.698   3.075  0.00  0.00    +0.267 C 
ATOM     12  O   UNL     1      -3.490   4.563   2.341  0.00  0.00    -0.268 OA
ATOM     13  N   UNL     1      -3.442   3.649   4.365  0.00  0.00    -0.296 N 
ATOM     14  C   UNL     1      -2.817   2.704   5.300  0.00  0.00    +0.108 C 
ATOM     15  C   UNL     1      -2.309   3.487   6.520  0.00  0.00    +0.019 C 
ATOM     16  C   UNL     1      -3.465   4.292   7.119  0.00  0.00    +0.003 C 
ATOM     17  C   UNL     1      -3.981   5.294   6.084  0.00  0.00    +0.019 C 
ATOM     18  C   UNL     1      -4.504   4.535   4.860  0.00  0.00    +0.108 C 
ENDBRANCH   5  11
BRANCH   8  19
ATOM     19  N   UNL     1      -0.804   4.190  -2.090  0.00  0.00    +0.383 N 
ATOM     20  H   UNL     1      -1.289   5.064  -1.855  0.00  0.00    -0.085 HD
ATOM     21  H   UNL     1      -1.401   3.621  -2.702  0.00  0.00    -0.085 HD
BRANCH  19  22
ATOM     22  C   UNL     1       0.454   4.506  -2.793  0.00  0.00    -0.047 C 
BRANCH  22  23
ATOM     23  C   UNL     1       0.132   5.282  -4.072  0.00  0.00    +0.051 C 
ATOM     24  C   UNL     1      -0.861   4.482  -4.918  0.00  0.00    +0.033 C 
ATOM     25  C   UNL     1      -1.183   5.258  -6.196  0.00  0.00    +0.003 C 
ATOM     26  C   UNL     1       0.102   5.482  -6.995  0.00  0.00    +0.000 C 
ATOM     27  C   UNL     1       1.096   6.281  -6.149  0.00  0.00    +0.003 C 
ATOM     28  C   UNL     1       1.418   5.505  -4.871  0.00  0.00    +0.033 C 
BRANCH  23  29
ATOM     29  O   UNL     1      -0.442   6.545  -3.731  0.00  0.00    -0.390 OA
ATOM     30  H   UNL     1      -1.262   6.480  -3.222  0.00  0.00    +0.210 HD
ENDBRANCH  23  29
ENDBRANCH  22  23
ENDBRANCH  19  22
ENDBRANCH   8  19
TORSDOF 5
