REMARK  Name = ZINC16213290
REMARK  6 active torsions:
REMARK  status: ('A' for Active; 'I' for Inactive)
REMARK    1  A    between atoms: C_1  and  C_2
REMARK    2  A    between atoms: C_6  and  N_8
REMARK    3  A    between atoms: C_9  and  C_28
REMARK    4  A    between atoms: C_12  and  S_13
REMARK    5  A    between atoms: S_13  and  C_14
REMARK    6  A    between atoms: C_14  and  C_15
REMARK                            x       y       z     vdW  Elec       q    Type
REMARK                         _______ _______ _______ _____ _____    ______ ____
ROOT
ATOM      1  N   UNL     1      -2.430   1.039   0.019  0.00  0.00    -0.270 N 
ATOM      2  C   UNL     1      -3.390   1.022  -0.968  0.00  0.00    +0.171 A 
ATOM      3  N   UNL     1      -4.348   0.222  -0.559  0.00  0.00    -0.128 NA
ATOM      4  N   UNL     1      -4.062  -0.249   0.602  0.00  0.00    -0.122 NA
ATOM      5  C   UNL     1      -2.903   0.214   1.006  0.00  0.00    +0.197 A 
ENDROOT
BRANCH   2   6
ATOM      6  C   UNL     1      -3.349   1.761  -2.246  0.00  0.00    +0.045 A 
ATOM      7  C   UNL     1      -2.362   2.591  -2.672  0.00  0.00    +0.095 A 
ATOM      8  N   UNL     1      -2.678   3.087  -3.904  0.00  0.00    -0.360 N 
ATOM      9  H   UNL     1      -2.125   3.700  -4.413  0.00  0.00    +0.165 HD
ATOM     10  C   UNL     1      -3.897   2.595  -4.317  0.00  0.00    +0.047 A 
ATOM     11  C   UNL     1      -4.373   1.746  -3.304  0.00  0.00    +0.010 A 
ATOM     12  C   UNL     1      -5.601   1.102  -3.453  0.00  0.00    +0.011 A 
ATOM     13  C   UNL     1      -6.342   1.303  -4.596  0.00  0.00    +0.001 A 
ATOM     14  C   UNL     1      -5.872   2.142  -5.598  0.00  0.00    +0.002 A 
ATOM     15  C   UNL     1      -4.661   2.785  -5.464  0.00  0.00    +0.026 A 
ENDBRANCH   2   6
BRANCH   1  21
ATOM     16  C   UNL     1       2.489   1.048  -0.016  0.00  0.00    +0.044 C 
ATOM     17  C   UNL     1       1.173   1.783   0.000  0.00  0.00    -0.048 A 
ATOM     18  C   UNL     1       1.155   3.166   0.007  0.00  0.00    +0.003 A 
ATOM     19  C   UNL     1      -0.049   3.844   0.021  0.00  0.00    +0.002 A 
ATOM     20  C   UNL     1      -1.239   3.142   0.029  0.00  0.00    +0.026 A 
ATOM     21  C   UNL     1      -1.224   1.754   0.017  0.00  0.00    +0.051 A 
ATOM     22  C   UNL     1      -0.013   1.076   0.008  0.00  0.00    +0.029 A 
ENDBRANCH   1  21
BRANCH   5  23
ATOM     23  S   UNL     1      -2.104  -0.155   2.533  0.00  0.00    -0.078 S 
BRANCH  23  24
ATOM     24  C   UNL     1      -3.322  -1.278   3.261  0.00  0.00    +0.151 C 
BRANCH  24  25
ATOM     25  C   UNL     1      -2.837  -1.736   4.613  0.00  0.00    +0.121 A 
ATOM     26  N   UNL     1      -3.622  -2.587   5.324  0.00  0.00    -0.310 N 
ATOM     27  H   UNL     1      -4.470  -2.880   4.956  0.00  0.00    +0.170 HD
ATOM     28  C   UNL     1      -3.229  -3.032   6.541  0.00  0.00    +0.259 A 
ATOM     29  O   UNL     1      -3.921  -3.797   7.187  0.00  0.00    -0.267 OA
ATOM     30  C   UNL     1      -1.938  -2.550   7.053  0.00  0.00    +0.066 A 
ATOM     31  C   UNL     1      -1.445  -2.944   8.295  0.00  0.00    +0.035 A 
ATOM     32  C   UNL     1      -0.228  -2.462   8.727  0.00  0.00    +0.042 A 
ATOM     33  C   UNL     1       0.508  -1.589   7.934  0.00  0.00    +0.022 A 
ATOM     34  C   UNL     1       0.037  -1.189   6.704  0.00  0.00    +0.030 A 
ATOM     35  C   UNL     1      -1.193  -1.663   6.245  0.00  0.00    +0.078 A 
ATOM     36  N   UNL     1      -1.694  -1.294   5.039  0.00  0.00    -0.233 NA
ATOM     37 CL   UNL     1       0.392  -2.949  10.274  0.00  0.00    -0.084 Cl
ENDBRANCH  24  25
ENDBRANCH  23  24
ENDBRANCH   5  23
TORSDOF 5
