REMARK  Name = ZINC19523667
REMARK  12 active torsions:
REMARK  status: ('A' for Active; 'I' for Inactive)
REMARK    1  A    between atoms: C_1  and  C_2
REMARK    2  A    between atoms: C_2  and  C_3
REMARK    3  A    between atoms: N_7  and  C_8
REMARK    4  A    between atoms: C_8  and  C_9
REMARK    5  A    between atoms: C_11  and  C_17
REMARK    6  A    between atoms: C_14  and  O_15
REMARK    7  A    between atoms: O_15  and  C_16
REMARK    8  A    between atoms: C_17  and  N_18
REMARK    9  A    between atoms: N_18  and  C_19
REMARK   10  A    between atoms: C_19  and  C_24
REMARK   11  A    between atoms: C_29  and  O_30
REMARK   12  A    between atoms: O_30  and  C_31
REMARK                            x       y       z     vdW  Elec       q    Type
REMARK                         _______ _______ _______ _____ _____    ______ ____
ROOT
ATOM      1  C   UNL     1       0.506   2.079   2.838  0.00  0.00    +0.014 A 
ATOM      2  C   UNL     1       0.737   1.532   4.086  0.00  0.00    +0.010 A 
ATOM      3  C   UNL     1       1.913   0.850   4.336  0.00  0.00    -0.064 A 
ATOM      4  C   UNL     1       2.859   0.708   3.337  0.00  0.00    +0.005 A 
ATOM      5  C   UNL     1       2.631   1.248   2.087  0.00  0.00    +0.046 A 
ATOM      6  C   UNL     1       1.451   1.933   1.833  0.00  0.00    +0.125 A 
ENDROOT
BRANCH   6   7
ATOM      7  O   UNL     1       1.224   2.466   0.603  0.00  0.00    -0.495 OA
ATOM      8  C   UNL     1       2.244   2.282  -0.381  0.00  0.00    +0.277 C 
ENDBRANCH   6   7
BRANCH   1   9
ATOM      9  C   UNL     1      -0.773   2.828   2.567  0.00  0.00    +0.161 C 
BRANCH   9  14
ATOM     10  C   UNL     1      -2.585   1.087   2.635  0.00  0.00    +0.087 A 
ATOM     11  N   UNL     1      -3.313   0.440   1.766  0.00  0.00    -0.350 N 
ATOM     12  C   UNL     1      -2.970   0.824   0.528  0.00  0.00    +0.101 A 
ATOM     13  C   UNL     1      -1.996   1.749   0.633  0.00  0.00    +0.105 A 
ATOM     14  N   UNL     1      -1.754   1.919   1.970  0.00  0.00    -0.331 N 
ATOM     15  H   UNL     1      -4.064  -0.287   2.110  0.00  0.00    +0.166 HD
BRANCH  10  17
ATOM     16  C   UNL     1      -3.684   1.923   4.694  0.00  0.00    +0.012 C 
ATOM     17  C   UNL     1      -2.661   0.934   4.132  0.00  0.00    +0.069 C 
ENDBRANCH  10  17
ENDBRANCH   9  14
ENDBRANCH   1   9
BRANCH   3  18
ATOM     18  C   UNL     1       2.164   0.260   5.699  0.00  0.00    -0.046 C 
BRANCH  18  19
ATOM     19  N   UNL     1       2.847   1.250   6.543  0.00  0.00    +0.388 N 
ATOM     20  H   UNL     1       3.840   1.467   6.124  0.00  0.00    -0.084 HD
ATOM     21  H   UNL     1       2.252   2.175   6.577  0.00  0.00    -0.084 HD
BRANCH  19  22
ATOM     22  C   UNL     1       3.014   0.748   7.914  0.00  0.00    -0.038 C 
ATOM     23  C   UNL     1       1.634   0.540   8.572  0.00  0.00    -0.008 C 
ATOM     24  C   UNL     1       1.850   0.964  10.047  0.00  0.00    -0.001 C 
ATOM     25  C   UNL     1       2.804   2.178   9.918  0.00  0.00    -0.001 C 
ATOM     26  C   UNL     1       3.758   1.788   8.769  0.00  0.00    -0.008 C 
BRANCH  22  27
ATOM     27  C   UNL     1       3.779  -0.550   7.898  0.00  0.00    -0.017 A 
ATOM     28  C   UNL     1       3.248  -1.674   8.501  0.00  0.00    +0.006 A 
ATOM     29  C   UNL     1       3.947  -2.866   8.482  0.00  0.00    +0.000 A 
ATOM     30  C   UNL     1       5.186  -2.934   7.871  0.00  0.00    +0.004 A 
ATOM     31  C   UNL     1       5.724  -1.812   7.271  0.00  0.00    +0.046 A 
ATOM     32  C   UNL     1       5.021  -0.616   7.284  0.00  0.00    +0.122 A 
BRANCH  32  33
ATOM     33  O   UNL     1       5.549   0.489   6.695  0.00  0.00    -0.495 OA
ATOM     34  C   UNL     1       6.832   0.348   6.082  0.00  0.00    +0.277 C 
ENDBRANCH  32  33
ENDBRANCH  22  27
ENDBRANCH  19  22
ENDBRANCH  18  19
ENDBRANCH   3  18
TORSDOF 9
