REMARK  Name = ZINC15954426
REMARK  5 active torsions:
REMARK  status: ('A' for Active; 'I' for Inactive)
REMARK    1  A    between atoms: C_1  and  C_2
REMARK    2  A    between atoms: C_2  and  O_3
REMARK    3  A    between atoms: O_3  and  C_4
REMARK    4  A    between atoms: C_9  and  C_10
REMARK    5  A    between atoms: N_29  and  C_32
REMARK                            x       y       z     vdW  Elec       q    Type
REMARK                         _______ _______ _______ _____ _____    ______ ____
ROOT
ATOM      1  C   UNL     1      -1.982   2.457   3.520  0.00  0.00    +0.157 C 
ATOM      2  C   UNL     1      -1.594   3.912   3.378  0.00  0.00    +0.046 A 
ATOM      3  C   UNL     1      -2.092   4.896   4.157  0.00  0.00    -0.015 A 
ATOM      4  C   UNL     1      -1.487   6.135   3.713  0.00  0.00    +0.003 A 
ATOM      5  C   UNL     1      -1.620   7.460   4.139  0.00  0.00    +0.010 A 
ATOM      6  C   UNL     1      -0.876   8.403   3.472  0.00  0.00    +0.001 A 
ATOM      7  C   UNL     1      -0.032   8.070   2.426  0.00  0.00    +0.002 A 
ATOM      8  C   UNL     1       0.119   6.767   1.985  0.00  0.00    +0.026 A 
ATOM      9  C   UNL     1      -0.623   5.788   2.643  0.00  0.00    +0.047 A 
ATOM     10  N   UNL     1      -0.713   4.436   2.470  0.00  0.00    -0.356 N 
ATOM     11  H   UNL     1      -0.226   3.925   1.806  0.00  0.00    +0.166 HD
ATOM     12  C   UNL     1      -3.087   4.688   5.271  0.00  0.00    +0.069 C 
ATOM     13  C   UNL     1      -3.756   3.318   5.087  0.00  0.00    +0.167 C 
ATOM     14  N   UNL     1      -2.730   2.320   4.788  0.00  0.00    -0.276 N 
ATOM     15  C   UNL     1      -2.435   1.301   5.575  0.00  0.00    +0.234 C 
ATOM     16  O   UNL     1      -1.521   0.573   5.250  0.00  0.00    -0.274 OA
ATOM     17  C   UNL     1      -3.152   0.994   6.849  0.00  0.00    +0.204 C 
ATOM     18  N   UNL     1      -4.241   1.923   7.102  0.00  0.00    -0.288 N 
ATOM     19  C   UNL     1      -4.522   2.964   6.321  0.00  0.00    +0.237 C 
ATOM     20  O   UNL     1      -5.459   3.669   6.630  0.00  0.00    -0.274 OA
ENDROOT
BRANCH   1  26
ATOM     21  C   UNL     1      -0.757   0.333   2.994  0.00  0.00    +0.126 A 
ATOM     22  C   UNL     1       0.386  -0.452   3.028  0.00  0.00    +0.046 A 
ATOM     23  C   UNL     1       1.533   0.026   3.632  0.00  0.00    +0.004 A 
ATOM     24  C   UNL     1       1.542   1.286   4.202  0.00  0.00    +0.001 A 
ATOM     25  C   UNL     1       0.404   2.070   4.169  0.00  0.00    +0.009 A 
ATOM     26  C   UNL     1      -0.744   1.599   3.561  0.00  0.00    +0.020 A 
BRANCH  21  27
ATOM     27  O   UNL     1      -1.887  -0.134   2.401  0.00  0.00    -0.492 OA
BRANCH  27  29
ATOM     28  C   UNL     1      -3.181  -1.795   1.215  0.00  0.00    +0.048 C 
ATOM     29  C   UNL     1      -1.826  -1.444   1.832  0.00  0.00    +0.225 C 
ENDBRANCH  27  29
ENDBRANCH  21  27
ENDBRANCH   1  26
BRANCH  18  30
ATOM     30  C   UNL     1      -5.077   1.701   8.284  0.00  0.00    +0.077 C 
ATOM     31  C   UNL     1      -4.208   1.759   9.542  0.00  0.00    +0.022 C 
ATOM     32  C   UNL     1      -5.082   1.527  10.776  0.00  0.00    +0.002 C 
ATOM     33  C   UNL     1      -5.748   0.153  10.679  0.00  0.00    +0.000 C 
ATOM     34  C   UNL     1      -6.617   0.096   9.421  0.00  0.00    +0.002 C 
ATOM     35  C   UNL     1      -5.744   0.328   8.187  0.00  0.00    +0.022 C 
ENDBRANCH  18  30
TORSDOF 4
