REMARK  Name = ZINC36548568
REMARK  9 active torsions:
REMARK  status: ('A' for Active; 'I' for Inactive)
REMARK    1  A    between atoms: C_1  and  O_2
REMARK    2  A    between atoms: O_2  and  C_3
REMARK    3  A    between atoms: C_5  and  C_10
REMARK    4  A    between atoms: C_8  and  O_9
REMARK    5  A    between atoms: C_10  and  C_12
REMARK    6  A    between atoms: C_10  and  N_21
REMARK    7  A    between atoms: N_14  and  C_15
REMARK    8  A    between atoms: N_21  and  C_22
REMARK    9  A    between atoms: C_29  and  C_31
REMARK                            x       y       z     vdW  Elec       q    Type
REMARK                         _______ _______ _______ _____ _____    ______ ____
ROOT
ATOM      1  C   UNL     1       2.572   0.516   4.306  0.00  0.00    +0.197 C 
ENDROOT
BRANCH   1   4
ATOM      2  C   UNL     1       1.462  -2.087   1.804  0.00  0.00    +0.162 A 
ATOM      3  C   UNL     1       1.619  -0.877   2.458  0.00  0.00    +0.055 A 
ATOM      4  C   UNL     1       2.402  -0.802   3.595  0.00  0.00    -0.014 A 
ATOM      5  C   UNL     1       3.031  -1.934   4.081  0.00  0.00    +0.010 A 
ATOM      6  C   UNL     1       2.878  -3.145   3.432  0.00  0.00    +0.049 A 
ATOM      7  C   UNL     1       2.090  -3.228   2.296  0.00  0.00    +0.158 A 
BRANCH   2   9
ATOM      8  C   UNL     1       0.078  -0.952   0.238  0.00  0.00    +0.277 C 
ATOM      9  O   UNL     1       0.692  -2.163   0.685  0.00  0.00    -0.491 OA
ENDBRANCH   2   9
BRANCH   7  10
ATOM     10  O   UNL     1       1.934  -4.420   1.660  0.00  0.00    -0.503 OA
ATOM     11  H   UNL     1       2.597  -4.590   0.976  0.00  0.00    +0.292 HD
ENDBRANCH   7  10
ENDBRANCH   1   4
BRANCH   1  12
ATOM     12  C   UNL     1       1.746   0.516   5.567  0.00  0.00    +0.239 C 
ATOM     13  O   UNL     1       2.151  -0.056   6.557  0.00  0.00    -0.273 OA
ATOM     14  N   UNL     1       0.559   1.153   5.594  0.00  0.00    -0.311 N 
ATOM     15  H   UNL     1       0.235   1.610   4.802  0.00  0.00    +0.149 HD
BRANCH  14  16
ATOM     16  C   UNL     1      -0.244   1.153   6.819  0.00  0.00    +0.073 C 
ATOM     17  C   UNL     1      -1.091  -0.120   6.875  0.00  0.00    +0.022 C 
ATOM     18  C   UNL     1      -1.929  -0.119   8.155  0.00  0.00    +0.002 C 
ATOM     19  C   UNL     1      -2.848   1.105   8.162  0.00  0.00    +0.000 C 
ATOM     20  C   UNL     1      -2.001   2.378   8.106  0.00  0.00    +0.002 C 
ATOM     21  C   UNL     1      -1.163   2.377   6.827  0.00  0.00    +0.022 C 
ENDBRANCH  14  16
ENDBRANCH   1  12
BRANCH   1  22
ATOM     22  N   UNL     1       3.984   0.708   4.647  0.00  0.00    -0.252 N 
ATOM     23  C   UNL     1       4.910   0.780   3.670  0.00  0.00    +0.241 C 
ATOM     24  O   UNL     1       4.574   0.685   2.509  0.00  0.00    -0.273 OA
BRANCH  22  25
ATOM     25  C   UNL     1       4.372   0.817   5.988  0.00  0.00    +0.056 A 
ATOM     26  C   UNL     1       4.851  -0.295   6.667  0.00  0.00    +0.025 A 
ATOM     27  C   UNL     1       5.232  -0.184   7.989  0.00  0.00    +0.002 A 
ATOM     28  C   UNL     1       5.138   1.033   8.639  0.00  0.00    +0.002 A 
ATOM     29  C   UNL     1       4.661   2.143   7.967  0.00  0.00    +0.022 A 
ATOM     30  C   UNL     1       4.283   2.041   6.641  0.00  0.00    +0.062 A 
ATOM     31 CL   UNL     1       3.692   3.437   5.795  0.00  0.00    -0.082 Cl
ENDBRANCH  22  25
BRANCH  23  32
ATOM     32  C   UNL     1       6.362   0.978   4.021  0.00  0.00    +0.160 C 
ATOM     33  C   UNL     1       6.646   2.471   4.296  0.00  0.00    +0.041 C 
ATOM     34  C   UNL     1       7.120   2.963   2.909  0.00  0.00    +0.098 C 
ATOM     35  C   UNL     1       7.649   1.716   2.234  0.00  0.00    +0.214 C 
ATOM     36  O   UNL     1       8.362   1.706   1.253  0.00  0.00    -0.276 OA
ATOM     37  N   UNL     1       7.213   0.619   2.881  0.00  0.00    -0.304 N 
ATOM     38  H   UNL     1       7.433  -0.292   2.628  0.00  0.00    +0.149 HD
ENDBRANCH  23  32
ENDBRANCH   1  22
TORSDOF 8
