REMARK  Name = ZINC06509935
REMARK  5 active torsions:
REMARK  status: ('A' for Active; 'I' for Inactive)
REMARK    1  A    between atoms: C_1  and  C_2
REMARK    2  A    between atoms: C_2  and  N_3
REMARK    3  A    between atoms: N_3  and  C_4
REMARK    4  A    between atoms: C_14  and  C_16
REMARK    5  A    between atoms: C_16  and  N_17
REMARK                            x       y       z     vdW  Elec       q    Type
REMARK                         _______ _______ _______ _____ _____    ______ ____
ROOT
ATOM      1  N   UNL     1       0.002  -0.004   0.002  0.00  0.00    -0.270 N 
ATOM      2  C   UNL     1      -0.016   1.344   0.009  0.00  0.00    +0.240 C 
ATOM      3  O   UNL     1       1.026   1.964   0.003  0.00  0.00    -0.273 OA
ENDROOT
BRANCH   1   4
ATOM      4  C   UNL     1       1.220  -0.686  -0.013  0.00  0.00    +0.044 A 
ATOM      5  C   UNL     1       1.839  -1.031   1.169  0.00  0.00    +0.024 A 
ATOM      6  C   UNL     1       3.053  -1.710   1.165  0.00  0.00    +0.002 A 
ATOM      7  C   UNL     1       3.664  -2.052  -0.004  0.00  0.00    +0.008 A 
ATOM      8  C   UNL     1       3.066  -1.718  -1.231  0.00  0.00    -0.016 A 
ATOM      9  C   UNL     1       1.827  -1.032  -1.239  0.00  0.00    +0.004 A 
ATOM     10  C   UNL     1       1.234  -0.694  -2.466  0.00  0.00    +0.010 A 
ATOM     11  C   UNL     1       1.851  -1.039  -3.630  0.00  0.00    +0.001 A 
ATOM     12  C   UNL     1       3.067  -1.719  -3.623  0.00  0.00    +0.001 A 
ATOM     13  C   UNL     1       3.674  -2.058  -2.452  0.00  0.00    +0.008 A 
ENDBRANCH   1   4
BRANCH   1  15
ATOM     14  C   UNL     1      -1.708  -1.007  -1.430  0.00  0.00    +0.025 C 
ATOM     15  C   UNL     1      -1.256  -0.754   0.010  0.00  0.00    +0.110 C 
ENDBRANCH   1  15
BRANCH   2  16
ATOM     16  C   UNL     1      -1.331   2.079   0.020  0.00  0.00    +0.224 C 
BRANCH  16  17
ATOM     17  N   UNL     1      -1.083   3.523   0.026  0.00  0.00    -0.265 N 
ATOM     18  C   UNL     1      -0.949   4.342  -1.095  0.00  0.00    +0.091 A 
ATOM     19  C   UNL     1      -0.997   4.103  -2.459  0.00  0.00    +0.030 A 
ATOM     20  C   UNL     1      -0.822   5.147  -3.346  0.00  0.00    +0.002 A 
ATOM     21  C   UNL     1      -0.600   6.430  -2.876  0.00  0.00    +0.004 A 
ATOM     22  C   UNL     1      -0.550   6.676  -1.517  0.00  0.00    +0.048 A 
ATOM     23  C   UNL     1      -0.725   5.634  -0.620  0.00  0.00    +0.157 A 
ATOM     24  O   UNL     1      -0.728   5.571   0.735  0.00  0.00    -0.407 OA
ATOM     25  C   UNL     1      -0.949   4.304   1.117  0.00  0.00    +0.422 A 
ATOM     26  O   UNL     1      -1.014   3.919   2.268  0.00  0.00    -0.223 OA
ENDBRANCH  16  17
ENDBRANCH   2  16
TORSDOF 4
