REMARK  Name = ZINC63527306
REMARK  8 active torsions:
REMARK  status: ('A' for Active; 'I' for Inactive)
REMARK    1  A    between atoms: C_1  and  C_2
REMARK    2  A    between atoms: C_2  and  C_3
REMARK    3  A    between atoms: C_2  and  C_4
REMARK    4  A    between atoms: C_6  and  C_18
REMARK    5  A    between atoms: N_9  and  C_10
REMARK    6  A    between atoms: N_20  and  C_21
REMARK    7  A    between atoms: C_21  and  C_22
REMARK    8  A    between atoms: C_22  and  C_23
REMARK                            x       y       z     vdW  Elec       q    Type
REMARK                         _______ _______ _______ _____ _____    ______ ____
ROOT
ATOM      1  C   UNL     1      -4.395  -1.315  -1.099  0.00  0.00    +0.236 C 
ATOM      2  O   UNL     1      -5.198  -0.435  -0.870  0.00  0.00    -0.274 OA
ATOM      3  N   UNL     1      -4.411  -1.950  -2.288  0.00  0.00    -0.314 N 
ATOM      4  H   UNL     1      -3.769  -2.654  -2.470  0.00  0.00    +0.149 HD
ENDROOT
BRANCH   1   7
ATOM      5  C   UNL     1      -1.423  -0.571   0.236  0.00  0.00    +0.023 C 
ATOM      6  C   UNL     1      -1.975  -1.458  -0.567  0.00  0.00    +0.022 C 
ATOM      7  C   UNL     1      -3.379  -1.699  -0.054  0.00  0.00    +0.183 C 
ATOM      8  N   UNL     1      -3.490  -0.818   1.126  0.00  0.00    -0.224 NA
ATOM      9  N   UNL     1      -2.287  -0.182   1.240  0.00  0.00    -0.265 N 
ATOM     10  H   UNL     1      -4.244  -0.156   1.014  0.00  0.00    +0.146 HD
BRANCH   9  11
ATOM     11  C   UNL     1      -1.958   0.786   2.288  0.00  0.00    +0.113 C 
ATOM     12  C   UNL     1      -2.192   0.156   3.671  0.00  0.00    +0.048 C 
ATOM     13  C   UNL     1      -2.159   1.252   4.763  0.00  0.00    +0.168 C 
ATOM     14  S   UNL     1      -2.714   2.749   3.850  0.00  0.00    -0.029 S 
ATOM     15  O   UNL     1      -4.000   3.127   4.321  0.00  0.00    -0.174 OA
ATOM     16  O   UNL     1      -1.662   3.704   3.846  0.00  0.00    -0.174 OA
ATOM     17  C   UNL     1      -2.881   2.032   2.162  0.00  0.00    +0.189 C 
ENDBRANCH   9  11
BRANCH   5  19
ATOM     18  C   UNL     1      -0.054   1.472  -0.084  0.00  0.00    +0.013 C 
ATOM     19  C   UNL     1      -0.018  -0.049   0.080  0.00  0.00    +0.028 C 
ATOM     20  C   UNL     1       0.800  -0.409   1.322  0.00  0.00    +0.013 C 
ENDBRANCH   5  19
ENDBRANCH   1   7
BRANCH   3  21
ATOM     21  C   UNL     1      -5.399  -1.577  -3.303  0.00  0.00    +0.108 C 
BRANCH  21  22
ATOM     22  C   UNL     1      -5.202  -2.444  -4.549  0.00  0.00    +0.065 C 
BRANCH  22  23
ATOM     23  C   UNL     1      -6.233  -2.055  -5.610  0.00  0.00    +0.175 C 
ATOM     24  N   UNL     1      -7.589  -2.327  -5.118  0.00  0.00    -0.363 N 
ATOM     25  C   UNL     1      -8.131  -3.194  -5.924  0.00  0.00    +0.060 A 
ATOM     26  C   UNL     1      -9.449  -3.843  -5.954  0.00  0.00    +0.027 A 
ATOM     27  C   UNL     1      -9.735  -4.721  -6.936  0.00  0.00    +0.002 A 
ATOM     28  C   UNL     1      -8.817  -5.052  -7.949  0.00  0.00    +0.002 A 
ATOM     29  C   UNL     1      -7.582  -4.516  -8.014  0.00  0.00    +0.027 A 
ATOM     30  C   UNL     1      -7.159  -3.544  -6.996  0.00  0.00    +0.060 A 
ATOM     31  N   UNL     1      -6.055  -2.880  -6.812  0.00  0.00    -0.363 N 
ATOM     32  H   UNL     1      -8.006  -1.933  -4.335  0.00  0.00    +0.162 HD
ATOM     33  H   UNL     1      -5.261  -2.921  -7.366  0.00  0.00    +0.162 HD
ENDBRANCH  22  23
ENDBRANCH  21  22
ENDBRANCH   3  21
TORSDOF 6
