REMARK  Name = ZINC49421098
REMARK  4 active torsions:
REMARK  status: ('A' for Active; 'I' for Inactive)
REMARK    1  A    between atoms: C_5  and  C_7
REMARK    2  A    between atoms: C_21  and  C_24
REMARK    3  A    between atoms: N_26  and  C_27
REMARK    4  A    between atoms: C_27  and  C_28
REMARK                            x       y       z     vdW  Elec       q    Type
REMARK                         _______ _______ _______ _____ _____    ______ ____
ROOT
ATOM      1  C   UNL     1       1.222  -2.165  -0.010  0.00  0.00    +0.018 A 
ATOM      2  C   UNL     1       0.739  -2.865  -1.068  0.00  0.00    +0.056 A 
ATOM      3  S   UNL     1       0.979  -4.479  -0.676  0.00  0.00    -0.089 S 
ATOM      4  C   UNL     1       1.734  -4.298   0.915  0.00  0.00    +0.103 A 
ATOM      5  C   UNL     1       1.785  -2.909   1.104  0.00  0.00    +0.095 A 
ATOM      6  N   UNL     1       2.333  -2.466   2.268  0.00  0.00    -0.215 NA
ATOM      7  C   UNL     1       2.795  -3.295   3.167  0.00  0.00    +0.199 A 
ATOM      8  N   UNL     1       2.763  -4.649   3.008  0.00  0.00    -0.294 N 
ATOM      9  H   UNL     1       3.116  -5.231   3.699  0.00  0.00    +0.172 HD
ATOM     10  C   UNL     1       2.224  -5.175   1.882  0.00  0.00    +0.267 A 
ATOM     11  O   UNL     1       2.182  -6.382   1.712  0.00  0.00    -0.267 OA
ATOM     12  N   UNL     1       3.336  -2.780   4.321  0.00  0.00    -0.301 N 
ATOM     13  C   UNL     1       3.761  -3.670   5.410  0.00  0.00    +0.108 C 
ATOM     14  C   UNL     1       3.084  -3.218   6.708  0.00  0.00    +0.032 C 
ATOM     15  C   UNL     1       3.389  -1.738   6.949  0.00  0.00    +0.078 C 
ATOM     16  C   UNL     1       2.828  -0.904   5.796  0.00  0.00    +0.032 C 
ATOM     17  C   UNL     1       3.507  -1.330   4.485  0.00  0.00    +0.108 C 
ENDROOT
BRANCH   1  22
ATOM     18  C   UNL     1      -0.074   1.363   0.042  0.00  0.00    +0.001 A 
ATOM     19  C   UNL     1       1.105   2.086   0.033  0.00  0.00    +0.003 A 
ATOM     20  C   UNL     1       2.324   1.432   0.009  0.00  0.00    +0.039 A 
ATOM     21  C   UNL     1       2.369   0.050  -0.005  0.00  0.00    +0.131 A 
ATOM     22  C   UNL     1       1.181  -0.683   0.005  0.00  0.00    +0.020 A 
ATOM     23  C   UNL     1      -0.043  -0.017   0.029  0.00  0.00    +0.011 A 
ATOM     24  F   UNL     1       3.559  -0.588  -0.028  0.00  0.00    -0.205 F 
ENDBRANCH   1  22
BRANCH  15  25
ATOM     25  C   UNL     1       2.753  -1.298   8.243  0.00  0.00    +0.216 C 
ATOM     26  O   UNL     1       2.118  -2.091   8.906  0.00  0.00    -0.276 OA
ATOM     27  N   UNL     1       2.890  -0.025   8.663  0.00  0.00    -0.313 N 
ATOM     28  H   UNL     1       3.398   0.608   8.133  0.00  0.00    +0.149 HD
BRANCH  27  29
ATOM     29  C   UNL     1       2.272   0.402   9.920  0.00  0.00    +0.135 C 
BRANCH  29  30
ATOM     30  C   UNL     1       2.577   1.881  10.162  0.00  0.00    +0.135 C 
ATOM     31  C   UNL     1       2.033   2.310  11.542  0.00  0.00    +0.035 C 
ATOM     32  C   UNL     1       1.481   3.732  11.251  0.00  0.00    +0.031 C 
ATOM     33  C   UNL     1       0.974   3.559   9.798  0.00  0.00    +0.160 C 
ATOM     34  O   UNL     1       1.924   2.681   9.170  0.00  0.00    -0.375 OA
ENDBRANCH  29  30
ENDBRANCH  27  29
ENDBRANCH  15  25
TORSDOF 4
