REMARK  Name = ZINC39531780
REMARK  2 active torsions:
REMARK  status: ('A' for Active; 'I' for Inactive)
REMARK    1  A    between atoms: C_3  and  C_7
REMARK    2  A    between atoms: N_16  and  C_17
REMARK                            x       y       z     vdW  Elec       q    Type
REMARK                         _______ _______ _______ _____ _____    ______ ____
ROOT
ATOM      1  C   UNL     1       3.696   2.049  -0.023  0.00  0.00    +0.206 C 
ATOM      2  N   UNL     1       4.719   1.233   0.690  0.00  0.00    -0.267 NA
ATOM      3  C   UNL     1       5.597   2.284   1.222  0.00  0.00    +0.212 C 
ATOM      4  C   UNL     1       4.646   3.451   1.485  0.00  0.00    +0.094 C 
ATOM      5  N   UNL     1       3.610   3.310   0.731  0.00  0.00    -0.260 NA
ATOM      6  C   UNL     1       5.308   4.141   2.594  0.00  0.00    +0.156 C 
ATOM      7  N   UNL     1       6.062   3.281   3.221  0.00  0.00    -0.189 NA
ATOM      8  N   UNL     1       6.127   2.021   2.562  0.00  0.00    -0.229 N 
ATOM      9  H   UNL     1       4.300   0.699   1.437  0.00  0.00    +0.126 HD
ENDROOT
BRANCH   1  12
ATOM     10  C   UNL     1      -0.017   1.378   0.010  0.00  0.00    +0.020 A 
ATOM     11  C   UNL     1       1.185   2.070   0.002  0.00  0.00    +0.010 A 
ATOM     12  C   UNL     1       2.365   1.343  -0.013  0.00  0.00    +0.009 A 
ATOM     13  C   UNL     1       2.305  -0.038  -0.020  0.00  0.00    +0.117 A 
ATOM     14  N   UNL     1       1.144  -0.663  -0.013  0.00  0.00    -0.263 NA
ATOM     15  C   UNL     1       0.002  -0.004   0.002  0.00  0.00    +0.111 A 
ENDBRANCH   1  12
BRANCH   8  16
ATOM     16  C   UNL     1       6.602   0.743   3.097  0.00  0.00    +0.095 C 
ATOM     17  C   UNL     1       5.765   0.358   4.318  0.00  0.00    +0.024 C 
ATOM     18  C   UNL     1       6.261  -0.978   4.876  0.00  0.00    +0.002 C 
ATOM     19  C   UNL     1       7.729  -0.845   5.286  0.00  0.00    +0.000 C 
ATOM     20  C   UNL     1       8.567  -0.460   4.065  0.00  0.00    +0.002 C 
ATOM     21  C   UNL     1       8.071   0.875   3.507  0.00  0.00    +0.024 C 
ENDBRANCH   8  16
TORSDOF 2
