REMARK  Name = ZINC19497636
REMARK  4 active torsions:
REMARK  status: ('A' for Active; 'I' for Inactive)
REMARK    1  A    between atoms: C_1  and  C_2
REMARK    2  A    between atoms: C_7  and  C_10
REMARK    3  A    between atoms: C_14  and  C_22
REMARK    4  A    between atoms: C_15  and  C_17
REMARK                            x       y       z     vdW  Elec       q    Type
REMARK                         _______ _______ _______ _____ _____    ______ ____
ROOT
ATOM      1  C   UNL     1       3.334  10.498   0.280  0.00  0.00    +0.039 C 
ATOM      2  C   UNL     1       4.306   9.329   0.112  0.00  0.00    +0.133 C 
ATOM      3  C   UNL     1       3.528   8.010   0.138  0.00  0.00    +0.139 C 
ATOM      4  N   UNL     1       4.474   6.888   0.055  0.00  0.00    -0.295 N 
ATOM      5  C   UNL     1       5.432   6.930   1.169  0.00  0.00    +0.139 C 
ATOM      6  C   UNL     1       6.191   8.259   1.133  0.00  0.00    +0.133 C 
ATOM      7  O   UNL     1       5.254   9.338   1.183  0.00  0.00    -0.371 OA
ATOM      8  C   UNL     1       7.133   8.343   2.335  0.00  0.00    +0.039 C 
ATOM      9  C   UNL     1       3.805   5.676   0.022  0.00  0.00    +0.219 A 
ATOM     10  N   UNL     1       4.089   4.760   0.938  0.00  0.00    -0.222 NA
ATOM     11  C   UNL     1       3.473   3.591   0.950  0.00  0.00    +0.125 A 
ATOM     12  C   UNL     1       2.514   3.317  -0.029  0.00  0.00    +0.035 A 
ATOM     13  C   UNL     1       2.237   4.316  -0.988  0.00  0.00    +0.109 A 
ATOM     14  N   UNL     1       2.902   5.469  -0.922  0.00  0.00    -0.212 NA
ENDROOT
BRANCH  13  15
ATOM     15  C   UNL     1       1.231   4.087  -2.042  0.00  0.00    +0.127 A 
ATOM     16  N   UNL     1       0.925   4.840  -3.091  0.00  0.00    -0.246 NA
ATOM     17  C   UNL     1      -0.007   4.480  -3.938  0.00  0.00    +0.119 A 
ATOM     18  C   UNL     1      -0.683   3.313  -3.748  0.00  0.00    +0.067 A 
ATOM     19  S   UNL     1       0.101   2.718  -2.255  0.00  0.00    -0.074 S 
ENDBRANCH  13  15
BRANCH  12  20
ATOM     20  C   UNL     1       1.805   2.022  -0.057  0.00  0.00    +0.023 A 
ATOM     21  C   UNL     1       1.747   1.091  -1.060  0.00  0.00    +0.016 A 
ATOM     22  C   UNL     1       1.014  -0.058  -0.855  0.00  0.00    +0.008 A 
ATOM     23  C   UNL     1       0.373  -0.231   0.330  0.00  0.00    +0.046 A 
ATOM     24  S   UNL     1       0.800   1.263   1.209  0.00  0.00    -0.097 S 
ENDBRANCH  12  20
TORSDOF 2
