REMARK  Name = ZINC59044953
REMARK  9 active torsions:
REMARK  status: ('A' for Active; 'I' for Inactive)
REMARK    1  A    between atoms: C_1  and  C_2
REMARK    2  A    between atoms: C_2  and  S_3
REMARK    3  A    between atoms: S_3  and  C_4
REMARK    4  A    between atoms: C_9  and  N_10
REMARK    5  A    between atoms: C_11  and  C_13
REMARK    6  A    between atoms: C_13  and  S_14
REMARK    7  A    between atoms: S_14  and  C_15
REMARK    8  A    between atoms: C_18  and  C_21
REMARK    9  A    between atoms: N_19  and  N_20
REMARK                            x       y       z     vdW  Elec       q    Type
REMARK                         _______ _______ _______ _____ _____    ______ ____
ROOT
ATOM      1  S   UNL     1       3.670  -4.052   6.755  0.00  0.00    -0.075 S 
ENDROOT
BRANCH   1   2
ATOM      2  C   UNL     1       4.319  -3.166   8.133  0.00  0.00    +0.209 A 
ATOM      3  N   UNL     1       4.363  -1.859   8.269  0.00  0.00    -0.121 NA
ATOM      4  N   UNL     1       4.901  -1.551   9.395  0.00  0.00    -0.127 NA
ATOM      5  C   UNL     1       5.233  -2.641  10.047  0.00  0.00    +0.183 A 
ATOM      6  N   UNL     1       4.865  -3.709   9.261  0.00  0.00    -0.224 N 
BRANCH   5   7
ATOM      7  C   UNL     1       5.875  -2.708  11.376  0.00  0.00    +0.035 A 
ATOM      8  C   UNL     1       7.008  -3.501  11.568  0.00  0.00    +0.013 A 
ATOM      9  C   UNL     1       7.603  -3.559  12.811  0.00  0.00    +0.001 A 
ATOM     10  C   UNL     1       7.080  -2.834  13.867  0.00  0.00    +0.001 A 
ATOM     11  C   UNL     1       5.957  -2.046  13.685  0.00  0.00    +0.016 A 
ATOM     12  C   UNL     1       5.355  -1.975  12.445  0.00  0.00    +0.029 A 
ATOM     13 BR   UNL     1       3.825  -0.892  12.195  0.00  0.00    -0.050 Br
ENDBRANCH   5   7
BRANCH   6  14
ATOM     14  N   UNL     1       5.018  -5.036   9.548  0.00  0.00    -0.295 N 
ATOM     15  H   UNL     1       5.871  -5.396   9.147  0.00  0.00    +0.163 HD
ATOM     16  H   UNL     1       4.990  -5.196  10.544  0.00  0.00    +0.163 HD
ENDBRANCH   6  14
ENDBRANCH   1   2
BRANCH   1  17
ATOM     17  C   UNL     1       3.112  -2.751   5.620  0.00  0.00    +0.173 C 
BRANCH  17  19
ATOM     18  N   UNL     1       2.045  -2.603   3.394  0.00  0.00    -0.284 N 
ATOM     19  C   UNL     1       2.527  -3.381   4.383  0.00  0.00    +0.228 C 
ATOM     20  O   UNL     1       2.490  -4.589   4.277  0.00  0.00    -0.275 OA
ATOM     21  H   UNL     1       2.147  -1.639   3.441  0.00  0.00    +0.155 HD
BRANCH  18  27
ATOM     22  C   UNL     1       1.350  -2.515   1.074  0.00  0.00    +0.029 A 
ATOM     23  C   UNL     1       0.710  -3.100  -0.009  0.00  0.00    +0.016 A 
ATOM     24  C   UNL     1       0.117  -4.340   0.126  0.00  0.00    +0.001 A 
ATOM     25  C   UNL     1       0.158  -5.002   1.340  0.00  0.00    +0.002 A 
ATOM     26  C   UNL     1       0.793  -4.427   2.425  0.00  0.00    +0.024 A 
ATOM     27  C   UNL     1       1.396  -3.185   2.297  0.00  0.00    +0.047 A 
BRANCH  22  28
ATOM     28  S   UNL     1       2.108  -0.933   0.904  0.00  0.00    -0.124 S 
BRANCH  28  30
ATOM     29  C   UNL     1       2.404   0.894  -1.109  0.00  0.00    +0.015 C 
ATOM     30  C   UNL     1       1.791  -0.478  -0.822  0.00  0.00    +0.071 C 
ENDBRANCH  28  30
ENDBRANCH  22  28
ENDBRANCH  18  27
ENDBRANCH  17  19
ENDBRANCH   1  17
TORSDOF 8
