REMARK  Name = ZINC20533234
REMARK  4 active torsions:
REMARK  status: ('A' for Active; 'I' for Inactive)
REMARK    1  A    between atoms: C_1  and  C_2
REMARK    2  A    between atoms: C_4  and  C_20
REMARK    3  A    between atoms: C_5  and  C_18
REMARK    4  A    between atoms: N_9  and  C_11
REMARK                            x       y       z     vdW  Elec       q    Type
REMARK                         _______ _______ _______ _____ _____    ______ ____
ROOT
ATOM      1  C   UNL     1      -1.873   3.223   0.046  0.00  0.00    +0.068 C 
ATOM      2  C   UNL     1      -1.373   1.801   0.030  0.00  0.00    +0.070 A 
ATOM      3  C   UNL     1      -0.017   1.403   0.010  0.00  0.00    +0.051 A 
ATOM      4  C   UNL     1       1.204   2.110   0.002  0.00  0.00    +0.019 A 
ATOM      5  C   UNL     1       2.396   1.364  -0.014  0.00  0.00    +0.100 A 
ATOM      6  C   UNL     1       2.319  -0.044  -0.020  0.00  0.00    +0.137 A 
ATOM      7  N   UNL     1       1.155  -0.665  -0.013  0.00  0.00    -0.212 NA
ATOM      8  C   UNL     1       0.002  -0.004   0.002  0.00  0.00    +0.166 A 
ATOM      9  N   UNL     1      -1.308  -0.408   0.012  0.00  0.00    -0.214 N 
ATOM     10  N   UNL     1      -2.118   0.733   0.026  0.00  0.00    -0.169 NA
ATOM     11  N   UNL     1       3.486  -0.787  -0.035  0.00  0.00    -0.342 N 
ATOM     12  H   UNL     1       3.438  -1.886  -0.041  0.00  0.00    +0.144 HD
ATOM     13  H   UNL     1       4.462  -0.280  -0.042  0.00  0.00    +0.144 HD
ENDROOT
BRANCH   4  14
ATOM     14  C   UNL     1       1.230   3.588   0.009  0.00  0.00    +0.038 A 
ATOM     15  C   UNL     1       1.236   4.297  -1.196  0.00  0.00    +0.133 A 
ATOM     16  C   UNL     1       1.255   5.679  -1.181  0.00  0.00    +0.039 A 
ATOM     17  C   UNL     1       1.278   6.360   0.023  0.00  0.00    +0.004 A 
ATOM     18  C   UNL     1       1.277   5.665   1.219  0.00  0.00    +0.021 A 
ATOM     19  C   UNL     1       1.253   4.284   1.220  0.00  0.00    +0.051 A 
ATOM     20 CL   UNL     1       1.252   3.415   2.723  0.00  0.00    -0.083 Cl
ATOM     21  F   UNL     1       1.220   3.633  -2.373  0.00  0.00    -0.205 F 
ENDBRANCH   4  14
BRANCH   9  22
ATOM     22  C   UNL     1      -1.758  -1.734   0.010  0.00  0.00    +0.068 A 
ATOM     23  C   UNL     1      -1.059  -2.705  -0.696  0.00  0.00    +0.028 A 
ATOM     24  C   UNL     1      -1.502  -4.013  -0.691  0.00  0.00    +0.002 A 
ATOM     25  C   UNL     1      -2.647  -4.355   0.005  0.00  0.00    +0.000 A 
ATOM     26  C   UNL     1      -3.348  -3.389   0.704  0.00  0.00    +0.002 A 
ATOM     27  C   UNL     1      -2.907  -2.081   0.708  0.00  0.00    +0.028 A 
ENDBRANCH   9  22
BRANCH   5  28
ATOM     28  C   UNL     1       3.667   2.023  -0.023  0.00  0.00    +0.103 C 
ATOM     29  N   UNL     1       4.675   2.546  -0.031  0.00  0.00    -0.191 NA
ENDBRANCH   5  28
TORSDOF 3
