REMARK  Name = ZINC20491723
REMARK  7 active torsions:
REMARK  status: ('A' for Active; 'I' for Inactive)
REMARK    1  A    between atoms: C_1  and  C_2
REMARK    2  A    between atoms: C_5  and  O_24
REMARK    3  A    between atoms: C_6  and  N_8
REMARK    4  A    between atoms: N_8  and  S_9
REMARK    5  A    between atoms: S_9  and  C_12
REMARK    6  A    between atoms: C_17  and  C_18
REMARK    7  A    between atoms: O_24  and  C_25
REMARK                            x       y       z     vdW  Elec       q    Type
REMARK                         _______ _______ _______ _____ _____    ______ ____
ROOT
ATOM      1  S   UNL     1      -1.365   3.587  -0.693  0.00  0.00    +0.073 S 
ATOM      2  O   UNL     1      -2.638   4.173  -0.462  0.00  0.00    -0.150 OA
ATOM      3  O   UNL     1      -0.154   4.207  -0.279  0.00  0.00    -0.150 OA
ENDROOT
BRANCH   1   4
ATOM      4  C   UNL     1      -1.234   3.337  -2.432  0.00  0.00    +0.115 A 
ATOM      5  C   UNL     1      -0.105   3.767  -3.107  0.00  0.00    +0.076 A 
ATOM      6  C   UNL     1       0.001   3.566  -4.472  0.00  0.00    +0.144 A 
ATOM      7  C   UNL     1      -1.037   2.941  -5.164  0.00  0.00    +0.076 A 
ATOM      8  C   UNL     1      -2.166   2.518  -4.484  0.00  0.00    +0.032 A 
ATOM      9  C   UNL     1      -2.261   2.717  -3.118  0.00  0.00    -0.022 A 
ATOM     10  C   UNL     1      -3.490   2.257  -2.376  0.00  0.00    +0.046 C 
ATOM     11  N   UNL     1      -0.920   2.750  -6.548  0.00  0.00    -0.280 N 
ATOM     12  C   UNL     1       0.294   2.878  -7.126  0.00  0.00    +0.255 C 
ATOM     13  O   UNL     1       0.414   2.747  -8.326  0.00  0.00    -0.272 OA
ATOM     14  C   UNL     1       1.500   3.184  -6.274  0.00  0.00    +0.325 C 
ATOM     15  O   UNL     1       1.106   3.975  -5.150  0.00  0.00    -0.481 OA
ATOM     16  H   UNL     1      -1.809   2.500  -7.145  0.00  0.00    +0.155 HD
ENDBRANCH   1   4
BRANCH   1  17
ATOM     17  N   UNL     1      -1.396   2.091   0.016  0.00  0.00    -0.213 N 
ATOM     18  H   UNL     1      -2.265   1.786   0.618  0.00  0.00    +0.174 HD
BRANCH  17  24
ATOM     19  C   UNL     1       3.445   1.380  -0.458  0.00  0.00    +0.044 C 
ATOM     20  C   UNL     1       2.039   0.842  -0.387  0.00  0.00    -0.048 A 
ATOM     21  C   UNL     1       1.816  -0.519  -0.494  0.00  0.00    +0.007 A 
ATOM     22  C   UNL     1       0.528  -1.019  -0.430  0.00  0.00    +0.048 A 
ATOM     23  C   UNL     1      -0.542  -0.156  -0.259  0.00  0.00    +0.142 A 
ATOM     24  C   UNL     1      -0.318   1.214  -0.151  0.00  0.00    +0.090 A 
ATOM     25  C   UNL     1       0.977   1.709  -0.215  0.00  0.00    +0.031 A 
BRANCH  23  26
ATOM     26  O   UNL     1      -1.810  -0.647  -0.197  0.00  0.00    -0.493 OA
ATOM     27  C   UNL     1      -1.964  -2.062  -0.315  0.00  0.00    +0.277 C 
ENDBRANCH  23  26
ENDBRANCH  17  24
ENDBRANCH   1  17
TORSDOF 4
