REMARK  Name = ZINC44866105
REMARK  7 active torsions:
REMARK  status: ('A' for Active; 'I' for Inactive)
REMARK    1  A    between atoms: C_1  and  C_2
REMARK    2  A    between atoms: C_2  and  C_3
REMARK    3  A    between atoms: C_3  and  C_4
REMARK    4  A    between atoms: C_4  and  C_6
REMARK    5  A    between atoms: C_4  and  C_10
REMARK    6  A    between atoms: N_7  and  O_8
REMARK    7  A    between atoms: N_12  and  C_13
REMARK                            x       y       z     vdW  Elec       q    Type
REMARK                         _______ _______ _______ _____ _____    ______ ____
ROOT
ATOM      1  C   UNL     1      -1.108  -2.183   1.519  0.00  0.00    +0.228 C 
ATOM      2  O   UNL     1      -1.919  -2.520   2.356  0.00  0.00    -0.275 OA
ATOM      3  N   UNL     1       0.209  -2.223   1.802  0.00  0.00    -0.284 N 
ATOM      4  H   UNL     1       0.859  -1.989   1.121  0.00  0.00    +0.155 HD
ENDROOT
BRANCH   3   5
ATOM      5  C   UNL     1       0.639  -2.602   3.079  0.00  0.00    +0.052 A 
ATOM      6  C   UNL     1      -0.159  -3.420   3.868  0.00  0.00    +0.026 A 
ATOM      7  C   UNL     1       0.268  -3.793   5.127  0.00  0.00    +0.017 A 
ATOM      8  C   UNL     1       1.490  -3.352   5.605  0.00  0.00    +0.019 A 
ATOM      9  C   UNL     1       2.287  -2.536   4.822  0.00  0.00    +0.037 A 
ATOM     10  C   UNL     1       1.868  -2.165   3.558  0.00  0.00    +0.063 A 
ATOM     11 CL   UNL     1       2.873  -1.148   2.573  0.00  0.00    -0.082 Cl
ATOM     12 BR   UNL     1       2.069  -3.864   7.330  0.00  0.00    -0.050 Br
ENDBRANCH   3   5
BRANCH   1  13
ATOM     13  C   UNL     1      -1.573  -1.721   0.162  0.00  0.00    +0.141 C 
BRANCH  13  14
ATOM     14  C   UNL     1      -2.740  -2.564  -0.283  0.00  0.00    +0.144 C 
ATOM     15  N   UNL     1      -3.948  -2.159  -0.072  0.00  0.00    -0.076 NA
ATOM     16  N   UNL     1      -2.518  -3.768  -0.916  0.00  0.00    -0.343 N 
ATOM     17  H   UNL     1      -1.611  -4.072  -1.074  0.00  0.00    +0.144 HD
ATOM     18  H   UNL     1      -3.269  -4.311  -1.202  0.00  0.00    +0.144 HD
BRANCH  15  19
ATOM     19  O   UNL     1      -5.044  -2.952  -0.490  0.00  0.00    -0.408 OA
ATOM     20  H   UNL     1      -5.908  -2.567  -0.289  0.00  0.00    +0.328 HD
ENDBRANCH  15  19
ENDBRANCH  13  14
BRANCH  13  21
ATOM     21  C   UNL     1      -2.006  -0.255   0.244  0.00  0.00    +0.020 C 
BRANCH  21  23
ATOM     22  C   UNL     1      -2.664   1.749  -1.095  0.00  0.00    +0.004 C 
ATOM     23  C   UNL     1      -2.359   0.251  -1.156  0.00  0.00    -0.002 C 
ENDBRANCH  21  23
ENDBRANCH  13  21
ENDBRANCH   1  13
TORSDOF 6
