REMARK  Name = ZINC03371639
REMARK  7 active torsions:
REMARK  status: ('A' for Active; 'I' for Inactive)
REMARK    1  A    between atoms: C_1  and  C_2
REMARK    2  A    between atoms: C_2  and  N_3
REMARK    3  A    between atoms: N_3  and  C_4
REMARK    4  A    between atoms: N_3  and  C_19
REMARK    5  A    between atoms: C_4  and  C_5
REMARK    6  A    between atoms: C_12  and  C_17
REMARK    7  A    between atoms: C_19  and  C_20
REMARK                            x       y       z     vdW  Elec       q    Type
REMARK                         _______ _______ _______ _____ _____    ______ ____
ROOT
ATOM      1  N   UNL     1       0.755  -0.382   1.318  0.00  0.00    +0.388 N 
ATOM      2  H   UNL     1       1.598   0.162   1.418  0.00  0.00    -0.081 HD
ENDROOT
BRANCH   1   4
ATOM      3  C   UNL     1      -1.112  -0.958  -0.159  0.00  0.00    -0.017 C 
ATOM      4  C   UNL     1       0.137  -0.092   0.017  0.00  0.00    -0.081 C 
ENDBRANCH   1   4
BRANCH   1   5
ATOM      5  C   UNL     1      -0.183  -0.034   2.393  0.00  0.00    -0.022 C 
BRANCH   5   6
ATOM      6  C   UNL     1      -0.417   1.454   2.394  0.00  0.00    +0.032 A 
ATOM      7  C   UNL     1      -1.670   1.956   2.101  0.00  0.00    +0.092 A 
ATOM      8  C   UNL     1      -1.863   3.342   2.108  0.00  0.00    +0.259 A 
ATOM      9  O   UNL     1      -2.959   3.817   1.853  0.00  0.00    -0.267 OA
ATOM     10  N   UNL     1      -0.819   4.146   2.402  0.00  0.00    -0.266 N 
ATOM     11  C   UNL     1      -0.991   5.497   2.413  0.00  0.00    +0.116 A 
ATOM     12  C   UNL     1       0.041   6.324   2.705  0.00  0.00    +0.062 A 
ATOM     13  C   UNL     1       1.306   5.794   3.000  0.00  0.00    -0.009 A 
ATOM     14  C   UNL     1       1.488   4.443   2.991  0.00  0.00    +0.088 A 
ATOM     15  C   UNL     1       0.402   3.600   2.686  0.00  0.00    +0.159 A 
ATOM     16  N   UNL     1       0.577   2.280   2.681  0.00  0.00    -0.234 NA
ATOM     17 CL   UNL     1       3.045   3.768   3.354  0.00  0.00    -0.079 Cl
ATOM     18  C   UNL     1       2.455   6.713   3.324  0.00  0.00    +0.047 C 
ATOM     19 CL   UNL     1      -0.203   8.043   2.713  0.00  0.00    -0.082 Cl
ENDBRANCH   5   6
ENDBRANCH   1   5
BRANCH   1  20
ATOM     20  C   UNL     1       1.082  -1.812   1.397  0.00  0.00    -0.003 C 
BRANCH  20  21
ATOM     21  C   UNL     1       2.136  -2.143   0.372  0.00  0.00    +0.094 A 
ATOM     22  N   UNL     1       2.570  -3.428   0.286  0.00  0.00    -0.312 N 
ATOM     23  H   UNL     1       2.199  -4.101   0.877  0.00  0.00    +0.170 HD
ATOM     24  C   UNL     1       3.515  -3.777  -0.618  0.00  0.00    +0.259 A 
ATOM     25  O   UNL     1       3.912  -4.924  -0.707  0.00  0.00    -0.267 OA
ATOM     26  C   UNL     1       4.043  -2.716  -1.489  0.00  0.00    +0.065 A 
ATOM     27  C   UNL     1       5.017  -2.970  -2.452  0.00  0.00    +0.015 A 
ATOM     28  C   UNL     1       5.477  -1.939  -3.241  0.00  0.00    +0.001 A 
ATOM     29  C   UNL     1       4.977  -0.653  -3.084  0.00  0.00    +0.002 A 
ATOM     30  C   UNL     1       4.014  -0.381  -2.139  0.00  0.00    +0.028 A 
ATOM     31  C   UNL     1       3.532  -1.410  -1.327  0.00  0.00    +0.078 A 
ATOM     32  N   UNL     1       2.579  -1.188  -0.387  0.00  0.00    -0.236 NA
ENDBRANCH  20  21
ENDBRANCH   1  20
TORSDOF 5
