REMARK  Name = ZINC35698817
REMARK  12 active torsions:
REMARK  status: ('A' for Active; 'I' for Inactive)
REMARK    1  A    between atoms: C_1  and  C_2
REMARK    2  A    between atoms: C_2  and  N_3
REMARK    3  A    between atoms: N_3  and  C_4
REMARK    4  A    between atoms: C_5  and  C_7
REMARK    5  A    between atoms: C_10  and  C_13
REMARK    6  A    between atoms: C_13  and  S_14
REMARK    7  A    between atoms: S_14  and  C_15
REMARK    8  A    between atoms: C_17  and  C_36
REMARK    9  A    between atoms: C_19  and  N_21
REMARK   10  A    between atoms: N_24  and  C_27
REMARK   11  A    between atoms: C_27  and  C_28
REMARK   12  A    between atoms: C_29  and  C_30
REMARK                            x       y       z     vdW  Elec       q    Type
REMARK                         _______ _______ _______ _____ _____    ______ ____
ROOT
ATOM      1  C   UNL     1       5.651  -5.416   6.819  0.00  0.00    +0.190 A 
ATOM      2  N   UNL     1       5.990  -4.540   7.754  0.00  0.00    -0.227 NA
ATOM      3  C   UNL     1       6.610  -4.930   8.858  0.00  0.00    +0.044 A 
ATOM      4  C   UNL     1       6.904  -6.269   9.032  0.00  0.00    +0.066 A 
ATOM      5  C   UNL     1       6.534  -7.168   8.029  0.00  0.00    +0.126 A 
ATOM      6  N   UNL     1       5.910  -6.708   6.949  0.00  0.00    -0.207 NA
ATOM      7  C   UNL     1       6.990  -3.924   9.914  0.00  0.00    +0.066 C 
ENDROOT
BRANCH   5   8
ATOM      8  N   UNL     1       6.809  -8.519   8.161  0.00  0.00    -0.319 N 
ATOM      9  C   UNL     1       6.529  -9.458   7.064  0.00  0.00    +0.088 C 
ATOM     10  C   UNL     1       5.728 -10.637   7.626  0.00  0.00    -0.059 C 
ATOM     11  N   UNL     1       6.455 -11.226   8.757  0.00  0.00    +0.384 N 
ATOM     12  C   UNL     1       6.549 -10.254   9.853  0.00  0.00    -0.059 C 
ATOM     13  C   UNL     1       7.396  -9.055   9.399  0.00  0.00    +0.088 C 
ATOM     14  H   UNL     1       7.384 -11.486   8.460  0.00  0.00    -0.081 HD
BRANCH  11  15
ATOM     15  C   UNL     1       5.743 -12.422   9.226  0.00  0.00    -0.051 C 
BRANCH  15  16
ATOM     16  C   UNL     1       6.550 -13.098  10.305  0.00  0.00    -0.045 C 
ATOM     17  C   UNL     1       6.002 -13.342  11.487  0.00  0.00    +0.002 C 
BRANCH  17  18
ATOM     18  C   UNL     1       6.794 -14.004  12.545  0.00  0.00    -0.025 A 
ATOM     19  C   UNL     1       8.119 -14.368  12.305  0.00  0.00    +0.008 A 
ATOM     20  C   UNL     1       8.852 -14.986  13.297  0.00  0.00    +0.001 A 
ATOM     21  C   UNL     1       8.276 -15.246  14.527  0.00  0.00    +0.000 A 
ATOM     22  C   UNL     1       6.963 -14.888  14.772  0.00  0.00    +0.001 A 
ATOM     23  C   UNL     1       6.221 -14.263  13.791  0.00  0.00    +0.008 A 
ENDBRANCH  17  18
ENDBRANCH  15  16
ENDBRANCH  11  15
ENDBRANCH   5   8
BRANCH   1  24
ATOM     24  S   UNL     1       4.827  -4.847   5.368  0.00  0.00    -0.081 S 
BRANCH  24  25
ATOM     25  C   UNL     1       4.687  -3.056   5.617  0.00  0.00    +0.112 C 
BRANCH  25  29
ATOM     26  C   UNL     1       2.712  -1.299   2.255  0.00  0.00    +0.037 A 
ATOM     27  C   UNL     1       1.970  -1.746   3.349  0.00  0.00    +0.013 A 
ATOM     28  C   UNL     1       2.613  -2.312   4.431  0.00  0.00    +0.005 A 
ATOM     29  C   UNL     1       3.991  -2.437   4.433  0.00  0.00    -0.037 A 
ATOM     30  C   UNL     1       4.733  -1.995   3.351  0.00  0.00    +0.005 A 
ATOM     31  C   UNL     1       4.102  -1.433   2.261  0.00  0.00    +0.013 A 
BRANCH  26  34
ATOM     32  N   UNL     1       0.930   0.065   1.277  0.00  0.00    -0.301 N 
ATOM     33  C   UNL     1       0.485   0.393   2.634  0.00  0.00    +0.132 C 
ATOM     34  C   UNL     1       2.030  -0.692   1.093  0.00  0.00    +0.246 C 
ATOM     35  O   UNL     1       2.460  -0.876  -0.029  0.00  0.00    -0.270 OA
BRANCH  32  37
ATOM     36  C   UNL     1       0.735   1.923  -0.302  0.00  0.00    +0.024 C 
ATOM     37  C   UNL     1       0.180   0.561   0.120  0.00  0.00    +0.104 C 
ENDBRANCH  32  37
ENDBRANCH  26  34
ENDBRANCH  25  29
ENDBRANCH  24  25
ENDBRANCH   1  24
TORSDOF 9
