REMARK  Name = ZINC40173101
REMARK  10 active torsions:
REMARK  status: ('A' for Active; 'I' for Inactive)
REMARK    1  A    between atoms: C_1  and  C_2
REMARK    2  A    between atoms: C_2  and  C_3
REMARK    3  A    between atoms: C_6  and  N_9
REMARK    4  A    between atoms: C_10  and  C_12
REMARK    5  A    between atoms: C_12  and  C_14
REMARK    6  A    between atoms: C_12  and  N_16
REMARK    7  A    between atoms: C_14  and  C_15
REMARK    8  A    between atoms: C_20  and  S_21
REMARK    9  A    between atoms: S_21  and  C_22
REMARK   10  A    between atoms: C_22  and  C_23
REMARK                            x       y       z     vdW  Elec       q    Type
REMARK                         _______ _______ _______ _____ _____    ______ ____
ROOT
ATOM      1  N   UNL     1      -7.949  -2.595  -2.470  0.00  0.00    -0.279 N 
ATOM      2  C   UNL     1      -7.986  -1.568  -3.370  0.00  0.00    +0.216 A 
ATOM      3  N   UNL     1      -8.501  -2.024  -4.485  0.00  0.00    -0.113 NA
ATOM      4  N   UNL     1      -8.805  -3.379  -4.299  0.00  0.00    -0.121 NA
ATOM      5  C   UNL     1      -8.460  -3.708  -3.078  0.00  0.00    +0.194 A 
ATOM      6  N   UNL     1      -7.553  -0.268  -3.144  0.00  0.00    -0.328 N 
ATOM      7  H   UNL     1      -7.184  -0.023  -2.280  0.00  0.00    +0.145 HD
ATOM      8  H   UNL     1      -7.620   0.396  -3.848  0.00  0.00    +0.145 HD
ENDROOT
BRANCH   1   9
ATOM      9  C   UNL     1      -7.446  -2.518  -1.097  0.00  0.00    +0.178 C 
BRANCH   9  11
ATOM     10  N   UNL     1      -5.320  -1.968   0.042  0.00  0.00    -0.284 N 
ATOM     11  C   UNL     1      -5.997  -2.104  -1.115  0.00  0.00    +0.240 C 
ATOM     12  O   UNL     1      -5.440  -1.894  -2.172  0.00  0.00    -0.273 OA
ATOM     13  H   UNL     1      -5.745  -2.201   0.883  0.00  0.00    +0.155 HD
BRANCH  10  17
ATOM     14  C   UNL     1      -1.405  -0.545   0.010  0.00  0.00    -0.048 A 
ATOM     15  C   UNL     1      -1.856  -1.348  -1.022  0.00  0.00    +0.005 A 
ATOM     16  C   UNL     1      -3.153  -1.821  -1.014  0.00  0.00    +0.023 A 
ATOM     17  C   UNL     1      -4.005  -1.490   0.032  0.00  0.00    +0.033 A 
ATOM     18  C   UNL     1      -3.549  -0.684   1.067  0.00  0.00    +0.023 A 
ATOM     19  C   UNL     1      -2.249  -0.218   1.055  0.00  0.00    +0.005 A 
BRANCH  14  21
ATOM     20  C   UNL     1       0.924  -1.031   0.711  0.00  0.00    +0.009 C 
ATOM     21  C   UNL     1       0.012  -0.030  -0.002  0.00  0.00    +0.032 C 
ENDBRANCH  14  21
ENDBRANCH  10  17
ENDBRANCH   9  11
BRANCH   9  22
ATOM     22  C   UNL     1      -8.261  -1.488  -0.311  0.00  0.00    +0.031 C 
ATOM     23  C   UNL     1      -9.707  -1.971  -0.186  0.00  0.00    +0.006 C 
ENDBRANCH   9  22
ENDBRANCH   1   9
BRANCH   5  24
ATOM     24  S   UNL     1      -8.628  -5.302  -2.347  0.00  0.00    -0.081 S 
BRANCH  24  25
ATOM     25  C   UNL     1      -9.361  -6.313  -3.663  0.00  0.00    +0.114 C 
BRANCH  25  26
ATOM     26  C   UNL     1      -9.560  -7.720  -3.163  0.00  0.00    -0.019 A 
ATOM     27  C   UNL     1      -8.555  -8.657  -3.313  0.00  0.00    +0.006 A 
ATOM     28  C   UNL     1      -8.737  -9.948  -2.855  0.00  0.00    +0.000 A 
ATOM     29  C   UNL     1      -9.926 -10.303  -2.245  0.00  0.00    +0.001 A 
ATOM     30  C   UNL     1     -10.933  -9.368  -2.094  0.00  0.00    +0.020 A 
ATOM     31  C   UNL     1     -10.748  -8.074  -2.548  0.00  0.00    +0.045 A 
ATOM     32 CL   UNL     1     -12.009  -6.897  -2.353  0.00  0.00    -0.083 Cl
ENDBRANCH  25  26
ENDBRANCH  24  25
ENDBRANCH   5  24
TORSDOF 8
