REMARK  Name = ZINC20876291
REMARK  12 active torsions:
REMARK  status: ('A' for Active; 'I' for Inactive)
REMARK    1  A    between atoms: C_1  and  O_2
REMARK    2  A    between atoms: O_2  and  C_3
REMARK    3  A    between atoms: C_7  and  C_19
REMARK    4  A    between atoms: C_8  and  O_9
REMARK    5  A    between atoms: O_9  and  C_10
REMARK    6  A    between atoms: C_10  and  C_11
REMARK    7  A    between atoms: C_19  and  N_20
REMARK    8  A    between atoms: N_20  and  C_21
REMARK    9  A    between atoms: C_21  and  C_22
REMARK   10  A    between atoms: C_22  and  S_23
REMARK   11  A    between atoms: S_23  and  C_24
REMARK   12  A    between atoms: N_28  and  C_29
REMARK                            x       y       z     vdW  Elec       q    Type
REMARK                         _______ _______ _______ _____ _____    ______ ____
ROOT
ATOM      1  C   UNL     1       1.174   2.087   0.002  0.00  0.00    +0.162 A 
ATOM      2  C   UNL     1      -0.017   1.378   0.010  0.00  0.00    +0.049 A 
ATOM      3  C   UNL     1       0.002  -0.004   0.002  0.00  0.00    +0.004 A 
ATOM      4  C   UNL     1       1.207  -0.682  -0.013  0.00  0.00    +0.005 A 
ATOM      5  C   UNL     1       2.398   0.019  -0.021  0.00  0.00    -0.019 A 
ATOM      6  C   UNL     1       2.386   1.405  -0.014  0.00  0.00    +0.164 A 
ENDROOT
BRANCH   1   8
ATOM      7  C   UNL     1      -0.124   4.080   0.024  0.00  0.00    +0.277 C 
ATOM      8  O   UNL     1       1.157   3.447   0.009  0.00  0.00    -0.491 OA
ENDBRANCH   1   8
BRANCH   6   9
ATOM      9  O   UNL     1       3.557   2.096  -0.022  0.00  0.00    -0.483 OA
BRANCH   9  10
ATOM     10  C   UNL     1       4.103   2.433  -1.299  0.00  0.00    +0.266 C 
BRANCH  10  11
ATOM     11  C   UNL     1       5.391   3.192  -1.111  0.00  0.00    +0.008 A 
ATOM     12  C   UNL     1       5.859   3.453   0.163  0.00  0.00    +0.011 A 
ATOM     13  C   UNL     1       7.041   4.148   0.337  0.00  0.00    +0.039 A 
ATOM     14  C   UNL     1       7.758   4.582  -0.765  0.00  0.00    +0.125 A 
ATOM     15  C   UNL     1       7.289   4.321  -2.041  0.00  0.00    +0.058 A 
ATOM     16  C   UNL     1       6.108   3.621  -2.213  0.00  0.00    +0.050 A 
ATOM     17 CL   UNL     1       5.524   3.285  -3.813  0.00  0.00    -0.083 Cl
ATOM     18  F   UNL     1       8.913   5.262  -0.596  0.00  0.00    -0.205 F 
ENDBRANCH  10  11
ENDBRANCH   9  10
ENDBRANCH   6   9
BRANCH   5  19
ATOM     19  C   UNL     1       3.709  -0.723  -0.038  0.00  0.00    -0.043 C 
BRANCH  19  20
ATOM     20  N   UNL     1       4.267  -0.762   1.321  0.00  0.00    +0.382 N 
ATOM     21  H   UNL     1       4.432   0.265   1.679  0.00  0.00    -0.085 HD
ATOM     22  H   UNL     1       3.563  -1.276   1.992  0.00  0.00    -0.085 HD
BRANCH  20  23
ATOM     23  C   UNL     1       5.549  -1.480   1.343  0.00  0.00    -0.071 C 
BRANCH  23  24
ATOM     24  C   UNL     1       6.098  -1.499   2.771  0.00  0.00    +0.058 C 
BRANCH  24  25
ATOM     25  S   UNL     1       7.677  -2.383   2.799  0.00  0.00    -0.086 S 
BRANCH  25  26
ATOM     26  C   UNL     1       8.068  -2.256   4.512  0.00  0.00    +0.214 A 
ATOM     27  N   UNL     1       7.346  -1.662   5.438  0.00  0.00    -0.101 NA
ATOM     28  N   UNL     1       7.920  -1.753   6.583  0.00  0.00    -0.022 NA
ATOM     29  N   UNL     1       9.030  -2.400   6.480  0.00  0.00    -0.038 NA
ATOM     30  N   UNL     1       9.169  -2.758   5.128  0.00  0.00    -0.187 N 
BRANCH  30  31
ATOM     31  C   UNL     1      10.219  -3.477   4.540  0.00  0.00    +0.070 A 
ATOM     32  C   UNL     1       9.963  -4.356   3.496  0.00  0.00    +0.028 A 
ATOM     33  C   UNL     1      11.001  -5.059   2.916  0.00  0.00    +0.002 A 
ATOM     34  C   UNL     1      12.293  -4.897   3.382  0.00  0.00    +0.000 A 
ATOM     35  C   UNL     1      12.550  -4.026   4.425  0.00  0.00    +0.002 A 
ATOM     36  C   UNL     1      11.518  -3.317   5.006  0.00  0.00    +0.028 A 
ENDBRANCH  30  31
ENDBRANCH  25  26
ENDBRANCH  24  25
ENDBRANCH  23  24
ENDBRANCH  20  23
ENDBRANCH  19  20
ENDBRANCH   5  19
TORSDOF 11
