REMARK  Name = ZINC16478268
REMARK  5 active torsions:
REMARK  status: ('A' for Active; 'I' for Inactive)
REMARK    1  A    between atoms: C_4  and  C_7
REMARK    2  A    between atoms: N_13  and  C_20
REMARK    3  A    between atoms: C_15  and  C_16
REMARK    4  A    between atoms: C_27  and  N_31
REMARK    5  A    between atoms: C_28  and  C_29
REMARK                            x       y       z     vdW  Elec       q    Type
REMARK                         _______ _______ _______ _____ _____    ______ ____
ROOT
ATOM      1  C   UNL     1       1.302   2.178   0.001  0.00  0.00    +0.079 C 
ATOM      2  C   UNL     1       0.985   3.595   0.445  0.00  0.00    +0.118 C 
ATOM      3  C   UNL     1      -0.174   4.072  -0.494  0.00  0.00    +0.294 C 
ATOM      4  N   UNL     1      -0.019   5.518  -0.274  0.00  0.00    -0.185 N 
ATOM      5  N   UNL     1       1.386   5.711  -0.219  0.00  0.00    -0.176 NA
ATOM      6  C   UNL     1       2.015   4.650   0.172  0.00  0.00    +0.148 C 
ATOM      7  O   UNL     1      -1.336   3.422  -0.018  0.00  0.00    -0.455 OA
ATOM      8  C   UNL     1      -1.213   2.066   0.019  0.00  0.00    +0.194 C 
ATOM      9  C   UNL     1      -0.017   1.428   0.010  0.00  0.00    +0.094 C 
ENDROOT
BRANCH   1  13
ATOM     10  C   UNL     1       4.045   0.360   2.725  0.00  0.00    +0.000 A 
ATOM     11  C   UNL     1       4.359   0.447   1.382  0.00  0.00    +0.000 A 
ATOM     12  C   UNL     1       3.472   1.035   0.501  0.00  0.00    +0.004 A 
ATOM     13  C   UNL     1       2.269   1.537   0.962  0.00  0.00    -0.038 A 
ATOM     14  C   UNL     1       1.957   1.455   2.306  0.00  0.00    +0.004 A 
ATOM     15  C   UNL     1       2.842   0.862   3.187  0.00  0.00    +0.000 A 
ENDBRANCH   1  13
BRANCH   4  16
ATOM     16  C   UNL     1      -1.027   6.474  -0.138  0.00  0.00    +0.055 A 
ATOM     17  C   UNL     1      -2.361   6.097  -0.227  0.00  0.00    +0.025 A 
ATOM     18  C   UNL     1      -3.356   7.044  -0.086  0.00  0.00    +0.002 A 
ATOM     19  C   UNL     1      -3.025   8.370   0.130  0.00  0.00    +0.000 A 
ATOM     20  C   UNL     1      -1.698   8.750   0.213  0.00  0.00    +0.002 A 
ATOM     21  C   UNL     1      -0.698   7.807   0.080  0.00  0.00    +0.025 A 
ENDBRANCH   4  16
BRANCH   6  22
ATOM     22  C   UNL     1       3.507   4.502   0.324  0.00  0.00    +0.432 C 
ATOM     23  F   UNL     1       4.133   5.704  -0.025  0.00  0.00    -0.165 F 
ATOM     24  F   UNL     1       3.811   4.186   1.653  0.00  0.00    -0.165 F 
ATOM     25  F   UNL     1       3.962   3.479  -0.514  0.00  0.00    -0.165 F 
ENDBRANCH   6  22
BRANCH   8  26
ATOM     26  N   UNL     1      -2.356   1.309   0.074  0.00  0.00    -0.329 N 
ATOM     27  H   UNL     1      -2.296   0.341   0.105  0.00  0.00    +0.145 HD
ATOM     28  H   UNL     1      -3.224   1.741   0.082  0.00  0.00    +0.145 HD
ENDBRANCH   8  26
BRANCH   9  29
ATOM     29  C   UNL     1       0.002  -0.004   0.002  0.00  0.00    +0.100 C 
ATOM     30  N   UNL     1       0.018  -1.140  -0.004  0.00  0.00    -0.191 NA
ENDBRANCH   9  29
TORSDOF 5
