REMARK  Name = ZINC35513867
REMARK  7 active torsions:
REMARK  status: ('A' for Active; 'I' for Inactive)
REMARK    1  A    between atoms: C_1  and  C_2
REMARK    2  A    between atoms: C_2  and  O_3
REMARK    3  A    between atoms: O_3  and  C_4
REMARK    4  A    between atoms: C_4  and  C_6
REMARK    5  A    between atoms: C_7  and  C_35
REMARK    6  A    between atoms: C_12  and  C_28
REMARK    7  A    between atoms: C_31  and  O_34
REMARK                            x       y       z     vdW  Elec       q    Type
REMARK                         _______ _______ _______ _____ _____    ______ ____
ROOT
ATOM      1  C   UNL     1       1.448  -2.344  -2.514  0.00  0.00    +0.120 A 
ATOM      2  C   UNL     1       1.663  -3.666  -2.882  0.00  0.00    +0.062 A 
ATOM      3  N   UNL     1       2.302  -3.858  -4.008  0.00  0.00    -0.229 NA
ATOM      4  C   UNL     1       2.716  -2.845  -4.748  0.00  0.00    +0.169 A 
ATOM      5  S   UNL     1       2.212  -1.492  -3.885  0.00  0.00    -0.045 S 
ATOM      6  N   UNL     1       3.398  -2.888  -5.950  0.00  0.00    -0.232 N 
ATOM      7  C   UNL     1       3.843  -1.724  -6.734  0.00  0.00    +0.151 C 
ATOM      8  C   UNL     1       4.524  -2.282  -7.940  0.00  0.00    +0.072 A 
ATOM      9  C   UNL     1       5.161  -1.620  -9.083  0.00  0.00    +0.199 A 
ATOM     10  O   UNL     1       5.377  -0.421  -9.124  0.00  0.00    -0.287 OA
ATOM     11  C   UNL     1       5.517  -2.549 -10.185  0.00  0.00    +0.066 A 
ATOM     12  C   UNL     1       5.944  -2.051 -11.416  0.00  0.00    +0.035 A 
ATOM     13  C   UNL     1       6.265  -2.928 -12.430  0.00  0.00    +0.042 A 
ATOM     14  C   UNL     1       6.162  -4.298 -12.224  0.00  0.00    +0.023 A 
ATOM     15  C   UNL     1       5.742  -4.799 -11.013  0.00  0.00    +0.048 A 
ATOM     16  C   UNL     1       5.415  -3.933  -9.970  0.00  0.00    +0.140 A 
ATOM     17  O   UNL     1       5.015  -4.452  -8.787  0.00  0.00    -0.450 OA
ATOM     18  C   UNL     1       4.478  -3.644  -7.851  0.00  0.00    +0.199 A 
ATOM     19  C   UNL     1       3.777  -4.003  -6.607  0.00  0.00    +0.289 C 
ATOM     20  O   UNL     1       3.569  -5.139  -6.228  0.00  0.00    -0.266 OA
ATOM     21 CL   UNL     1       6.799  -2.320 -13.966  0.00  0.00    -0.084 Cl
ATOM     22  C   UNL     1       1.187  -4.815  -2.032  0.00  0.00    +0.067 C 
ENDROOT
BRANCH   7  23
ATOM     23  C   UNL     1       4.808  -0.893  -5.928  0.00  0.00    -0.022 A 
ATOM     24  C   UNL     1       5.742  -1.511  -5.117  0.00  0.00    +0.009 A 
ATOM     25  C   UNL     1       6.627  -0.751  -4.377  0.00  0.00    +0.046 A 
ATOM     26  C   UNL     1       6.578   0.633  -4.448  0.00  0.00    +0.117 A 
ATOM     27  C   UNL     1       5.640   1.252  -5.262  0.00  0.00    +0.046 A 
ATOM     28  C   UNL     1       4.761   0.487  -6.004  0.00  0.00    +0.009 A 
BRANCH  26  29
ATOM     29  O   UNL     1       7.447   1.383  -3.720  0.00  0.00    -0.507 OA
ATOM     30  H   UNL     1       8.273   1.586  -4.181  0.00  0.00    +0.292 HD
ENDBRANCH  26  29
ENDBRANCH   7  23
BRANCH   1  31
ATOM     31  C   UNL     1       0.776  -1.800  -1.335  0.00  0.00    +0.348 C 
ATOM     32  O   UNL     1       0.312  -2.553  -0.499  0.00  0.00    -0.244 OA
BRANCH  31  33
ATOM     33  O   UNL     1       0.671  -0.465  -1.174  0.00  0.00    -0.461 OA
BRANCH  33  35
ATOM     34  C   UNL     1      -0.019   1.526   0.010  0.00  0.00    +0.048 C 
ATOM     35  C   UNL     1       0.002  -0.004   0.002  0.00  0.00    +0.229 C 
ENDBRANCH  33  35
ENDBRANCH  31  33
ENDBRANCH   1  31
TORSDOF 5
