REMARK  Name = ZINC12594058
REMARK  5 active torsions:
REMARK  status: ('A' for Active; 'I' for Inactive)
REMARK    1  A    between atoms: C_1  and  C_2
REMARK    2  A    between atoms: C_4  and  C_11
REMARK    3  A    between atoms: C_9  and  C_10
REMARK    4  A    between atoms: N_13  and  C_14
REMARK    5  A    between atoms: C_20  and  N_56
REMARK                            x       y       z     vdW  Elec       q    Type
REMARK                         _______ _______ _______ _____ _____    ______ ____
ROOT
ATOM      1  C   UNL     1      -5.233   1.656   0.587  0.00  0.00    +0.249 C 
ATOM      2  O   UNL     1      -4.984   2.624   1.280  0.00  0.00    -0.270 OA
ATOM      3  N   UNL     1      -4.238   1.019  -0.062  0.00  0.00    -0.310 N 
ATOM      4  H   UNL     1      -4.424   0.205  -0.555  0.00  0.00    +0.149 HD
ENDROOT
BRANCH   1   8
ATOM      5  C   UNL     1     -10.127   2.182   1.470  0.00  0.00    +0.045 C 
ATOM      6  C   UNL     1      -8.972   1.419   0.873  0.00  0.00    -0.031 A 
ATOM      7  C   UNL     1      -7.670   1.899   1.021  0.00  0.00    +0.023 A 
ATOM      8  C   UNL     1      -6.619   1.180   0.457  0.00  0.00    +0.101 A 
ATOM      9  C   UNL     1      -6.907  -0.021  -0.240  0.00  0.00    +0.261 A 
ATOM     10  O   UNL     1      -6.004  -0.670  -0.739  0.00  0.00    -0.267 OA
ATOM     11  N   UNL     1      -8.181  -0.442  -0.350  0.00  0.00    -0.326 N 
ATOM     12  H   UNL     1      -8.373  -1.264  -0.828  0.00  0.00    +0.169 HD
ATOM     13  C   UNL     1      -9.200   0.264   0.197  0.00  0.00    +0.019 A 
ATOM     14  C   UNL     1     -10.612  -0.241   0.052  0.00  0.00    +0.063 C 
ENDBRANCH   1   8
BRANCH   3  15
ATOM     15  C   UNL     1      -2.876   1.557  -0.023  0.00  0.00    +0.057 C 
ATOM     16  C   UNL     1      -2.166   1.060   1.239  0.00  0.00    +0.018 C 
ATOM     17  C   UNL     1      -0.725   1.578   1.241  0.00  0.00    -0.017 C 
ATOM     18  C   UNL     1      -0.015   1.104  -0.029  0.00  0.00    -0.078 C 
ATOM     19  C   UNL     1      -2.104   1.083  -1.257  0.00  0.00    -0.056 C 
ATOM     20  N   UNL     1      -0.734   1.635  -1.206  0.00  0.00    +0.383 N 
ATOM     21  H   UNL     1      -0.789   2.658  -1.129  0.00  0.00    -0.081 HD
BRANCH  20  22
ATOM     22  C   UNL     1      -0.003   1.286  -2.443  0.00  0.00    -0.069 C 
ATOM     23  C   UNL     1      -0.828   1.776  -3.650  0.00  0.00    -0.015 C 
ATOM     24  C   UNL     1       0.096   1.926  -4.830  0.00  0.00    -0.002 C 
ATOM     25  C   UNL     1       0.119   0.670  -5.721  0.00  0.00    -0.000 C 
ATOM     26  C   UNL     1       0.143  -0.639  -4.909  0.00  0.00    -0.000 C 
ATOM     27  C   UNL     1       1.067  -0.564  -3.724  0.00  0.00    -0.002 C 
ATOM     28  C   UNL     1       0.244  -0.147  -2.487  0.00  0.00    -0.015 C 
ENDBRANCH  20  22
ENDBRANCH   3  15
TORSDOF 3
