REMARK  Name = ZINC16832823
REMARK  10 active torsions:
REMARK  status: ('A' for Active; 'I' for Inactive)
REMARK    1  A    between atoms: C_1  and  C_2
REMARK    2  A    between atoms: C_9  and  O_12
REMARK    3  A    between atoms: O_12  and  C_13
REMARK    4  A    between atoms: C_13  and  C_14
REMARK    5  A    between atoms: C_14  and  O_16
REMARK    6  A    between atoms: O_16  and  C_17
REMARK    7  A    between atoms: C_17  and  C_19
REMARK    8  A    between atoms: C_17  and  C_20
REMARK    9  A    between atoms: N_22  and  C_23
REMARK   10  A    between atoms: C_24  and  C_28
REMARK                            x       y       z     vdW  Elec       q    Type
REMARK                         _______ _______ _______ _____ _____    ______ ____
ROOT
ATOM      1  C   UNL     1      -0.014   1.204   0.009  0.00  0.00    +0.346 C 
ATOM      2  O   UNL     1       0.002  -0.004   0.002  0.00  0.00    -0.247 OA
ENDROOT
BRANCH   1   3
ATOM      3  C   UNL     1      -1.329   1.940   0.019  0.00  0.00    +0.349 C 
BRANCH   3   4
ATOM      4  O   UNL     1      -2.403   0.997   0.019  0.00  0.00    -0.477 OA
BRANCH   4  13
ATOM      5  C   UNL     1      -3.593   1.453   4.846  0.00  0.00    +0.065 C 
ATOM      6  C   UNL     1      -4.319   1.746   3.558  0.00  0.00    +0.039 A 
ATOM      7  C   UNL     1      -5.613   2.260   3.611  0.00  0.00    +0.024 A 
ATOM      8  C   UNL     1      -6.286   2.532   2.454  0.00  0.00    +0.013 A 
ATOM      9  C   UNL     1      -5.636   2.278   1.232  0.00  0.00    +0.022 A 
ATOM     10  C   UNL     1      -6.267   2.533   0.002  0.00  0.00    +0.052 A 
ATOM     11  C   UNL     1      -5.610   2.276  -1.164  0.00  0.00    +0.044 A 
ATOM     12  C   UNL     1      -4.315   1.761  -1.157  0.00  0.00    +0.086 A 
ATOM     13  C   UNL     1      -3.666   1.499   0.028  0.00  0.00    +0.165 A 
ATOM     14  C   UNL     1      -4.322   1.749   1.250  0.00  0.00    +0.116 A 
ATOM     15  N   UNL     1      -3.717   1.511   2.418  0.00  0.00    -0.248 NA
ATOM     16 CL   UNL     1      -3.511   1.447  -2.663  0.00  0.00    -0.080 Cl
ATOM     17 CL   UNL     1      -7.880   3.174  -0.031  0.00  0.00    -0.083 Cl
ENDBRANCH   4  13
ENDBRANCH   3   4
ENDBRANCH   1   3
BRANCH   1  18
ATOM     18  O   UNL     1       1.139   1.891   0.001  0.00  0.00    -0.450 OA
BRANCH  18  19
ATOM     19  C   UNL     1       2.367   1.117  -0.015  0.00  0.00    +0.259 C 
ATOM     20  C   UNL     1       2.785   0.853  -1.462  0.00  0.00    +0.062 C 
BRANCH  19  21
ATOM     21  C   UNL     1       3.455   1.886   0.690  0.00  0.00    +0.258 C 
ATOM     22  O   UNL     1       3.218   2.979   1.159  0.00  0.00    -0.271 OA
ATOM     23  N   UNL     1       4.691   1.359   0.798  0.00  0.00    -0.276 N 
ATOM     24  H   UNL     1       4.880   0.485   0.423  0.00  0.00    +0.155 HD
BRANCH  23  25
ATOM     25  C   UNL     1       5.692   2.067   1.446  0.00  0.00    +0.084 A 
ATOM     26  C   UNL     1       7.013   1.693   1.662  0.00  0.00    +0.065 A 
ATOM     27  C   UNL     1       7.847   2.635   2.370  0.00  0.00    +0.022 A 
ATOM     28  C   UNL     1       7.274   3.785   2.767  0.00  0.00    +0.048 A 
ATOM     29  S   UNL     1       5.597   3.628   2.189  0.00  0.00    -0.081 S 
BRANCH  26  30
ATOM     30  C   UNL     1       7.534   0.406   1.190  0.00  0.00    +0.244 C 
ATOM     31  O   UNL     1       6.805  -0.364   0.594  0.00  0.00    -0.270 OA
ATOM     32  N   UNL     1       8.821   0.077   1.418  0.00  0.00    -0.325 N 
ATOM     33  H   UNL     1       9.402   0.691   1.893  0.00  0.00    +0.145 HD
ATOM     34  H   UNL     1       9.166  -0.774   1.106  0.00  0.00    +0.145 HD
ENDBRANCH  26  30
ENDBRANCH  23  25
ENDBRANCH  19  21
ENDBRANCH  18  19
ENDBRANCH   1  18
TORSDOF 8
