REMARK  Name = ZINC10273051
REMARK  4 active torsions:
REMARK  status: ('A' for Active; 'I' for Inactive)
REMARK    1  A    between atoms: C_3  and  N_8
REMARK    2  A    between atoms: C_9  and  N_25
REMARK    3  A    between atoms: C_10  and  C_13
REMARK    4  A    between atoms: C_15  and  C_18
REMARK                            x       y       z     vdW  Elec       q    Type
REMARK                         _______ _______ _______ _____ _____    ______ ____
ROOT
ATOM      1  N   UNL     1       2.405   1.105  -0.014  0.00  0.00    -0.198 N 
ATOM      2  C   UNL     1       3.544   1.492  -0.654  0.00  0.00    +0.153 A 
ATOM      3  C   UNL     1       4.491   0.514  -0.387  0.00  0.00    +0.191 A 
ATOM      4  N   UNL     1       3.917  -0.425   0.385  0.00  0.00    -0.122 NA
ATOM      5  N   UNL     1       2.693  -0.111   0.622  0.00  0.00    -0.058 NA
ENDROOT
BRANCH   1   8
ATOM      6  C   UNL     1      -0.051   3.845   0.022  0.00  0.00    +0.003 A 
ATOM      7  C   UNL     1       1.157   3.175   0.008  0.00  0.00    +0.028 A 
ATOM      8  C   UNL     1       1.180   1.787   0.000  0.00  0.00    +0.070 A 
ATOM      9  C   UNL     1      -0.013   1.076   0.008  0.00  0.00    +0.048 A 
ATOM     10  C   UNL     1      -1.218   1.751   0.017  0.00  0.00    +0.043 A 
ATOM     11  C   UNL     1      -1.237   3.135   0.030  0.00  0.00    +0.020 A 
ATOM     12 CL   UNL     1      -2.710   0.864   0.020  0.00  0.00    -0.083 Cl
ENDBRANCH   1   8
BRANCH   3  13
ATOM     13  C   UNL     1       5.882   0.505  -0.868  0.00  0.00    +0.282 A 
ATOM     14  N   UNL     1       6.795  -0.422  -0.625  0.00  0.00    -0.186 NA
ATOM     15  C   UNL     1       7.907  -0.008  -1.266  0.00  0.00    +0.202 A 
ATOM     16  N   UNL     1       7.621   1.125  -1.855  0.00  0.00    -0.056 NA
ATOM     17  O   UNL     1       6.467   1.432  -1.643  0.00  0.00    -0.331 OA
BRANCH  15  18
ATOM     18  C   UNL     1       9.214  -0.710  -1.299  0.00  0.00    +0.023 A 
ATOM     19  C   UNL     1       9.378  -1.914  -0.617  0.00  0.00    +0.014 A 
ATOM     20  C   UNL     1      10.594  -2.565  -0.653  0.00  0.00    +0.039 A 
ATOM     21  C   UNL     1      11.654  -2.018  -1.358  0.00  0.00    +0.123 A 
ATOM     22  C   UNL     1      11.497  -0.818  -2.033  0.00  0.00    +0.039 A 
ATOM     23  C   UNL     1      10.283  -0.163  -2.006  0.00  0.00    +0.014 A 
ATOM     24  F   UNL     1      12.845  -2.656  -1.387  0.00  0.00    -0.205 F 
ENDBRANCH  15  18
ENDBRANCH   3  13
BRANCH   2  25
ATOM     25  N   UNL     1       3.721   2.632  -1.416  0.00  0.00    -0.341 N 
ATOM     26  H   UNL     1       2.986   3.253  -1.537  0.00  0.00    +0.144 HD
ATOM     27  H   UNL     1       4.580   2.810  -1.830  0.00  0.00    +0.144 HD
ENDBRANCH   2  25
TORSDOF 4
