REMARK  Name = ZINC39659891
REMARK  3 active torsions:
REMARK  status: ('A' for Active; 'I' for Inactive)
REMARK    1  A    between atoms: C_9  and  C_12
REMARK    2  A    between atoms: C_16  and  C_25
REMARK    3  A    between atoms: N_27  and  C_28
REMARK                            x       y       z     vdW  Elec       q    Type
REMARK                         _______ _______ _______ _____ _____    ______ ____
ROOT
ATOM      1  C   UNL     1       5.032  -2.688   0.034  0.00  0.00    +0.260 C 
ATOM      2  O   UNL     1       5.911  -2.062   0.587  0.00  0.00    -0.271 OA
ATOM      3  N   UNL     1       5.250  -3.960  -0.354  0.00  0.00    -0.297 N 
ATOM      4  C   UNL     1       4.309  -4.874  -1.043  0.00  0.00    +0.121 C 
ATOM      5  C   UNL     1       5.183  -5.634  -2.066  0.00  0.00    +0.100 C 
ATOM      6  C   UNL     1       6.610  -5.558  -1.497  0.00  0.00    -0.004 C 
ATOM      7  C   UNL     1       6.488  -4.759  -0.191  0.00  0.00    +0.115 C 
ATOM      8  C   UNL     1       7.529  -4.829  -2.471  0.00  0.00    -0.010 C 
ATOM      9  C   UNL     1       8.954  -4.816  -1.909  0.00  0.00    -0.082 C 
ATOM     10  N   UNL     1       9.415  -6.195  -1.709  0.00  0.00    +0.379 N 
ATOM     11  C   UNL     1       8.581  -6.861  -0.701  0.00  0.00    -0.082 C 
ATOM     12  C   UNL     1       7.141  -6.960  -1.212  0.00  0.00    -0.010 C 
ATOM     13  H   UNL     1       9.353  -6.699  -2.581  0.00  0.00    -0.086 HD
ATOM     14  H   UNL     1      10.374  -6.186  -1.397  0.00  0.00    -0.086 HD
ENDROOT
BRANCH   1  23
ATOM     15  C   UNL     1       0.115   1.296   0.542  0.00  0.00    +0.004 A 
ATOM     16  C   UNL     1       1.295   2.013   0.465  0.00  0.00    +0.004 A 
ATOM     17  C   UNL     1       2.502   1.352   0.348  0.00  0.00    +0.049 A 
ATOM     18  C   UNL     1       2.534  -0.034   0.306  0.00  0.00    +0.163 A 
ATOM     19  C   UNL     1       1.348  -0.755   0.382  0.00  0.00    +0.162 A 
ATOM     20  C   UNL     1       0.140  -0.085   0.501  0.00  0.00    +0.049 A 
ATOM     21  O   UNL     1       1.356  -2.116   0.335  0.00  0.00    -0.484 OA
ATOM     22  C   UNL     1       2.608  -2.761   0.590  0.00  0.00    +0.283 C 
ATOM     23  C   UNL     1       3.694  -2.042  -0.222  0.00  0.00    +0.296 C 
ATOM     24  O   UNL     1       3.731  -0.672   0.194  0.00  0.00    -0.473 OA
ENDBRANCH   1  23
BRANCH   5  25
ATOM     25  C   UNL     1       4.735  -7.069  -2.175  0.00  0.00    +0.218 C 
ATOM     26  O   UNL     1       4.249  -7.627  -1.214  0.00  0.00    -0.275 OA
ATOM     27  N   UNL     1       4.874  -7.732  -3.340  0.00  0.00    -0.312 N 
ATOM     28  H   UNL     1       5.263  -7.285  -4.109  0.00  0.00    +0.149 HD
BRANCH  27  29
ATOM     29  C   UNL     1       4.438  -9.126  -3.446  0.00  0.00    +0.073 C 
ATOM     30  C   UNL     1       2.943  -9.170  -3.768  0.00  0.00    +0.022 C 
ATOM     31  C   UNL     1       2.570 -10.568  -4.267  0.00  0.00    +0.002 C 
ATOM     32  C   UNL     1       2.507 -11.533  -3.081  0.00  0.00    +0.000 C 
ATOM     33  C   UNL     1       3.928 -11.893  -2.641  0.00  0.00    +0.000 C 
ATOM     34  C   UNL     1       4.785 -12.183  -3.874  0.00  0.00    +0.000 C 
ATOM     35  C   UNL     1       5.858 -11.101  -4.016  0.00  0.00    +0.002 C 
ATOM     36  C   UNL     1       5.221  -9.822  -4.561  0.00  0.00    +0.022 C 
ENDBRANCH  27  29
ENDBRANCH   5  25
TORSDOF 3
