REMARK  Name = ZINC45915888
REMARK  11 active torsions:
REMARK  status: ('A' for Active; 'I' for Inactive)
REMARK    1  A    between atoms: C_1  and  C_2
REMARK    2  A    between atoms: C_2  and  C_3
REMARK    3  A    between atoms: C_3  and  C_5
REMARK    4  A    between atoms: C_3  and  C_6
REMARK    5  A    between atoms: C_11  and  N_12
REMARK    6  A    between atoms: C_13  and  C_15
REMARK    7  A    between atoms: C_15  and  C_17
REMARK    8  A    between atoms: C_15  and  O_18
REMARK    9  A    between atoms: O_18  and  C_19
REMARK   10  A    between atoms: C_19  and  C_21
REMARK   11  A    between atoms: C_23  and  N_29
REMARK                            x       y       z     vdW  Elec       q    Type
REMARK                         _______ _______ _______ _____ _____    ______ ____
ROOT
ATOM      1  C   UNL     1      -3.601  -1.481   4.405  0.00  0.00    +0.259 C 
ATOM      2  C   UNL     1      -2.615  -0.444   4.946  0.00  0.00    +0.062 C 
ENDROOT
BRANCH   1   4
ATOM      3  N   UNL     1      -2.480  -1.795   2.223  0.00  0.00    -0.282 N 
ATOM      4  C   UNL     1      -2.912  -2.341   3.376  0.00  0.00    +0.258 C 
ATOM      5  O   UNL     1      -2.748  -3.524   3.587  0.00  0.00    -0.271 OA
ATOM      6  H   UNL     1      -2.560  -0.839   2.078  0.00  0.00    +0.155 HD
BRANCH   3  12
ATOM      7  C   UNL     1      -1.960  -2.215  -0.098  0.00  0.00    -0.023 A 
ATOM      8  C   UNL     1      -1.396  -3.017  -1.072  0.00  0.00    +0.006 A 
ATOM      9  C   UNL     1      -0.793  -4.211  -0.723  0.00  0.00    +0.000 A 
ATOM     10  C   UNL     1      -0.752  -4.607   0.602  0.00  0.00    +0.002 A 
ATOM     11  C   UNL     1      -1.313  -3.810   1.580  0.00  0.00    +0.023 A 
ATOM     12  C   UNL     1      -1.915  -2.607   1.233  0.00  0.00    +0.037 A 
BRANCH   7  13
ATOM     13  C   UNL     1      -2.616  -0.913  -0.480  0.00  0.00    +0.017 C 
ATOM     14  C   UNL     1      -3.693  -1.175  -1.534  0.00  0.00    +0.012 C 
BRANCH  13  16
ATOM     15  C   UNL     1      -2.206   1.403  -1.321  0.00  0.00    +0.004 C 
ATOM     16  C   UNL     1      -1.565   0.040  -1.050  0.00  0.00    +0.004 C 
ENDBRANCH  13  16
ENDBRANCH   7  13
ENDBRANCH   3  12
ENDBRANCH   1   4
BRANCH   1  17
ATOM     17  O   UNL     1      -4.066  -2.302   5.478  0.00  0.00    -0.448 OA
BRANCH  17  18
ATOM     18  C   UNL     1      -5.171  -1.890   6.128  0.00  0.00    +0.360 C 
ATOM     19  O   UNL     1      -5.726  -0.863   5.794  0.00  0.00    -0.243 OA
BRANCH  18  20
ATOM     20  C   UNL     1      -5.710  -2.690   7.250  0.00  0.00    +0.169 A 
ATOM     21  C   UNL     1      -6.856  -2.262   7.914  0.00  0.00    +0.095 A 
ATOM     22  C   UNL     1      -7.352  -3.028   8.970  0.00  0.00    +0.067 A 
ATOM     23  C   UNL     1      -6.674  -4.195   9.316  0.00  0.00    +0.100 A 
ATOM     24  C   UNL     1      -5.539  -4.555   8.606  0.00  0.00    +0.150 A 
ATOM     25  N   UNL     1      -5.099  -3.814   7.611  0.00  0.00    -0.226 NA
ATOM     26 CL   UNL     1      -4.690  -6.008   9.032  0.00  0.00    -0.060 Cl
ATOM     27 CL   UNL     1      -7.245  -5.187  10.621  0.00  0.00    -0.078 Cl
ATOM     28 CL   UNL     1      -7.656  -0.797   7.436  0.00  0.00    -0.079 Cl
BRANCH  22  29
ATOM     29  N   UNL     1      -8.496  -2.635   9.661  0.00  0.00    -0.356 N 
ATOM     30  H   UNL     1      -8.959  -1.820   9.411  0.00  0.00    +0.142 HD
ATOM     31  H   UNL     1      -8.831  -3.176  10.393  0.00  0.00    +0.142 HD
ENDBRANCH  22  29
ENDBRANCH  18  20
ENDBRANCH  17  18
ENDBRANCH   1  17
TORSDOF 8
