REMARK  Name = ZINC22532688
REMARK  2 active torsions:
REMARK  status: ('A' for Active; 'I' for Inactive)
REMARK    1  A    between atoms: C_8  and  N_13
REMARK    2  A    between atoms: N_17  and  C_18
REMARK                            x       y       z     vdW  Elec       q    Type
REMARK                         _______ _______ _______ _____ _____    ______ ____
ROOT
ATOM      1  N   UNL     1       2.358  -5.476  -0.052  0.00  0.00    -0.182 NA
ATOM      2  C   UNL     1       1.205  -6.136  -0.044  0.00  0.00    +0.195 C 
ATOM      3  N   UNL     1      -0.120  -5.790  -0.036  0.00  0.00    -0.284 N 
ATOM      4  C   UNL     1      -0.409  -7.057  -0.690  0.00  0.00    +0.214 C 
ATOM      5  N   UNL     1       0.832  -7.454  -0.048  0.00  0.00    -0.239 N 
ATOM      6  C   UNL     1      -0.433  -7.065  -2.190  0.00  0.00    +0.025 A 
ATOM      7  C   UNL     1       0.417  -6.577  -3.157  0.00  0.00    +0.010 A 
ATOM      8  C   UNL     1       0.112  -6.746  -4.496  0.00  0.00    +0.001 A 
ATOM      9  C   UNL     1      -1.048  -7.404  -4.860  0.00  0.00    +0.002 A 
ATOM     10  C   UNL     1      -1.903  -7.894  -3.895  0.00  0.00    +0.024 A 
ATOM     11  C   UNL     1      -1.603  -7.730  -2.544  0.00  0.00    +0.041 A 
ATOM     12  N   UNL     1      -2.297  -8.132  -1.400  0.00  0.00    -0.282 N 
ATOM     13  C   UNL     1      -1.660  -7.774  -0.268  0.00  0.00    +0.265 C 
ATOM     14  O   UNL     1      -2.024  -7.989   0.869  0.00  0.00    -0.271 OA
ATOM     15  H   UNL     1      -3.139  -8.612  -1.419  0.00  0.00    +0.155 HD
ATOM     16  H   UNL     1      -0.640  -5.031   0.272  0.00  0.00    +0.152 HD
ENDROOT
BRANCH   1  24
ATOM     17  C   UNL     1      -0.017   1.391   0.010  0.00  0.00    +0.001 A 
ATOM     18  C   UNL     1       1.165   2.096   0.002  0.00  0.00    +0.002 A 
ATOM     19  C   UNL     1       2.387   1.430  -0.013  0.00  0.00    +0.028 A 
ATOM     20  C   UNL     1       2.424   0.040  -0.021  0.00  0.00    +0.076 A 
ATOM     21  N   UNL     1       3.471  -0.842  -0.036  0.00  0.00    -0.227 NA
ATOM     22  C   UNL     1       3.086  -2.089  -0.039  0.00  0.00    +0.161 C 
ATOM     23  N   UNL     1       3.458  -3.388  -0.050  0.00  0.00    -0.307 N 
ATOM     24  C   UNL     1       2.362  -4.138  -0.044  0.00  0.00    +0.233 C 
ATOM     25  N   UNL     1       1.239  -3.356  -0.029  0.00  0.00    -0.208 NA
ATOM     26  C   UNL     1       1.591  -2.107  -0.025  0.00  0.00    +0.119 C 
ATOM     27  C   UNL     1       1.207  -0.675  -0.014  0.00  0.00    +0.029 A 
ATOM     28  C   UNL     1       0.002  -0.004   0.002  0.00  0.00    +0.012 A 
ATOM     29  H   UNL     1       4.371  -3.716  -0.061  0.00  0.00    +0.170 HD
ENDBRANCH   1  24
BRANCH   5  30
ATOM     30  C   UNL     1       1.399  -8.658   0.377  0.00  0.00    +0.040 A 
ATOM     31  C   UNL     1       0.711  -9.852   0.201  0.00  0.00    +0.024 A 
ATOM     32  C   UNL     1       1.273 -11.041   0.622  0.00  0.00    +0.003 A 
ATOM     33  C   UNL     1       2.521 -11.044   1.219  0.00  0.00    +0.020 A 
ATOM     34  C   UNL     1       3.210  -9.857   1.396  0.00  0.00    +0.043 A 
ATOM     35  C   UNL     1       2.654  -8.665   0.972  0.00  0.00    +0.043 A 
ATOM     36 CL   UNL     1       4.776  -9.866   2.146  0.00  0.00    -0.083 Cl
ENDBRANCH   5  30
TORSDOF 2
