REMARK  Name = ZINC14241022
REMARK  7 active torsions:
REMARK  status: ('A' for Active; 'I' for Inactive)
REMARK    1  A    between atoms: C_1  and  C_2
REMARK    2  A    between atoms: C_2  and  C_27
REMARK    3  A    between atoms: N_5  and  C_9
REMARK    4  A    between atoms: C_9  and  C_10
REMARK    5  A    between atoms: N_12  and  C_21
REMARK    6  A    between atoms: C_14  and  C_15
REMARK    7  A    between atoms: C_30  and  C_33
REMARK                            x       y       z     vdW  Elec       q    Type
REMARK                         _______ _______ _______ _____ _____    ______ ____
ROOT
ATOM      1  C   UNL     1       4.370   6.883   0.505  0.00  0.00    +0.157 C 
ENDROOT
BRANCH   1   6
ATOM      2  C   UNL     1       0.256   8.817   1.695  0.00  0.00    +0.047 C 
ATOM      3  C   UNL     1       1.658   9.291   1.306  0.00  0.00    +0.135 C 
ATOM      4  C   UNL     1       2.700   8.270   1.717  0.00  0.00    +0.251 C 
ATOM      5  O   UNL     1       2.947   7.888   2.841  0.00  0.00    -0.272 OA
ATOM      6  N   UNL     1       3.292   7.873   0.574  0.00  0.00    -0.219 N 
ATOM      7  C   UNL     1       2.778   8.499  -0.491  0.00  0.00    +0.310 C 
ATOM      8  O   UNL     1       3.154   8.311  -1.632  0.00  0.00    -0.252 OA
ATOM      9  N   UNL     1       1.798   9.358  -0.159  0.00  0.00    -0.281 N 
ATOM     10  H   UNL     1       1.284   9.915  -0.765  0.00  0.00    +0.152 HD
BRANCH   3  11
ATOM     11  C   UNL     1       1.955  10.631   1.929  0.00  0.00    -0.015 A 
ATOM     12  C   UNL     1       2.592  10.694   3.155  0.00  0.00    +0.007 A 
ATOM     13  C   UNL     1       2.871  11.918   3.728  0.00  0.00    +0.019 A 
ATOM     14  C   UNL     1       2.499  13.093   3.073  0.00  0.00    +0.052 A 
ATOM     15  C   UNL     1       1.851  13.022   1.838  0.00  0.00    +0.019 A 
ATOM     16  C   UNL     1       1.583  11.792   1.274  0.00  0.00    +0.007 A 
BRANCH  14  17
ATOM     17  C   UNL     1       2.781  14.367   3.664  0.00  0.00    +0.099 C 
ATOM     18  N   UNL     1       3.005  15.377   4.134  0.00  0.00    -0.191 NA
ENDBRANCH  14  17
ENDBRANCH   3  11
ENDBRANCH   1   6
BRANCH   1  19
ATOM     19  C   UNL     1       3.778   5.504   0.375  0.00  0.00    +0.016 A 
ATOM     20  C   UNL     1       2.468   5.212   0.221  0.00  0.00    +0.120 A 
ATOM     21  N   UNL     1       2.348   3.861   0.141  0.00  0.00    -0.239 N 
ATOM     22  N   UNL     1       3.629   3.305   0.256  0.00  0.00    -0.166 NA
ATOM     23  C   UNL     1       4.492   4.290   0.391  0.00  0.00    +0.098 A 
BRANCH  23  24
ATOM     24  C   UNL     1       5.962   4.145   0.539  0.00  0.00    +0.002 A 
ATOM     25  C   UNL     1       6.821   5.012  -0.133  0.00  0.00    +0.010 A 
ATOM     26  C   UNL     1       8.187   4.877   0.013  0.00  0.00    +0.001 A 
ATOM     27  C   UNL     1       8.703   3.876   0.816  0.00  0.00    +0.000 A 
ATOM     28  C   UNL     1       7.855   3.009   1.481  0.00  0.00    +0.001 A 
ATOM     29  C   UNL     1       6.488   3.139   1.346  0.00  0.00    +0.010 A 
ENDBRANCH  23  24
BRANCH  21  30
ATOM     30  C   UNL     1       1.153   3.149  -0.021  0.00  0.00    +0.065 A 
ATOM     31  C   UNL     1       1.173   1.762  -0.087  0.00  0.00    +0.028 A 
ATOM     32  C   UNL     1      -0.007   1.063  -0.247  0.00  0.00    +0.002 A 
ATOM     33  C   UNL     1      -1.208   1.742  -0.346  0.00  0.00    +0.000 A 
ATOM     34  C   UNL     1      -1.232   3.123  -0.275  0.00  0.00    +0.002 A 
ATOM     35  C   UNL     1      -0.055   3.828  -0.115  0.00  0.00    +0.028 A 
ENDBRANCH  21  30
ENDBRANCH   1  19
TORSDOF 6
