REMARK  Name = ZINC09408909
REMARK  9 active torsions:
REMARK  status: ('A' for Active; 'I' for Inactive)
REMARK    1  A    between atoms: C_1  and  C_2
REMARK    2  A    between atoms: C_2  and  C_3
REMARK    3  A    between atoms: C_2  and  C_4
REMARK    4  A    between atoms: C_2  and  C_5
REMARK    5  A    between atoms: C_8  and  C_11
REMARK    6  A    between atoms: C_14  and  C_29
REMARK    7  A    between atoms: N_21  and  C_22
REMARK    8  A    between atoms: C_22  and  C_23
REMARK    9  A    between atoms: C_34  and  O_35
REMARK                            x       y       z     vdW  Elec       q    Type
REMARK                         _______ _______ _______ _____ _____    ______ ____
ROOT
ATOM      1  C   UNL     1       2.713  -1.848  -4.708  0.00  0.00    +0.141 C 
ATOM      2  C   UNL     1       3.707  -2.927  -4.375  0.00  0.00    +0.035 A 
ATOM      3  C   UNL     1       3.931  -4.201  -3.843  0.00  0.00    +0.102 A 
ATOM      4  N   UNL     1       5.225  -4.442  -3.926  0.00  0.00    -0.173 NA
ATOM      5  N   UNL     1       5.840  -3.446  -4.457  0.00  0.00    -0.272 N 
ATOM      6  H   UNL     1       6.796  -3.402  -4.617  0.00  0.00    +0.189 HD
ATOM      7  C   UNL     1       4.947  -2.458  -4.765  0.00  0.00    +0.126 A 
ATOM      8  C   UNL     1       4.781  -1.117  -5.335  0.00  0.00    +0.266 C 
ATOM      9  O   UNL     1       5.686  -0.431  -5.771  0.00  0.00    -0.268 OA
ATOM     10  N   UNL     1       3.485  -0.752  -5.308  0.00  0.00    -0.283 N 
ENDROOT
BRANCH   1  14
ATOM     11  C   UNL     1       0.762  -0.498  -1.156  0.00  0.00    -0.042 A 
ATOM     12  C   UNL     1       2.112  -0.260  -1.337  0.00  0.00    +0.004 A 
ATOM     13  C   UNL     1       2.743  -0.697  -2.486  0.00  0.00    +0.006 A 
ATOM     14  C   UNL     1       2.025  -1.373  -3.455  0.00  0.00    -0.022 A 
ATOM     15  C   UNL     1       0.676  -1.612  -3.274  0.00  0.00    +0.006 A 
ATOM     16  C   UNL     1       0.045  -1.179  -2.122  0.00  0.00    +0.004 A 
BRANCH  11  18
ATOM     17  C   UNL     1      -0.510  -1.221   0.846  0.00  0.00    +0.015 C 
ATOM     18  C   UNL     1       0.074  -0.021   0.097  0.00  0.00    -0.013 C 
ATOM     19  C   UNL     1      -1.053   0.944  -0.276  0.00  0.00    +0.015 C 
ATOM     20  C   UNL     1       1.085   0.696   0.993  0.00  0.00    +0.015 C 
ENDBRANCH  11  18
ENDBRANCH   1  14
BRANCH   3  21
ATOM     21  C   UNL     1       2.902  -5.114  -3.288  0.00  0.00    +0.044 A 
ATOM     22  C   UNL     1       1.552  -4.786  -3.382  0.00  0.00    +0.014 A 
ATOM     23  C   UNL     1       0.598  -5.639  -2.863  0.00  0.00    +0.001 A 
ATOM     24  C   UNL     1       0.978  -6.819  -2.250  0.00  0.00    +0.004 A 
ATOM     25  C   UNL     1       2.315  -7.154  -2.151  0.00  0.00    +0.046 A 
ATOM     26  C   UNL     1       3.283  -6.310  -2.672  0.00  0.00    +0.126 A 
BRANCH  26  27
ATOM     27  O   UNL     1       4.597  -6.641  -2.582  0.00  0.00    -0.506 OA
ATOM     28  H   UNL     1       5.029  -6.321  -1.778  0.00  0.00    +0.292 HD
ENDBRANCH  26  27
ENDBRANCH   3  21
BRANCH  10  29
ATOM     29  C   UNL     1       2.939   0.518  -5.792  0.00  0.00    +0.140 C 
BRANCH  29  30
ATOM     30  C   UNL     1       2.940   1.540  -4.654  0.00  0.00    +0.136 C 
ATOM     31  C   UNL     1       2.255   2.843  -5.120  0.00  0.00    +0.035 C 
ATOM     32  C   UNL     1       3.143   3.935  -4.463  0.00  0.00    +0.031 C 
ATOM     33  C   UNL     1       4.536   3.260  -4.527  0.00  0.00    +0.160 C 
ATOM     34  O   UNL     1       4.287   1.863  -4.292  0.00  0.00    -0.375 OA
ENDBRANCH  29  30
ENDBRANCH  10  29
TORSDOF 6
