REMARK  Name = ZINC12525587
REMARK  8 active torsions:
REMARK  status: ('A' for Active; 'I' for Inactive)
REMARK    1  A    between atoms: C_1  and  C_2
REMARK    2  A    between atoms: C_3  and  C_8
REMARK    3  A    between atoms: C_4  and  C_7
REMARK    4  A    between atoms: C_8  and  O_9
REMARK    5  A    between atoms: O_9  and  C_10
REMARK    6  A    between atoms: C_13  and  C_18
REMARK    7  A    between atoms: C_15  and  O_16
REMARK    8  A    between atoms: O_16  and  C_17
REMARK                            x       y       z     vdW  Elec       q    Type
REMARK                         _______ _______ _______ _____ _____    ______ ____
ROOT
ATOM      1  C   UNL     1       2.022   1.597  -8.335  0.00  0.00    +0.209 C 
ATOM      2  N   UNL     1       1.020   0.956  -9.207  0.00  0.00    -0.294 N 
ATOM      3  C   UNL     1      -0.260   1.490  -9.225  0.00  0.00    +0.159 C 
ATOM      4  N   UNL     1      -0.356   2.862  -9.458  0.00  0.00    -0.259 N 
ATOM      5  C   UNL     1       0.681   3.626  -8.930  0.00  0.00    +0.205 A 
ATOM      6  N   UNL     1       1.815   3.048  -8.403  0.00  0.00    -0.288 N 
ATOM      7  C   UNL     1       2.631   4.061  -7.989  0.00  0.00    +0.072 A 
ATOM      8  C   UNL     1       3.888   4.080  -7.395  0.00  0.00    +0.028 A 
ATOM      9  C   UNL     1       4.429   5.322  -7.102  0.00  0.00    +0.002 A 
ATOM     10  C   UNL     1       3.758   6.499  -7.383  0.00  0.00    +0.002 A 
ATOM     11  C   UNL     1       2.507   6.508  -7.973  0.00  0.00    +0.030 A 
ATOM     12  C   UNL     1       1.941   5.265  -8.279  0.00  0.00    +0.091 A 
ATOM     13  N   UNL     1       0.763   4.926  -8.847  0.00  0.00    -0.214 NA
ATOM     14  N   UNL     1      -1.316   0.750  -9.036  0.00  0.00    -0.375 N 
ATOM     15  H   UNL     1       1.249   0.185  -9.749  0.00  0.00    +0.151 HD
ATOM     16  H   UNL     1      -1.218  -0.202  -8.877  0.00  0.00    +0.158 HD
ATOM     17  H   UNL     1      -1.092   3.256  -9.953  0.00  0.00    +0.158 HD
ATOM     18  H   UNL     1      -2.199   1.151  -9.055  0.00  0.00    +0.158 HD
ENDROOT
BRANCH   1  22
ATOM     19  C   UNL     1       1.504   0.249  -4.309  0.00  0.00    +0.162 A 
ATOM     20  C   UNL     1       0.399   0.507  -5.104  0.00  0.00    +0.050 A 
ATOM     21  C   UNL     1       0.569   0.942  -6.405  0.00  0.00    +0.011 A 
ATOM     22  C   UNL     1       1.841   1.122  -6.916  0.00  0.00    -0.003 A 
ATOM     23  C   UNL     1       2.948   0.867  -6.128  0.00  0.00    +0.056 A 
ATOM     24  C   UNL     1       2.784   0.436  -4.821  0.00  0.00    +0.162 A 
BRANCH  24  25
ATOM     25  O   UNL     1       3.872   0.190  -4.043  0.00  0.00    -0.491 OA
ATOM     26  C   UNL     1       5.155   0.403  -4.635  0.00  0.00    +0.277 C 
ENDBRANCH  24  25
BRANCH  19  27
ATOM     27  O   UNL     1       1.338  -0.179  -3.029  0.00  0.00    -0.484 OA
BRANCH  27  28
ATOM     28  C   UNL     1      -0.005  -0.348  -2.571  0.00  0.00    +0.270 C 
BRANCH  28  31
ATOM     29  C   UNL     1      -0.018   1.503   0.010  0.00  0.00    +0.069 C 
ATOM     30  C   UNL     1       0.002  -0.004   0.002  0.00  0.00    +0.087 A 
ATOM     31  C   UNL     1       0.008  -0.824  -1.141  0.00  0.00    +0.054 A 
ATOM     32  C   UNL     1       0.027  -2.108  -0.735  0.00  0.00    +0.141 A 
ATOM     33  O   UNL     1       0.034  -2.119   0.606  0.00  0.00    -0.359 OA
ATOM     34  N   UNL     1       0.023  -0.775   1.052  0.00  0.00    -0.083 NA
ATOM     35  C   UNL     1       0.039  -3.320  -1.631  0.00  0.00    +0.089 C 
ENDBRANCH  28  31
ENDBRANCH  27  28
ENDBRANCH  19  27
ENDBRANCH   1  22
TORSDOF 5
