REMARK  Name = ZINC45485707
REMARK  10 active torsions:
REMARK  status: ('A' for Active; 'I' for Inactive)
REMARK    1  A    between atoms: C_1  and  C_2
REMARK    2  A    between atoms: C_2  and  S_3
REMARK    3  A    between atoms: S_3  and  N_6
REMARK    4  A    between atoms: C_15  and  C_17
REMARK    5  A    between atoms: C_17  and  O_19
REMARK    6  A    between atoms: O_19  and  C_20
REMARK    7  A    between atoms: C_20  and  C_22
REMARK    8  A    between atoms: C_20  and  C_23
REMARK    9  A    between atoms: N_25  and  C_26
REMARK   10  A    between atoms: C_27  and  C_31
REMARK                            x       y       z     vdW  Elec       q    Type
REMARK                         _______ _______ _______ _____ _____    ______ ____
ROOT
ATOM      1  C   UNL     1      -1.538  -1.787   2.610  0.00  0.00    +0.327 C 
ATOM      2  O   UNL     1      -0.814  -0.821   2.571  0.00  0.00    -0.249 OA
ENDROOT
BRANCH   1  12
ATOM      3  N   UNL     1      -1.581  -2.273   0.222  0.00  0.00    -0.163 NA
ATOM      4  C   UNL     1      -1.571  -3.190  -0.923  0.00  0.00    +0.145 C 
ATOM      5  C   UNL     1      -0.456  -4.192  -0.763  0.00  0.00    -0.028 A 
ATOM      6  C   UNL     1      -0.135  -4.985  -1.856  0.00  0.00    +0.005 A 
ATOM      7  C   UNL     1       0.869  -5.927  -1.768  0.00  0.00    +0.000 A 
ATOM      8  C   UNL     1       1.560  -6.083  -0.580  0.00  0.00    +0.000 A 
ATOM      9  C   UNL     1       1.245  -5.293   0.506  0.00  0.00    +0.004 A 
ATOM     10  C   UNL     1       0.238  -4.339   0.417  0.00  0.00    -0.041 A 
ATOM     11  C   UNL     1      -0.032  -3.495   1.635  0.00  0.00    +0.067 C 
ATOM     12  C   UNL     1      -1.415  -2.862   1.561  0.00  0.00    +0.192 C 
BRANCH   3  13
ATOM     13  S   UNL     1      -1.762  -0.640   0.016  0.00  0.00    +0.033 S 
ATOM     14  O   UNL     1      -2.511  -0.214   1.146  0.00  0.00    -0.158 OA
ATOM     15  O   UNL     1      -2.287  -0.496  -1.297  0.00  0.00    -0.158 OA
BRANCH  13  17
ATOM     16  C   UNL     1      -0.138   1.559   0.107  0.00  0.00    +0.029 C 
ATOM     17  C   UNL     1      -0.079   0.030   0.093  0.00  0.00    +0.182 C 
ENDBRANCH  13  17
ENDBRANCH   3  13
ENDBRANCH   1  12
BRANCH   1  18
ATOM     18  O   UNL     1      -2.450  -1.903   3.587  0.00  0.00    -0.451 OA
BRANCH  18  19
ATOM     19  C   UNL     1      -2.510  -0.847   4.547  0.00  0.00    +0.259 C 
ATOM     20  C   UNL     1      -1.566  -1.160   5.710  0.00  0.00    +0.062 C 
BRANCH  19  21
ATOM     21  C   UNL     1      -3.920  -0.719   5.065  0.00  0.00    +0.258 C 
ATOM     22  O   UNL     1      -4.767  -1.516   4.722  0.00  0.00    -0.271 OA
ATOM     23  N   UNL     1      -4.239   0.282   5.910  0.00  0.00    -0.276 N 
ATOM     24  H   UNL     1      -3.561   0.919   6.185  0.00  0.00    +0.155 HD
BRANCH  23  25
ATOM     25  C   UNL     1      -5.536   0.400   6.387  0.00  0.00    +0.084 A 
ATOM     26  C   UNL     1      -6.043   1.359   7.250  0.00  0.00    +0.065 A 
ATOM     27  C   UNL     1      -7.443   1.249   7.589  0.00  0.00    +0.022 A 
ATOM     28  C   UNL     1      -8.104   0.221   7.025  0.00  0.00    +0.048 A 
ATOM     29  S   UNL     1      -6.853  -0.582   6.045  0.00  0.00    -0.081 S 
BRANCH  26  30
ATOM     30  C   UNL     1      -5.201   2.431   7.792  0.00  0.00    +0.244 C 
ATOM     31  O   UNL     1      -4.025   2.494   7.487  0.00  0.00    -0.270 OA
ATOM     32  N   UNL     1      -5.730   3.345   8.629  0.00  0.00    -0.325 N 
ATOM     33  H   UNL     1      -6.668   3.295   8.873  0.00  0.00    +0.145 HD
ATOM     34  H   UNL     1      -5.173   4.054   8.987  0.00  0.00    +0.145 HD
ENDBRANCH  26  30
ENDBRANCH  23  25
ENDBRANCH  19  21
ENDBRANCH  18  19
ENDBRANCH   1  18
TORSDOF 8
