REMARK  Name = ZINC45549014
REMARK  6 active torsions:
REMARK  status: ('A' for Active; 'I' for Inactive)
REMARK    1  A    between atoms: C_1  and  C_2
REMARK    2  A    between atoms: C_2  and  C_4
REMARK    3  A    between atoms: C_2  and  N_21
REMARK    4  A    between atoms: N_6  and  N_7
REMARK    5  A    between atoms: C_8  and  C_10
REMARK    6  A    between atoms: C_22  and  C_24
REMARK                            x       y       z     vdW  Elec       q    Type
REMARK                         _______ _______ _______ _____ _____    ______ ____
ROOT
ATOM      1  C   UNL     1      -1.412  -0.526   0.013  0.00  0.00    +0.249 C 
ATOM      2  O   UNL     1      -1.808  -1.223  -0.897  0.00  0.00    -0.272 OA
ATOM      3  N   UNL     1      -2.236  -0.217   1.033  0.00  0.00    -0.233 N 
ATOM      4  H   UNL     1      -1.920   0.341   1.761  0.00  0.00    +0.173 HD
ENDROOT
BRANCH   3   5
ATOM      5  N   UNL     1      -3.551  -0.702   1.043  0.00  0.00    -0.230 N 
ATOM      6  C   UNL     1      -4.375  -0.393   2.063  0.00  0.00    +0.267 C 
ATOM      7  O   UNL     1      -3.978   0.307   2.976  0.00  0.00    -0.268 OA
ATOM      8  H   UNL     1      -3.867  -1.260   0.316  0.00  0.00    +0.173 HD
BRANCH   6   9
ATOM      9  C   UNL     1      -5.750  -0.900   2.074  0.00  0.00    +0.076 A 
ATOM     10  C   UNL     1      -6.745  -0.702   3.006  0.00  0.00    +0.024 A 
ATOM     11  C   UNL     1      -7.970  -1.335   2.772  0.00  0.00    -0.036 A 
ATOM     12  C   UNL     1      -8.053  -2.115   1.678  0.00  0.00    -0.006 A 
ATOM     13  S   UNL     1      -6.580  -1.930   0.882  0.00  0.00    -0.088 S 
ATOM     14  C   UNL     1      -9.116  -3.065   1.183  0.00  0.00    +0.043 C 
ATOM     15  C   UNL     1     -10.310  -3.149   2.135  0.00  0.00    +0.005 C 
ATOM     16  C   UNL     1     -11.239  -1.961   1.946  0.00  0.00    +0.000 C 
ATOM     17  C   UNL     1     -10.497  -0.668   1.678  0.00  0.00    +0.000 C 
ATOM     18  C   UNL     1     -10.097  -0.094   3.041  0.00  0.00    +0.005 C 
ATOM     19  C   UNL     1      -9.128  -1.061   3.721  0.00  0.00    +0.036 C 
ENDBRANCH   6   9
ENDBRANCH   3   5
BRANCH   1  21
ATOM     20  C   UNL     1      -0.019   1.526   0.010  0.00  0.00    +0.038 C 
ATOM     21  C   UNL     1       0.002  -0.004   0.002  0.00  0.00    +0.158 C 
BRANCH  21  22
ATOM     22  N   UNL     1       0.688  -0.476  -1.203  0.00  0.00    -0.300 N 
ATOM     23  C   UNL     1       2.031  -0.587  -1.215  0.00  0.00    +0.251 C 
ATOM     24  O   UNL     1       2.674  -0.294  -0.224  0.00  0.00    -0.270 OA
ATOM     25  H   UNL     1       0.175  -0.710  -1.993  0.00  0.00    +0.150 HD
BRANCH  23  26
ATOM     26  C   UNL     1       2.717  -1.060  -2.421  0.00  0.00    +0.074 A 
ATOM     27  C   UNL     1       4.074  -1.248  -2.638  0.00  0.00    +0.021 A 
ATOM     28  C   UNL     1       4.421  -1.707  -3.886  0.00  0.00    +0.008 A 
ATOM     29  C   UNL     1       3.444  -1.939  -4.798  0.00  0.00    +0.046 A 
ATOM     30  S   UNL     1       2.024  -1.549  -3.989  0.00  0.00    -0.092 S 
ENDBRANCH  23  26
ENDBRANCH  21  22
ENDBRANCH   1  21
TORSDOF 5
