REMARK  Name = ZINC64869393
REMARK  10 active torsions:
REMARK  status: ('A' for Active; 'I' for Inactive)
REMARK    1  A    between atoms: C_1  and  C_2
REMARK    2  A    between atoms: C_2  and  O_3
REMARK    3  A    between atoms: O_3  and  C_4
REMARK    4  A    between atoms: C_4  and  C_6
REMARK    5  A    between atoms: C_6  and  C_7
REMARK    6  A    between atoms: N_11  and  C_21
REMARK    7  A    between atoms: C_14  and  C_20
REMARK    8  A    between atoms: C_15  and  C_19
REMARK    9  A    between atoms: C_21  and  C_22
REMARK   10  A    between atoms: N_27  and  C_30
REMARK                            x       y       z     vdW  Elec       q    Type
REMARK                         _______ _______ _______ _____ _____    ______ ____
ROOT
ATOM      1  C   UNL     1      -2.638  -3.930  -0.003  0.00  0.00    +0.024 C 
ATOM      2  C   UNL     1      -2.509  -4.523   1.200  0.00  0.00    +0.087 C 
ATOM      3  C   UNL     1      -2.518  -5.900   1.526  0.00  0.00    +0.246 C 
ATOM      4  O   UNL     1      -2.381  -6.161   2.707  0.00  0.00    -0.270 OA
ATOM      5  N   UNL     1      -2.660  -6.962   0.707  0.00  0.00    -0.257 N 
ATOM      6  C   UNL     1      -2.834  -6.964  -0.687  0.00  0.00    +0.058 A 
ATOM      7  C   UNL     1      -2.944  -8.249  -1.190  0.00  0.00    +0.029 A 
ATOM      8  C   UNL     1      -3.121  -8.445  -2.549  0.00  0.00    -0.046 A 
ATOM      9  C   UNL     1      -3.188  -7.363  -3.405  0.00  0.00    -0.046 A 
ATOM     10  C   UNL     1      -3.079  -6.075  -2.909  0.00  0.00    +0.028 A 
ATOM     11  C   UNL     1      -2.902  -5.872  -1.551  0.00  0.00    +0.053 A 
ATOM     12  N   UNL     1      -2.818  -4.506  -1.233  0.00  0.00    -0.316 N 
ATOM     13  C   UNL     1      -3.380  -7.584  -4.883  0.00  0.00    +0.044 C 
ATOM     14  C   UNL     1      -3.240  -9.844  -3.097  0.00  0.00    +0.044 C 
ATOM     15  H   UNL     1      -2.892  -3.893  -1.981  0.00  0.00    +0.152 HD
ENDROOT
BRANCH   1  16
ATOM     16  C   UNL     1      -2.581  -2.424   0.007  0.00  0.00    +0.171 C 
BRANCH  16  17
ATOM     17  C   UNL     1      -1.176  -1.972  -0.294  0.00  0.00    +0.313 C 
ATOM     18  O   UNL     1      -0.308  -2.789  -0.496  0.00  0.00    -0.250 OA
BRANCH  17  19
ATOM     19  O   UNL     1      -0.887  -0.662  -0.338  0.00  0.00    -0.465 OA
BRANCH  19  21
ATOM     20  C   UNL     1       0.601   1.219  -0.636  0.00  0.00    +0.048 C 
ATOM     21  C   UNL     1       0.466  -0.305  -0.629  0.00  0.00    +0.229 C 
ENDBRANCH  19  21
ENDBRANCH  17  19
ENDBRANCH  16  17
ENDBRANCH   1  16
BRANCH   5  22
ATOM     22  C   UNL     1      -2.627  -8.277   1.352  0.00  0.00    +0.209 C 
BRANCH  22  23
ATOM     23  C   UNL     1      -4.037  -8.757   1.585  0.00  0.00    +0.233 C 
ATOM     24  O   UNL     1      -4.976  -8.068   1.247  0.00  0.00    -0.274 OA
ATOM     25  N   UNL     1      -4.253  -9.952   2.170  0.00  0.00    -0.297 N 
ATOM     26  C   UNL     1      -3.125 -10.794   2.591  0.00  0.00    +0.126 C 
ATOM     27  C   UNL     1      -3.287 -11.121   4.081  0.00  0.00    +0.124 C 
ATOM     28  N   UNL     1      -4.655 -11.604   4.310  0.00  0.00    -0.327 N 
ATOM     29  C   UNL     1      -5.784 -10.762   3.889  0.00  0.00    +0.124 C 
ATOM     30  C   UNL     1      -5.622 -10.432   2.405  0.00  0.00    +0.126 C 
BRANCH  28  31
ATOM     31  C   UNL     1      -4.880 -12.844   4.917  0.00  0.00    +0.030 A 
ATOM     32  C   UNL     1      -6.171 -13.347   5.013  0.00  0.00    +0.026 A 
ATOM     33  C   UNL     1      -6.391 -14.572   5.613  0.00  0.00    +0.040 A 
ATOM     34  C   UNL     1      -5.325 -15.298   6.117  0.00  0.00    +0.124 A 
ATOM     35  C   UNL     1      -4.037 -14.798   6.022  0.00  0.00    +0.040 A 
ATOM     36  C   UNL     1      -3.812 -13.576   5.419  0.00  0.00    +0.026 A 
ATOM     37  F   UNL     1      -5.543 -16.495   6.704  0.00  0.00    -0.205 F 
ENDBRANCH  28  31
ENDBRANCH  22  23
ENDBRANCH   5  22
TORSDOF 7
