REMARK  Name = ZINC20885824
REMARK  10 active torsions:
REMARK  status: ('A' for Active; 'I' for Inactive)
REMARK    1  A    between atoms: C_1  and  C_2
REMARK    2  A    between atoms: C_2  and  O_3
REMARK    3  A    between atoms: O_3  and  C_4
REMARK    4  A    between atoms: C_7  and  C_12
REMARK    5  A    between atoms: C_9  and  O_10
REMARK    6  A    between atoms: O_10  and  C_11
REMARK    7  A    between atoms: C_17  and  C_27
REMARK    8  A    between atoms: C_31  and  O_34
REMARK    9  A    between atoms: C_32  and  O_33
REMARK   10  A    between atoms: O_34  and  C_35
REMARK                            x       y       z     vdW  Elec       q    Type
REMARK                         _______ _______ _______ _____ _____    ______ ____
ROOT
ATOM      1  C   UNL     1      -1.294   2.297  -0.415  0.00  0.00    +0.032 C 
ATOM      2  C   UNL     1      -1.988   1.749   0.831  0.00  0.00    +0.059 C 
ATOM      3  C   UNL     1      -3.343   2.417   1.004  0.00  0.00    +0.017 C 
ATOM      4  C   UNL     1      -4.057   2.788  -0.071  0.00  0.00    +0.037 C 
ATOM      5  C   UNL     1      -5.425   3.429  -0.048  0.00  0.00    +0.140 C 
ATOM      6  N   UNL     1      -5.849   3.878   1.261  0.00  0.00    -0.331 N 
ATOM      7  C   UNL     1      -6.063   2.972   2.297  0.00  0.00    +0.049 A 
ATOM      8  C   UNL     1      -7.333   2.747   2.806  0.00  0.00    +0.025 A 
ATOM      9  C   UNL     1      -7.514   1.784   3.783  0.00  0.00    +0.002 A 
ATOM     10  C   UNL     1      -6.440   1.049   4.250  0.00  0.00    +0.002 A 
ATOM     11  C   UNL     1      -5.167   1.286   3.761  0.00  0.00    +0.025 A 
ATOM     12  C   UNL     1      -4.983   2.262   2.797  0.00  0.00    +0.052 A 
ATOM     13  N   UNL     1      -3.726   2.585   2.295  0.00  0.00    -0.316 N 
ATOM     14  C   UNL     1      -3.543   2.589  -1.374  0.00  0.00    +0.163 C 
ATOM     15  O   UNL     1      -4.222   2.916  -2.328  0.00  0.00    -0.292 OA
ATOM     16  C   UNL     1      -2.191   1.991  -1.621  0.00  0.00    +0.088 C 
ATOM     17  H   UNL     1      -6.008   4.950   1.450  0.00  0.00    +0.147 HD
ATOM     18  H   UNL     1      -3.020   3.004   3.028  0.00  0.00    +0.152 HD
ENDROOT
BRANCH   1  22
ATOM     19  C   UNL     1       2.499   0.388  -0.925  0.00  0.00    +0.162 A 
ATOM     20  C   UNL     1       1.340  -0.369  -0.882  0.00  0.00    +0.050 A 
ATOM     21  C   UNL     1       0.115   0.251  -0.715  0.00  0.00    +0.008 A 
ATOM     22  C   UNL     1       0.044   1.626  -0.591  0.00  0.00    -0.040 A 
ATOM     23  C   UNL     1       1.197   2.387  -0.633  0.00  0.00    +0.053 A 
ATOM     24  C   UNL     1       2.428   1.772  -0.801  0.00  0.00    +0.162 A 
BRANCH  24  25
ATOM     25  O   UNL     1       3.563   2.520  -0.842  0.00  0.00    -0.491 OA
ATOM     26  C   UNL     1       3.413   3.935  -0.708  0.00  0.00    +0.277 C 
ENDBRANCH  24  25
BRANCH  19  27
ATOM     27  O   UNL     1       3.705  -0.220  -1.089  0.00  0.00    -0.489 OA
BRANCH  27  29
ATOM     28  C   UNL     1       5.137  -2.143  -1.387  0.00  0.00    +0.048 C 
ATOM     29  C   UNL     1       3.702  -1.644  -1.211  0.00  0.00    +0.226 C 
ENDBRANCH  27  29
ENDBRANCH  19  27
ENDBRANCH   1  22
BRANCH   5  30
ATOM     30  C   UNL     1      -6.430   2.430  -0.561  0.00  0.00    +0.022 A 
ATOM     31  C   UNL     1      -6.104   1.088  -0.619  0.00  0.00    +0.009 A 
ATOM     32  C   UNL     1      -7.023   0.169  -1.089  0.00  0.00    +0.004 A 
ATOM     33  C   UNL     1      -8.274   0.589  -1.504  0.00  0.00    +0.049 A 
ATOM     34  C   UNL     1      -8.608   1.932  -1.448  0.00  0.00    +0.162 A 
ATOM     35  C   UNL     1      -7.684   2.856  -0.969  0.00  0.00    +0.164 A 
BRANCH  35  36
ATOM     36  O   UNL     1      -8.009   4.175  -0.907  0.00  0.00    -0.503 OA
ATOM     37  H   UNL     1      -9.004   4.512  -1.232  0.00  0.00    +0.292 HD
ENDBRANCH  35  36
BRANCH  34  38
ATOM     38  O   UNL     1      -9.838   2.346  -1.855  0.00  0.00    -0.491 OA
ATOM     39  C   UNL     1     -10.736   1.341  -2.329  0.00  0.00    +0.277 C 
ENDBRANCH  34  38
ENDBRANCH   5  30
TORSDOF 7
