REMARK  Name = ZINC67304269
REMARK  5 active torsions:
REMARK  status: ('A' for Active; 'I' for Inactive)
REMARK    1  A    between atoms: C_1  and  C_2
REMARK    2  A    between atoms: C_2  and  S_3
REMARK    3  A    between atoms: S_3  and  C_4
REMARK    4  A    between atoms: C_9  and  N_10
REMARK    5  A    between atoms: C_11  and  C_13
REMARK                            x       y       z     vdW  Elec       q    Type
REMARK                         _______ _______ _______ _____ _____    ______ ____
ROOT
ATOM      1  N   UNL     1       1.981  -2.551  -3.455  0.00  0.00    -0.284 N 
ATOM      2  C   UNL     1       2.618  -3.319  -4.361  0.00  0.00    +0.220 C 
ATOM      3  O   UNL     1       2.578  -4.527  -4.267  0.00  0.00    -0.275 OA
ATOM      4  H   UNL     1       1.959  -1.587  -3.566  0.00  0.00    +0.155 HD
ENDROOT
BRANCH   2   5
ATOM      5  C   UNL     1       3.380  -2.676  -5.491  0.00  0.00    +0.075 C 
ATOM      6  C   UNL     1       2.425  -1.826  -6.332  0.00  0.00    +0.015 C 
ATOM      7  C   UNL     1       3.202  -1.164  -7.472  0.00  0.00    +0.036 C 
ATOM      8  C   UNL     1       3.851  -2.237  -8.339  0.00  0.00    +0.112 C 
ATOM      9  C   UNL     1       4.788  -3.109  -7.509  0.00  0.00    +0.036 C 
ATOM     10  C   UNL     1       4.004  -3.763  -6.369  0.00  0.00    +0.015 C 
ATOM     11  C   UNL     1       2.795  -3.086  -9.008  0.00  0.00    +0.244 C 
ATOM     12  O   UNL     1       1.959  -3.777  -8.469  0.00  0.00    -0.273 OA
ATOM     13  N   UNL     1       2.978  -2.910 -10.334  0.00  0.00    -0.238 N 
ATOM     14  C   UNL     1       3.995  -2.077 -10.585  0.00  0.00    +0.307 C 
ATOM     15  O   UNL     1       4.352  -1.764 -11.704  0.00  0.00    -0.252 OA
ATOM     16  N   UNL     1       4.578  -1.623  -9.458  0.00  0.00    -0.285 N 
ATOM     17  H   UNL     1       2.441  -3.337 -11.019  0.00  0.00    +0.159 HD
ATOM     18  H   UNL     1       5.329  -1.012  -9.398  0.00  0.00    +0.151 HD
ENDBRANCH   2   5
BRANCH   1  24
ATOM     19  C   UNL     1       1.340  -2.492  -1.119  0.00  0.00    +0.029 A 
ATOM     20  C   UNL     1       0.710  -3.082  -0.033  0.00  0.00    +0.018 A 
ATOM     21  C   UNL     1       0.101  -4.315  -0.172  0.00  0.00    +0.021 A 
ATOM     22  C   UNL     1       0.118  -4.964  -1.394  0.00  0.00    +0.043 A 
ATOM     23  C   UNL     1       0.744  -4.383  -2.482  0.00  0.00    +0.044 A 
ATOM     24  C   UNL     1       1.352  -3.144  -2.352  0.00  0.00    +0.048 A 
ATOM     25 CL   UNL     1      -0.648  -6.513  -1.562  0.00  0.00    -0.083 Cl
BRANCH  19  26
ATOM     26  S   UNL     1       2.116  -0.920  -0.944  0.00  0.00    -0.124 S 
BRANCH  26  28
ATOM     27  C   UNL     1       2.475   0.875   1.089  0.00  0.00    +0.015 C 
ATOM     28  C   UNL     1       1.843  -0.487   0.797  0.00  0.00    +0.071 C 
ENDBRANCH  26  28
ENDBRANCH  19  26
ENDBRANCH   1  24
TORSDOF 4
