REMARK  Name = ZINC23706832
REMARK  5 active torsions:
REMARK  status: ('A' for Active; 'I' for Inactive)
REMARK    1  A    between atoms: C_1  and  C_2
REMARK    2  A    between atoms: N_11  and  C_12
REMARK    3  A    between atoms: C_12  and  C_13
REMARK    4  A    between atoms: N_15  and  C_16
REMARK    5  A    between atoms: C_16  and  C_21
REMARK                            x       y       z     vdW  Elec       q    Type
REMARK                         _______ _______ _______ _____ _____    ______ ____
ROOT
ATOM      1  C   UNL     1       0.005  -0.172   2.421  0.00  0.00    +0.181 C 
ENDROOT
BRANCH   1  11
ATOM      2  C   UNL     1      -0.019   1.526   0.010  0.00  0.00    +0.031 C 
ATOM      3  C   UNL     1       0.002  -0.004   0.002  0.00  0.00    +0.101 C 
ATOM      4  C   UNL     1       0.722  -0.498  -1.229  0.00  0.00    +0.036 A 
ATOM      5  C   UNL     1       0.593  -0.069  -2.493  0.00  0.00    +0.024 A 
ATOM      6  C   UNL     1       1.475  -0.832  -3.288  0.00  0.00    +0.019 A 
ATOM      7  C   UNL     1       2.109  -1.700  -2.471  0.00  0.00    +0.086 A 
ATOM      8  N   UNL     1       1.652  -1.504  -1.208  0.00  0.00    -0.348 N 
ATOM      9  C   UNL     1       2.043  -2.215   0.015  0.00  0.00    +0.137 C 
ATOM     10  C   UNL     1       0.980  -1.943   1.087  0.00  0.00    +0.107 C 
ATOM     11  N   UNL     1       0.728  -0.499   1.185  0.00  0.00    -0.284 NA
ENDBRANCH   1  11
BRANCH   1  12
ATOM     12  C   UNL     1       0.882  -0.469   3.610  0.00  0.00    +0.228 C 
ATOM     13  O   UNL     1       2.000  -0.909   3.444  0.00  0.00    -0.274 OA
ATOM     14  N   UNL     1       0.425  -0.245   4.858  0.00  0.00    -0.296 N 
ATOM     15  H   UNL     1      -0.469   0.108   4.991  0.00  0.00    +0.150 HD
BRANCH  14  16
ATOM     16  C   UNL     1       1.278  -0.533   6.013  0.00  0.00    +0.121 C 
ATOM     17  C   UNL     1       1.600  -2.041   6.069  0.00  0.00    +0.041 C 
ATOM     18  C   UNL     1       1.594  -2.376   7.581  0.00  0.00    +0.003 C 
ATOM     19  C   UNL     1       0.428  -1.509   8.118  0.00  0.00    +0.003 C 
ATOM     20  C   UNL     1       0.532  -0.195   7.316  0.00  0.00    +0.041 C 
BRANCH  16  21
ATOM     21  C   UNL     1       2.523   0.247   5.928  0.00  0.00    +0.088 C 
ATOM     22  N   UNL     1       3.484   0.849   5.862  0.00  0.00    -0.194 NA
ENDBRANCH  16  21
ENDBRANCH  14  16
ENDBRANCH   1  12
TORSDOF 4
