REMARK  Name = ZINC66751672
REMARK  8 active torsions:
REMARK  status: ('A' for Active; 'I' for Inactive)
REMARK    1  A    between atoms: C_1  and  C_2
REMARK    2  A    between atoms: C_2  and  C_4
REMARK    3  A    between atoms: C_2  and  N_15
REMARK    4  A    between atoms: C_8  and  S_10
REMARK    5  A    between atoms: S_10  and  N_13
REMARK    6  A    between atoms: N_13  and  C_14
REMARK    7  A    between atoms: C_16  and  C_18
REMARK    8  A    between atoms: N_20  and  C_27
REMARK                            x       y       z     vdW  Elec       q    Type
REMARK                         _______ _______ _______ _____ _____    ______ ____
ROOT
ATOM      1  C   UNL     1      -0.019   1.526   0.010  0.00  0.00    +0.033 C 
ATOM      2  C   UNL     1       0.002  -0.004   0.002  0.00  0.00    +0.100 C 
ENDROOT
BRANCH   2   3
ATOM      3  C   UNL     1       0.731  -0.503   1.223  0.00  0.00    -0.026 A 
ATOM      4  C   UNL     1       2.113  -0.514   1.247  0.00  0.00    +0.005 A 
ATOM      5  C   UNL     1       2.782  -0.972   2.366  0.00  0.00    +0.002 A 
ATOM      6  C   UNL     1       2.068  -1.419   3.463  0.00  0.00    +0.028 A 
ATOM      7  C   UNL     1       0.686  -1.407   3.439  0.00  0.00    +0.106 A 
ATOM      8  C   UNL     1       0.018  -0.945   2.321  0.00  0.00    +0.034 A 
BRANCH   7   9
ATOM      9  S   UNL     1      -0.223  -1.978   4.837  0.00  0.00    +0.058 S 
ATOM     10  O   UNL     1      -1.500  -2.374   4.356  0.00  0.00    -0.153 OA
ATOM     11  O   UNL     1       0.633  -2.864   5.545  0.00  0.00    -0.153 OA
BRANCH   9  12
ATOM     12  N   UNL     1      -0.474  -0.672   5.824  0.00  0.00    -0.193 NA
ATOM     13  C   UNL     1      -1.305   0.444   5.365  0.00  0.00    +0.127 C 
ATOM     14  H   UNL     1      -0.071  -0.646   6.706  0.00  0.00    +0.148 HD
ENDBRANCH   9  12
ENDBRANCH   7   9
ENDBRANCH   2   3
BRANCH   2  15
ATOM     15  N   UNL     1       0.688  -0.476  -1.203  0.00  0.00    -0.305 N 
ATOM     16  C   UNL     1       0.006  -0.608  -2.358  0.00  0.00    +0.247 C 
ATOM     17  O   UNL     1      -1.179  -0.335  -2.400  0.00  0.00    -0.270 OA
ATOM     18  H   UNL     1       1.632  -0.695  -1.170  0.00  0.00    +0.150 HD
BRANCH  16  19
ATOM     19  C   UNL     1       0.694  -1.082  -3.567  0.00  0.00    +0.062 A 
ATOM     20  C   UNL     1       2.008  -1.431  -3.675  0.00  0.00    +0.099 A 
ATOM     21  N   UNL     1       2.276  -1.818  -4.945  0.00  0.00    -0.349 N 
ATOM     22  C   UNL     1       1.141  -1.736  -5.724  0.00  0.00    +0.050 A 
ATOM     23  C   UNL     1       0.098  -1.280  -4.901  0.00  0.00    +0.012 A 
ATOM     24  C   UNL     1      -1.180  -1.107  -5.425  0.00  0.00    +0.011 A 
ATOM     25  C   UNL     1      -1.417  -1.389  -6.753  0.00  0.00    +0.001 A 
ATOM     26  C   UNL     1      -0.390  -1.844  -7.566  0.00  0.00    +0.002 A 
ATOM     27  C   UNL     1       0.882  -2.011  -7.063  0.00  0.00    +0.026 A 
ATOM     28  C   UNL     1       3.588  -2.259  -5.425  0.00  0.00    +0.149 C 
ENDBRANCH  16  19
ENDBRANCH   2  15
TORSDOF 5
