REMARK  Name = ZINC35938686
REMARK  12 active torsions:
REMARK  status: ('A' for Active; 'I' for Inactive)
REMARK    1  A    between atoms: C_1  and  C_2
REMARK    2  A    between atoms: C_2  and  C_3
REMARK    3  A    between atoms: C_3  and  C_4
REMARK    4  A    between atoms: C_4  and  C_5
REMARK    5  A    between atoms: C_5  and  C_6
REMARK    6  A    between atoms: C_6  and  C_7
REMARK    7  A    between atoms: C_14  and  C_16
REMARK    8  A    between atoms: C_17  and  C_19
REMARK    9  A    between atoms: C_19  and  C_20
REMARK   10  A    between atoms: C_20  and  N_21
REMARK   11  A    between atoms: C_29  and  C_31
REMARK   12  A    between atoms: C_34  and  C_37
REMARK                            x       y       z     vdW  Elec       q    Type
REMARK                         _______ _______ _______ _____ _____    ______ ____
ROOT
ATOM      1  C   UNL     1      -3.961 -10.683  -1.205  0.00  0.00    +0.077 C 
ENDROOT
BRANCH   1  11
ATOM      2  C   UNL     1      -4.241  -4.644   0.018  0.00  0.00    +0.216 C 
ATOM      3  O   UNL     1      -5.173  -3.869   0.031  0.00  0.00    -0.276 OA
ATOM      4  N   UNL     1      -4.469  -5.973   0.013  0.00  0.00    -0.296 N 
ATOM      5  C   UNL     1      -3.349  -6.924   0.003  0.00  0.00    +0.127 C 
ATOM      6  C   UNL     1      -3.518  -7.868  -1.194  0.00  0.00    +0.127 C 
ATOM      7  N   UNL     1      -4.892  -8.391  -1.189  0.00  0.00    -0.298 N 
ATOM      8  C   UNL     1      -6.012  -7.440  -1.180  0.00  0.00    +0.130 C 
ATOM      9  C   UNL     1      -5.843  -6.496   0.023  0.00  0.00    +0.090 C 
ATOM     10  C   UNL     1      -6.090  -7.264   1.323  0.00  0.00    +0.029 C 
ATOM     11  C   UNL     1      -5.120  -9.719  -1.194  0.00  0.00    +0.214 C 
ATOM     12  O   UNL     1      -6.258 -10.139  -1.190  0.00  0.00    -0.276 OA
BRANCH   2  13
ATOM     13  C   UNL     1      -2.827  -4.123   0.007  0.00  0.00    +0.096 C 
BRANCH  13  14
ATOM     14  C   UNL     1      -2.848  -2.593   0.015  0.00  0.00    +0.009 C 
BRANCH  14  15
ATOM     15  C   UNL     1      -1.413  -2.063   0.004  0.00  0.00    +0.000 C 
BRANCH  15  16
ATOM     16  C   UNL     1      -1.433  -0.534   0.013  0.00  0.00    -0.000 C 
BRANCH  16  18
ATOM     17  C   UNL     1      -0.019   1.526   0.010  0.00  0.00    +0.004 C 
ATOM     18  C   UNL     1       0.002  -0.004   0.002  0.00  0.00    -0.003 C 
ENDBRANCH  16  18
ENDBRANCH  15  16
ENDBRANCH  14  15
ENDBRANCH  13  14
ENDBRANCH   2  13
ENDBRANCH   1  11
BRANCH   1  19
ATOM     19  C   UNL     1      -4.492 -12.118  -1.208  0.00  0.00    -0.068 C 
BRANCH  19  20
ATOM     20  N   UNL     1      -3.362 -13.057  -1.219  0.00  0.00    +0.388 N 
ATOM     21  C   UNL     1      -2.591 -12.899   0.022  0.00  0.00    -0.072 C 
ATOM     22  C   UNL     1      -1.245 -13.629  -0.133  0.00  0.00    +0.024 C 
ATOM     23  C   UNL     1      -1.530 -14.984  -0.694  0.00  0.00    -0.010 A 
ATOM     24  C   UNL     1      -2.703 -15.399  -1.250  0.00  0.00    -0.047 A 
ATOM     25  C   UNL     1      -2.743 -16.715  -1.705  0.00  0.00    +0.010 A 
ATOM     26  C   UNL     1      -1.651 -17.506  -1.586  0.00  0.00    +0.045 A 
ATOM     27  S   UNL     1      -0.480 -16.404  -0.805  0.00  0.00    -0.101 S 
ATOM     28  C   UNL     1      -3.875 -14.427  -1.343  0.00  0.00    -0.006 C 
ATOM     29  H   UNL     1      -2.767 -12.853  -2.007  0.00  0.00    -0.080 HD
BRANCH  28  30
ATOM     30  C   UNL     1      -4.562 -14.591  -2.674  0.00  0.00    -0.057 A 
ATOM     31  C   UNL     1      -4.017 -14.018  -3.808  0.00  0.00    +0.002 A 
ATOM     32  C   UNL     1      -4.648 -14.168  -5.029  0.00  0.00    +0.003 A 
ATOM     33  C   UNL     1      -5.823 -14.891  -5.116  0.00  0.00    -0.050 A 
ATOM     34  C   UNL     1      -6.367 -15.465  -3.982  0.00  0.00    +0.003 A 
ATOM     35  C   UNL     1      -5.734 -15.319  -2.762  0.00  0.00    +0.002 A 
ATOM     36  C   UNL     1      -6.511 -15.053  -6.447  0.00  0.00    +0.044 C 
ENDBRANCH  28  30
ENDBRANCH  19  20
ENDBRANCH   1  19
TORSDOF 9
