REMARK  Name = ZINC56593352
REMARK  4 active torsions:
REMARK  status: ('A' for Active; 'I' for Inactive)
REMARK    1  A    between atoms: C_4  and  N_25
REMARK    2  A    between atoms: C_5  and  N_7
REMARK    3  A    between atoms: N_10  and  C_11
REMARK    4  A    between atoms: N_20  and  C_22
REMARK                            x       y       z     vdW  Elec       q    Type
REMARK                         _______ _______ _______ _____ _____    ______ ____
ROOT
ATOM      1  N   UNL     1       1.234  -2.082  -0.021  0.00  0.00    -0.268 N 
ATOM      2  C   UNL     1       0.083  -2.774   0.088  0.00  0.00    +0.304 C 
ATOM      3  O   UNL     1      -0.982  -2.186   0.102  0.00  0.00    -0.252 OA
ATOM      4  N   UNL     1       0.111  -4.118   0.181  0.00  0.00    -0.296 N 
ATOM      5  H   UNL     1       2.076  -2.554  -0.115  0.00  0.00    +0.156 HD
ATOM      6  H   UNL     1       0.960  -4.588   0.170  0.00  0.00    +0.151 HD
ENDROOT
BRANCH   4   7
ATOM      7  C   UNL     1      -1.138  -4.869   0.300  0.00  0.00    +0.077 C 
ATOM      8  C   UNL     1      -1.712  -5.170  -1.087  0.00  0.00    -0.007 C 
ATOM      9  C   UNL     1      -3.067  -5.851  -0.936  0.00  0.00    +0.003 C 
ATOM     10  C   UNL     1      -3.001  -7.110  -0.086  0.00  0.00    +0.001 C 
ATOM     11  C   UNL     1      -2.219  -6.925   1.204  0.00  0.00    +0.003 C 
ATOM     12  C   UNL     1      -0.888  -6.212   0.991  0.00  0.00    -0.007 C 
ATOM     13  C   UNL     1       0.075  -7.056   0.171  0.00  0.00    -0.073 C 
ATOM     14  N   UNL     1      -0.361  -7.258  -1.206  0.00  0.00    +0.382 N 
ATOM     15  C   UNL     1      -0.740  -6.024  -1.886  0.00  0.00    -0.073 C 
ATOM     16  H   UNL     1      -1.119  -7.923  -1.239  0.00  0.00    -0.081 HD
BRANCH  14  17
ATOM     17  C   UNL     1       0.750  -7.865  -1.951  0.00  0.00    -0.069 C 
ATOM     18  C   UNL     1       0.454  -9.132  -2.756  0.00  0.00    -0.017 C 
ATOM     19  C   UNL     1       1.271  -9.219  -1.465  0.00  0.00    -0.017 C 
ENDBRANCH  14  17
ENDBRANCH   4   7
BRANCH   1  24
ATOM     20  C   UNL     1       0.154   1.372   0.642  0.00  0.00    +0.002 A 
ATOM     21  C   UNL     1       1.173   2.089   0.043  0.00  0.00    +0.002 A 
ATOM     22  C   UNL     1       2.215   1.429  -0.580  0.00  0.00    +0.025 A 
ATOM     23  C   UNL     1       2.241   0.042  -0.604  0.00  0.00    +0.058 A 
ATOM     24  C   UNL     1       1.214  -0.681   0.000  0.00  0.00    +0.056 A 
ATOM     25  C   UNL     1       0.172  -0.010   0.623  0.00  0.00    +0.025 A 
BRANCH  23  26
ATOM     26  N   UNL     1       3.296  -0.630  -1.235  0.00  0.00    -0.270 N 
ATOM     27  C   UNL     1       3.304  -1.015  -2.651  0.00  0.00    +0.114 C 
ATOM     28  C   UNL     1       4.782  -1.312  -2.989  0.00  0.00    +0.029 C 
ATOM     29  C   UNL     1       5.351  -1.695  -1.604  0.00  0.00    +0.098 C 
ATOM     30  C   UNL     1       4.434  -0.999  -0.622  0.00  0.00    +0.220 C 
ATOM     31  O   UNL     1       4.688  -0.805   0.548  0.00  0.00    -0.275 OA
ENDBRANCH  23  26
ENDBRANCH   1  24
TORSDOF 4
