REMARK  Name = ZINC45353858
REMARK  15 active torsions:
REMARK  status: ('A' for Active; 'I' for Inactive)
REMARK    1  A    between atoms: C_1  and  C_2
REMARK    2  A    between atoms: C_2  and  O_3
REMARK    3  A    between atoms: O_3  and  C_4
REMARK    4  A    between atoms: C_4  and  C_6
REMARK    5  A    between atoms: C_10  and  N_11
REMARK    6  A    between atoms: C_16  and  C_18
REMARK    7  A    between atoms: C_18  and  C_20
REMARK    8  A    between atoms: C_18  and  N_28
REMARK    9  A    between atoms: C_20  and  C_21
REMARK   10  A    between atoms: N_28  and  C_29
REMARK   11  A    between atoms: C_30  and  O_32
REMARK   12  A    between atoms: O_32  and  C_33
REMARK   13  A    between atoms: C_33  and  C_34
REMARK   14  A    between atoms: C_33  and  C_35
REMARK   15  A    between atoms: C_33  and  C_36
REMARK                            x       y       z     vdW  Elec       q    Type
REMARK                         _______ _______ _______ _____ _____    ______ ____
ROOT
ATOM      1  C   UNL     1       1.448  -2.344  -2.515  0.00  0.00    +0.090 A 
ATOM      2  C   UNL     1       2.877  -2.619  -2.514  0.00  0.00    -0.018 A 
ATOM      3  C   UNL     1       3.340  -3.120  -3.678  0.00  0.00    +0.013 A 
ATOM      4  S   UNL     1       1.921  -3.212  -4.729  0.00  0.00    -0.076 S 
ATOM      5  C   UNL     1       0.749  -2.624  -3.681  0.00  0.00    +0.078 A 
ATOM      6  C   UNL     1       4.755  -3.508  -3.986  0.00  0.00    +0.150 C 
ATOM      7  N   UNL     1       5.591  -3.022  -2.870  0.00  0.00    -0.295 N 
ATOM      8  C   UNL     1       5.074  -3.199  -1.504  0.00  0.00    +0.113 C 
ATOM      9  C   UNL     1       3.797  -2.374  -1.328  0.00  0.00    +0.056 C 
ATOM     10  C   UNL     1       6.784  -2.437  -3.094  0.00  0.00    +0.237 C 
ATOM     11  O   UNL     1       7.453  -2.046  -2.161  0.00  0.00    -0.274 OA
ENDROOT
BRANCH   5  12
ATOM     12  N   UNL     1      -0.601  -2.456  -3.924  0.00  0.00    -0.352 N 
ATOM     13  H   UNL     1      -1.178  -2.102  -3.229  0.00  0.00    +0.143 HD
ATOM     14  H   UNL     1      -0.971  -2.691  -4.789  0.00  0.00    +0.143 HD
ENDBRANCH   5  12
BRANCH   1  15
ATOM     15  C   UNL     1       0.776  -1.800  -1.335  0.00  0.00    +0.342 C 
ATOM     16  O   UNL     1       0.312  -2.552  -0.499  0.00  0.00    -0.245 OA
BRANCH  15  17
ATOM     17  O   UNL     1       0.671  -0.465  -1.174  0.00  0.00    -0.461 OA
BRANCH  17  19
ATOM     18  C   UNL     1      -0.019   1.526   0.010  0.00  0.00    +0.048 C 
ATOM     19  C   UNL     1       0.002  -0.004   0.002  0.00  0.00    +0.229 C 
ENDBRANCH  17  19
ENDBRANCH  15  17
ENDBRANCH   1  15
BRANCH  10  20
ATOM     20  C   UNL     1       7.288  -2.270  -4.505  0.00  0.00    +0.169 C 
BRANCH  20  21
ATOM     21  N   UNL     1       8.739  -2.071  -4.485  0.00  0.00    -0.259 N 
ATOM     22  C   UNL     1       9.617  -3.013  -5.183  0.00  0.00    +0.136 C 
ATOM     23  C   UNL     1       9.266  -1.021  -3.825  0.00  0.00    +0.404 C 
ATOM     24  O   UNL     1      10.470  -0.855  -3.808  0.00  0.00    -0.226 OA
BRANCH  23  25
ATOM     25  O   UNL     1       8.459  -0.155  -3.183  0.00  0.00    -0.445 OA
BRANCH  25  26
ATOM     26  C   UNL     1       9.085   0.935  -2.504  0.00  0.00    +0.107 C 
ATOM     27  C   UNL     1       9.874   1.776  -3.509  0.00  0.00    +0.055 C 
ATOM     28  C   UNL     1       8.016   1.804  -1.839  0.00  0.00    +0.055 C 
ATOM     29  C   UNL     1      10.036   0.391  -1.436  0.00  0.00    +0.055 C 
ENDBRANCH  25  26
ENDBRANCH  23  25
ENDBRANCH  20  21
BRANCH  20  30
ATOM     30  C   UNL     1       6.615  -1.055  -5.146  0.00  0.00    +0.067 C 
BRANCH  30  31
ATOM     31  C   UNL     1       7.024  -0.959  -6.593  0.00  0.00    -0.045 A 
ATOM     32  C   UNL     1       8.150  -0.239  -6.947  0.00  0.00    +0.005 A 
ATOM     33  C   UNL     1       8.526  -0.151  -8.274  0.00  0.00    +0.020 A 
ATOM     34  C   UNL     1       7.775  -0.784  -9.249  0.00  0.00    +0.041 A 
ATOM     35  C   UNL     1       6.648  -1.504  -8.894  0.00  0.00    +0.020 A 
ATOM     36  C   UNL     1       6.277  -1.596  -7.566  0.00  0.00    +0.005 A 
ATOM     37 CL   UNL     1       8.246  -0.673 -10.916  0.00  0.00    -0.084 Cl
ENDBRANCH  30  31
ENDBRANCH  20  30
ENDBRANCH  10  20
TORSDOF 10
