REMARK  Name = ZINC20830495
REMARK  8 active torsions:
REMARK  status: ('A' for Active; 'I' for Inactive)
REMARK    1  A    between atoms: C_1  and  C_2
REMARK    2  A    between atoms: C_2  and  O_3
REMARK    3  A    between atoms: O_3  and  C_4
REMARK    4  A    between atoms: C_14  and  C_16
REMARK    5  A    between atoms: C_16  and  S_17
REMARK    6  A    between atoms: S_17  and  C_18
REMARK    7  A    between atoms: C_21  and  C_24
REMARK    8  A    between atoms: N_22  and  N_23
REMARK                            x       y       z     vdW  Elec       q    Type
REMARK                         _______ _______ _______ _____ _____    ______ ____
ROOT
ATOM      1  C   UNL     1       1.905  -0.998  10.582  0.00  0.00    +0.173 C 
ENDROOT
BRANCH   1  12
ATOM      2  C   UNL     1      -2.187   0.071   3.172  0.00  0.00    +0.122 A 
ATOM      3  C   UNL     1      -0.960  -0.576   3.056  0.00  0.00    +0.048 A 
ATOM      4  C   UNL     1      -0.177  -0.826   4.152  0.00  0.00    +0.032 A 
ATOM      5  C   UNL     1      -0.594  -0.431   5.444  0.00  0.00    +0.081 A 
ATOM      6  C   UNL     1      -1.843   0.224   5.526  0.00  0.00    +0.044 A 
ATOM      7  C   UNL     1      -2.622   0.477   4.425  0.00  0.00    +0.063 A 
ATOM      8  S   UNL     1      -1.990   0.543   7.268  0.00  0.00    -0.052 S 
ATOM      9  C   UNL     1      -0.436  -0.189   7.762  0.00  0.00    +0.165 A 
ATOM     10  N   UNL     1       0.056  -0.601   6.618  0.00  0.00    -0.225 NA
ATOM     11  N   UNL     1       0.112  -0.292   9.031  0.00  0.00    -0.264 N 
ATOM     12  C   UNL     1       1.310  -0.885   9.202  0.00  0.00    +0.229 C 
ATOM     13  O   UNL     1       1.909  -1.328   8.245  0.00  0.00    -0.275 OA
ATOM     14  H   UNL     1      -0.432   0.109   9.899  0.00  0.00    +0.157 HD
BRANCH   2  15
ATOM     15  O   UNL     1      -2.947   0.308   2.069  0.00  0.00    -0.492 OA
BRANCH  15  17
ATOM     16  C   UNL     1      -3.412   0.216  -0.300  0.00  0.00    +0.048 C 
ATOM     17  C   UNL     1      -2.426  -0.135   0.815  0.00  0.00    +0.225 C 
ENDBRANCH  15  17
ENDBRANCH   2  15
ENDBRANCH   1  12
BRANCH   1  18
ATOM     18  S   UNL     1       3.506  -1.837  10.481  0.00  0.00    -0.075 S 
BRANCH  18  19
ATOM     19  C   UNL     1       3.961  -1.832  12.184  0.00  0.00    +0.209 A 
ATOM     20  N   UNL     1       3.263  -1.327  13.176  0.00  0.00    -0.121 NA
ATOM     21  N   UNL     1       3.886  -1.499  14.286  0.00  0.00    -0.127 NA
ATOM     22  C   UNL     1       5.024  -2.115  14.070  0.00  0.00    +0.182 A 
ATOM     23  N   UNL     1       5.108  -2.348  12.717  0.00  0.00    -0.224 N 
BRANCH  22  24
ATOM     24  C   UNL     1       6.028  -2.489  15.089  0.00  0.00    +0.021 A 
ATOM     25  C   UNL     1       5.679  -2.516  16.441  0.00  0.00    +0.013 A 
ATOM     26  C   UNL     1       6.618  -2.870  17.386  0.00  0.00    +0.016 A 
ATOM     27  C   UNL     1       7.909  -3.189  16.998  0.00  0.00    +0.018 A 
ATOM     28  C   UNL     1       8.263  -3.160  15.660  0.00  0.00    +0.016 A 
ATOM     29  C   UNL     1       7.331  -2.812  14.705  0.00  0.00    +0.013 A 
ATOM     30 BR   UNL     1       9.193  -3.666  18.302  0.00  0.00    -0.050 Br
ENDBRANCH  22  24
BRANCH  23  31
ATOM     31  N   UNL     1       6.125  -2.966  12.047  0.00  0.00    -0.295 N 
ATOM     32  H   UNL     1       7.000  -3.339  12.598  0.00  0.00    +0.163 HD
ATOM     33  H   UNL     1       6.069  -3.090  10.955  0.00  0.00    +0.163 HD
ENDBRANCH  23  31
ENDBRANCH  18  19
ENDBRANCH   1  18
TORSDOF 7
