REMARK  Name = ZINC00888085
REMARK  10 active torsions:
REMARK  status: ('A' for Active; 'I' for Inactive)
REMARK    1  A    between atoms: C_3  and  C_6
REMARK    2  A    between atoms: C_6  and  C_8
REMARK    3  A    between atoms: C_6  and  N_19
REMARK    4  A    between atoms: N_10  and  C_11
REMARK    5  A    between atoms: C_11  and  C_12
REMARK    6  A    between atoms: N_19  and  C_20
REMARK    7  A    between atoms: C_20  and  C_21
REMARK    8  A    between atoms: C_28  and  C_30
REMARK    9  A    between atoms: C_30  and  N_31
REMARK   10  A    between atoms: C_33  and  C_36
REMARK                            x       y       z     vdW  Elec       q    Type
REMARK                         _______ _______ _______ _____ _____    ______ ____
ROOT
ATOM      1  N   UNL     1       3.769   0.778  -1.098  0.00  0.00    -0.280 N 
ATOM      2  C   UNL     1       4.353   0.793  -2.313  0.00  0.00    +0.240 C 
ATOM      3  O   UNL     1       5.125   1.682  -2.604  0.00  0.00    -0.273 OA
ENDROOT
BRANCH   1   4
ATOM      4  C   UNL     1       4.097   1.814  -0.115  0.00  0.00    +0.199 C 
BRANCH   4   7
ATOM      5  C   UNL     1       1.343   4.142   1.114  0.00  0.00    +0.008 A 
ATOM      6  C   UNL     1       2.602   3.765   0.685  0.00  0.00    +0.013 A 
ATOM      7  C   UNL     1       2.828   2.466   0.370  0.00  0.00    +0.019 A 
ATOM      8  S   UNL     1       1.232   1.728   0.678  0.00  0.00    -0.099 S 
ATOM      9  C   UNL     1       0.372   3.201   1.207  0.00  0.00    +0.045 A 
ENDBRANCH   4   7
BRANCH   4  10
ATOM     10  C   UNL     1       4.819   1.190   1.051  0.00  0.00    +0.239 C 
ATOM     11  O   UNL     1       5.345   0.104   0.927  0.00  0.00    -0.273 OA
ATOM     12  N   UNL     1       4.880   1.837   2.231  0.00  0.00    -0.309 N 
ATOM     13  H   UNL     1       4.459   2.706   2.330  0.00  0.00    +0.149 HD
BRANCH  12  14
ATOM     14  C   UNL     1       5.581   1.230   3.365  0.00  0.00    +0.139 C 
BRANCH  14  15
ATOM     15  C   UNL     1       5.503   2.151   4.556  0.00  0.00    -0.030 A 
ATOM     16  C   UNL     1       6.480   3.108   4.754  0.00  0.00    +0.008 A 
ATOM     17  C   UNL     1       6.409   3.953   5.845  0.00  0.00    +0.038 A 
ATOM     18  C   UNL     1       5.358   3.840   6.740  0.00  0.00    +0.123 A 
ATOM     19  C   UNL     1       4.380   2.881   6.540  0.00  0.00    +0.038 A 
ATOM     20  C   UNL     1       4.450   2.041   5.445  0.00  0.00    +0.008 A 
ATOM     21  F   UNL     1       5.288   4.665   7.807  0.00  0.00    -0.205 F 
ENDBRANCH  14  15
ENDBRANCH  12  14
ENDBRANCH   4  10
ENDBRANCH   1   4
BRANCH   1  22
ATOM     22  C   UNL     1       2.806  -0.273  -0.761  0.00  0.00    +0.144 C 
BRANCH  22  23
ATOM     23  C   UNL     1       3.544  -1.494  -0.276  0.00  0.00    -0.030 A 
ATOM     24  C   UNL     1       4.107  -2.368  -1.188  0.00  0.00    +0.008 A 
ATOM     25  C   UNL     1       4.784  -3.488  -0.744  0.00  0.00    +0.038 A 
ATOM     26  C   UNL     1       4.900  -3.734   0.613  0.00  0.00    +0.123 A 
ATOM     27  C   UNL     1       4.336  -2.858   1.525  0.00  0.00    +0.038 A 
ATOM     28  C   UNL     1       3.664  -1.736   1.080  0.00  0.00    +0.008 A 
ATOM     29  F   UNL     1       5.562  -4.829   1.048  0.00  0.00    -0.205 F 
ENDBRANCH  22  23
ENDBRANCH   1  22
BRANCH   2  30
ATOM     30  C   UNL     1       4.048  -0.296  -3.309  0.00  0.00    +0.264 C 
BRANCH  30  31
ATOM     31  N   UNL     1       4.439   0.145  -4.650  0.00  0.00    -0.154 N 
ATOM     32  N   UNL     1       3.680   0.777  -5.477  0.00  0.00    -0.130 NA
ATOM     33  C   UNL     1       4.377   1.002  -6.573  0.00  0.00    +0.205 A 
ATOM     34  N   UNL     1       5.593   0.475  -6.370  0.00  0.00    -0.108 NA
ATOM     35  N   UNL     1       5.596  -0.034  -5.184  0.00  0.00    -0.045 NA
BRANCH  33  36
ATOM     36  C   UNL     1       3.906   1.701  -7.795  0.00  0.00    +0.023 A 
ATOM     37  C   UNL     1       2.608   2.202  -7.858  0.00  0.00    +0.014 A 
ATOM     38  C   UNL     1       2.175   2.851  -8.996  0.00  0.00    +0.039 A 
ATOM     39  C   UNL     1       3.029   3.005 -10.075  0.00  0.00    +0.123 A 
ATOM     40  C   UNL     1       4.322   2.508 -10.018  0.00  0.00    +0.039 A 
ATOM     41  C   UNL     1       4.764   1.863  -8.881  0.00  0.00    +0.014 A 
ATOM     42  F   UNL     1       2.601   3.641 -11.188  0.00  0.00    -0.205 F 
ENDBRANCH  33  36
ENDBRANCH  30  31
ENDBRANCH   2  30
TORSDOF 10
