REMARK  Name = ZINC03249661
REMARK  5 active torsions:
REMARK  status: ('A' for Active; 'I' for Inactive)
REMARK    1  A    between atoms: C_1  and  O_2
REMARK    2  A    between atoms: O_2  and  C_3
REMARK    3  A    between atoms: C_6  and  C_10
REMARK    4  A    between atoms: C_8  and  O_9
REMARK    5  A    between atoms: N_21  and  C_22
REMARK                            x       y       z     vdW  Elec       q    Type
REMARK                         _______ _______ _______ _____ _____    ______ ____
ROOT
ATOM      1  C   UNL     1      -1.249  -0.722   0.021  0.00  0.00    +0.198 C 
ATOM      2  N   UNL     1      -1.028  -2.028   0.652  0.00  0.00    -0.321 N 
ATOM      3  C   UNL     1      -0.996  -2.103   2.040  0.00  0.00    +0.041 A 
ATOM      4  C   UNL     1      -0.264  -3.074   2.701  0.00  0.00    +0.024 A 
ATOM      5  C   UNL     1      -0.286  -3.126   4.082  0.00  0.00    +0.002 A 
ATOM      6  C   UNL     1      -1.037  -2.216   4.809  0.00  0.00    +0.001 A 
ATOM      7  C   UNL     1      -1.769  -1.240   4.166  0.00  0.00    +0.015 A 
ATOM      8  C   UNL     1      -1.746  -1.167   2.775  0.00  0.00    +0.058 A 
ATOM      9  C   UNL     1      -2.506  -0.141   2.041  0.00  0.00    +0.254 C 
ATOM     10  O   UNL     1      -3.300   0.570   2.627  0.00  0.00    -0.270 OA
ATOM     11  N   UNL     1      -2.314   0.003   0.715  0.00  0.00    -0.244 N 
ATOM     12  H   UNL     1      -0.907  -2.824   0.111  0.00  0.00    +0.148 HD
ENDROOT
BRANCH  11  13
ATOM     13  C   UNL     1      -3.148   0.861  -0.011  0.00  0.00    +0.039 A 
ATOM     14  C   UNL     1      -3.242   2.201   0.339  0.00  0.00    +0.025 A 
ATOM     15  C   UNL     1      -4.061   3.047  -0.383  0.00  0.00    +0.022 A 
ATOM     16  C   UNL     1      -4.797   2.557  -1.448  0.00  0.00    +0.041 A 
ATOM     17  C   UNL     1      -4.709   1.220  -1.796  0.00  0.00    +0.022 A 
ATOM     18  C   UNL     1      -3.887   0.372  -1.081  0.00  0.00    +0.025 A 
ATOM     19 CL   UNL     1      -5.831   3.621  -2.349  0.00  0.00    -0.084 Cl
ENDBRANCH  11  13
BRANCH   1  23
ATOM     20  C   UNL     1       2.359   1.568   0.191  0.00  0.00    +0.161 A 
ATOM     21  C   UNL     1       1.129   2.207   0.187  0.00  0.00    +0.050 A 
ATOM     22  C   UNL     1      -0.035   1.464   0.132  0.00  0.00    +0.011 A 
ATOM     23  C   UNL     1       0.024   0.083   0.081  0.00  0.00    -0.005 A 
ATOM     24  C   UNL     1       1.247  -0.560   0.084  0.00  0.00    +0.056 A 
ATOM     25  C   UNL     1       2.418   0.178   0.139  0.00  0.00    +0.159 A 
BRANCH  20  27
ATOM     26  C   UNL     1       3.369   3.719   0.296  0.00  0.00    +0.277 C 
ATOM     27  O   UNL     1       3.506   2.297   0.245  0.00  0.00    -0.491 OA
ENDBRANCH  20  27
BRANCH  25  28
ATOM     28  O   UNL     1       3.623  -0.453   0.143  0.00  0.00    -0.503 OA
ATOM     29  H   UNL     1       3.991  -0.602  -0.738  0.00  0.00    +0.292 HD
ENDBRANCH  25  28
ENDBRANCH   1  23
TORSDOF 4
