REMARK  Name = ZINC17091954
REMARK  10 active torsions:
REMARK  status: ('A' for Active; 'I' for Inactive)
REMARK    1  A    between atoms: C_1  and  C_2
REMARK    2  A    between atoms: C_3  and  C_27
REMARK    3  A    between atoms: C_5  and  N_11
REMARK    4  A    between atoms: C_6  and  C_7
REMARK    5  A    between atoms: C_7  and  O_9
REMARK    6  A    between atoms: O_9  and  C_10
REMARK    7  A    between atoms: N_11  and  C_12
REMARK    8  A    between atoms: C_12  and  N_14
REMARK    9  A    between atoms: N_14  and  N_15
REMARK   10  A    between atoms: C_16  and  C_18
REMARK                            x       y       z     vdW  Elec       q    Type
REMARK                         _______ _______ _______ _____ _____    ______ ____
ROOT
ATOM      1  C   UNL     1       1.292   4.646   3.533  0.00  0.00    +0.151 C 
ATOM      2  S   UNL     1       1.356   6.332   3.242  0.00  0.00    -0.017 S 
ENDROOT
BRANCH   1   3
ATOM      3  N   UNL     1       1.254   3.784   2.497  0.00  0.00    -0.290 N 
ATOM      4  H   UNL     1       1.218   2.829   2.662  0.00  0.00    +0.154 HD
BRANCH   3   9
ATOM      5  C   UNL     1       1.212   3.629  -2.563  0.00  0.00    +0.045 C 
ATOM      6  C   UNL     1       1.250   4.303  -1.216  0.00  0.00    -0.025 A 
ATOM      7  C   UNL     1       1.303   5.642  -1.104  0.00  0.00    -0.008 A 
ATOM      8  S   UNL     1       1.330   5.907   0.656  0.00  0.00    -0.078 S 
ATOM      9  C   UNL     1       1.266   4.263   1.197  0.00  0.00    +0.086 A 
ATOM     10  C   UNL     1       1.233   3.539   0.009  0.00  0.00    +0.091 A 
ATOM     11  C   UNL     1       1.332   6.672  -2.205  0.00  0.00    +0.052 C 
BRANCH  10  12
ATOM     12  C   UNL     1       1.176   2.076   0.002  0.00  0.00    +0.342 C 
ATOM     13  O   UNL     1       2.205   1.428  -0.011  0.00  0.00    -0.245 OA
BRANCH  12  14
ATOM     14  O   UNL     1      -0.018   1.448   0.010  0.00  0.00    -0.464 OA
ATOM     15  C   UNL     1       0.002  -0.004   0.002  0.00  0.00    +0.280 C 
ENDBRANCH  12  14
ENDBRANCH  10  12
ENDBRANCH   3   9
ENDBRANCH   1   3
BRANCH   1  16
ATOM     16  N   UNL     1       1.280   4.180   4.797  0.00  0.00    -0.245 N 
ATOM     17  H   UNL     1       1.308   4.800   5.543  0.00  0.00    +0.172 HD
BRANCH  16  18
ATOM     18  N   UNL     1       1.228   2.801   5.035  0.00  0.00    -0.231 N 
ATOM     19  C   UNL     1       1.216   2.335   6.300  0.00  0.00    +0.261 C 
ATOM     20  O   UNL     1       1.250   3.113   7.235  0.00  0.00    -0.269 OA
ATOM     21  H   UNL     1       1.200   2.181   4.290  0.00  0.00    +0.173 HD
BRANCH  19  22
ATOM     22  C   UNL     1       1.161   0.889   6.550  0.00  0.00    +0.053 A 
ATOM     23  C   UNL     1       1.116   0.004   5.518  0.00  0.00    +0.059 A 
ATOM     24  S   UNL     1       1.064  -1.547   6.283  0.00  0.00    -0.096 S 
ATOM     25  C   UNL     1       1.092  -1.043   7.982  0.00  0.00    +0.020 A 
ATOM     26  C   UNL     1       1.147   0.362   7.917  0.00  0.00    +0.001 A 
ATOM     27  C   UNL     1       1.179   1.060   9.142  0.00  0.00    +0.010 A 
ATOM     28  C   UNL     1       1.158   0.379  10.332  0.00  0.00    +0.001 A 
ATOM     29  C   UNL     1       1.104  -1.007  10.368  0.00  0.00    +0.001 A 
ATOM     30  C   UNL     1       1.071  -1.718   9.184  0.00  0.00    +0.015 A 
ENDBRANCH  19  22
ENDBRANCH  16  18
ENDBRANCH   1  16
TORSDOF 7
