REMARK  Name = ZINC16026101
REMARK  10 active torsions:
REMARK  status: ('A' for Active; 'I' for Inactive)
REMARK    1  A    between atoms: C_1  and  C_2
REMARK    2  A    between atoms: C_2  and  C_4
REMARK    3  A    between atoms: C_2  and  N_10
REMARK    4  A    between atoms: C_11  and  C_13
REMARK    5  A    between atoms: C_13  and  C_15
REMARK    6  A    between atoms: C_13  and  N_26
REMARK    7  A    between atoms: C_15  and  C_16
REMARK    8  A    between atoms: C_27  and  C_29
REMARK    9  A    between atoms: C_31  and  C_41
REMARK   10  A    between atoms: C_31  and  C_42
REMARK                            x       y       z     vdW  Elec       q    Type
REMARK                         _______ _______ _______ _____ _____    ______ ____
ROOT
ATOM      1  C   UNL     1       3.127  -0.935  -1.551  0.00  0.00    +0.163 C 
ENDROOT
BRANCH   1   3
ATOM      2  N   UNL     1       4.775  -2.653  -0.880  0.00  0.00    -0.307 N 
ATOM      3  C   UNL     1       3.519  -2.363  -1.271  0.00  0.00    +0.234 C 
ATOM      4  O   UNL     1       2.703  -3.252  -1.399  0.00  0.00    -0.274 OA
ATOM      5  H   UNL     1       5.428  -1.943  -0.778  0.00  0.00    +0.149 HD
BRANCH   2   7
ATOM      6  C   UNL     1       5.562  -4.724  -1.916  0.00  0.00    +0.033 C 
ATOM      7  C   UNL     1       5.156  -4.042  -0.608  0.00  0.00    +0.100 C 
BRANCH   7   8
ATOM      8  C   UNL     1       6.317  -4.066   0.353  0.00  0.00    -0.027 A 
ATOM      9  C   UNL     1       7.340  -3.145   0.224  0.00  0.00    +0.005 A 
ATOM     10  C   UNL     1       8.402  -3.164   1.108  0.00  0.00    +0.000 A 
ATOM     11  C   UNL     1       8.446  -4.109   2.115  0.00  0.00    +0.000 A 
ATOM     12  C   UNL     1       7.426  -5.034   2.241  0.00  0.00    +0.000 A 
ATOM     13  C   UNL     1       6.361  -5.012   1.359  0.00  0.00    +0.005 A 
ENDBRANCH   7   8
ENDBRANCH   2   7
ENDBRANCH   1   3
BRANCH   1  14
ATOM     14  N   UNL     1       1.720  -0.885  -1.957  0.00  0.00    -0.302 N 
ATOM     15  C   UNL     1       1.368  -1.228  -3.212  0.00  0.00    +0.236 C 
ATOM     16  O   UNL     1       2.223  -1.497  -4.029  0.00  0.00    -0.274 OA
ATOM     17  H   UNL     1       1.042  -0.605  -1.322  0.00  0.00    +0.150 HD
BRANCH  15  18
ATOM     18  C   UNL     1      -0.087  -1.276  -3.599  0.00  0.00    +0.190 C 
ATOM     19  C   UNL     1      -0.526   0.126  -4.109  0.00  0.00    +0.111 C 
ATOM     20  S   UNL     1      -1.981  -0.385  -5.120  0.00  0.00    -0.004 S 
ATOM     21  O   UNL     1      -2.078   0.434  -6.277  0.00  0.00    -0.172 OA
ATOM     22  O   UNL     1      -3.105  -0.533  -4.263  0.00  0.00    -0.172 OA
ATOM     23  C   UNL     1      -1.357  -2.048  -5.601  0.00  0.00    +0.228 C 
ATOM     24  N   UNL     1      -0.275  -2.300  -4.632  0.00  0.00    -0.265 N 
ATOM     25  C   UNL     1      -0.890  -3.450  -4.268  0.00  0.00    +0.221 C 
ATOM     26  O   UNL     1      -0.535  -4.367  -3.558  0.00  0.00    -0.275 OA
ATOM     27  C   UNL     1      -2.161  -3.213  -5.039  0.00  0.00    +0.142 C 
ATOM     28  C   UNL     1      -0.930   1.043  -2.952  0.00  0.00    +0.037 C 
ATOM     29  C   UNL     1       0.553   0.771  -4.981  0.00  0.00    +0.037 C 
ENDBRANCH  15  18
ENDBRANCH   1  14
BRANCH   1  30
ATOM     30  C   UNL     1       3.324  -0.096  -0.287  0.00  0.00    +0.069 C 
BRANCH  30  31
ATOM     31  C   UNL     1       3.032   1.350  -0.594  0.00  0.00    -0.020 A 
ATOM     32  C   UNL     1       3.895   2.251  -1.091  0.00  0.00    +0.087 A 
ATOM     33  N   UNL     1       3.275   3.461  -1.237  0.00  0.00    -0.360 N 
ATOM     34  H   UNL     1       3.695   4.266  -1.579  0.00  0.00    +0.165 HD
ATOM     35  C   UNL     1       1.963   3.367  -0.827  0.00  0.00    +0.047 A 
ATOM     36  C   UNL     1       1.754   2.041  -0.406  0.00  0.00    +0.003 A 
ATOM     37  C   UNL     1       0.501   1.650   0.067  0.00  0.00    +0.010 A 
ATOM     38  C   UNL     1      -0.520   2.558   0.115  0.00  0.00    +0.001 A 
ATOM     39  C   UNL     1      -0.317   3.868  -0.294  0.00  0.00    +0.002 A 
ATOM     40  C   UNL     1       0.912   4.276  -0.765  0.00  0.00    +0.026 A 
ENDBRANCH  30  31
ENDBRANCH   1  30
TORSDOF 7
