REMARK  Name = ZINC08833974
REMARK  17 active torsions:
REMARK  status: ('A' for Active; 'I' for Inactive)
REMARK    1  A    between atoms: C_1  and  C_2
REMARK    2  A    between atoms: C_2  and  N_67
REMARK    3  A    between atoms: C_3  and  C_4
REMARK    4  A    between atoms: C_3  and  N_67
REMARK    5  A    between atoms: C_5  and  C_6
REMARK    6  A    between atoms: C_5  and  N_67
REMARK    7  A    between atoms: C_6  and  N_7
REMARK    8  A    between atoms: C_8  and  C_30
REMARK    9  A    between atoms: C_10  and  C_15
REMARK   10  A    between atoms: C_11  and  O_14
REMARK   11  A    between atoms: C_15  and  C_17
REMARK   12  A    between atoms: C_18  and  C_29
REMARK   13  A    between atoms: C_19  and  C_24
REMARK   14  A    between atoms: C_22  and  C_23
REMARK   15  A    between atoms: C_24  and  O_26
REMARK   16  A    between atoms: O_26  and  C_27
REMARK   17  A    between atoms: C_27  and  C_28
REMARK                            x       y       z     vdW  Elec       q    Type
REMARK                         _______ _______ _______ _____ _____    ______ ____
ROOT
ATOM      1  N   UNL     1       4.495   0.538   0.530  0.00  0.00    -0.285 N 
ATOM      2  C   UNL     1       3.456   1.245  -0.228  0.00  0.00    +0.147 C 
ATOM      3  C   UNL     1       4.022   1.467  -1.611  0.00  0.00    +0.071 C 
ATOM      4  C   UNL     1       5.263   0.930  -1.616  0.00  0.00    +0.188 C 
ATOM      5  C   UNL     1       5.550   0.356  -0.285  0.00  0.00    +0.282 C 
ATOM      6  O   UNL     1       6.585  -0.199   0.028  0.00  0.00    -0.267 OA
ENDROOT
BRANCH   2   7
ATOM      7  C   UNL     1       2.209   0.403  -0.308  0.00  0.00    +0.013 A 
ATOM      8  C   UNL     1       0.974   0.970  -0.054  0.00  0.00    +0.008 A 
ATOM      9  C   UNL     1      -0.170   0.197  -0.126  0.00  0.00    +0.001 A 
ATOM     10  C   UNL     1      -0.080  -1.145  -0.448  0.00  0.00    +0.003 A 
ATOM     11  C   UNL     1       1.153  -1.713  -0.707  0.00  0.00    +0.039 A 
ATOM     12  C   UNL     1       2.300  -0.940  -0.635  0.00  0.00    +0.129 A 
ATOM     13  F   UNL     1       3.506  -1.495  -0.883  0.00  0.00    -0.205 F 
ENDBRANCH   2   7
BRANCH   4  14
ATOM     14  O   UNL     1       6.109   0.920  -2.672  0.00  0.00    -0.502 OA
ATOM     15  H   UNL     1       6.960   0.464  -2.413  0.00  0.00    +0.292 HD
ENDBRANCH   4  14
BRANCH   3  16
ATOM     16  C   UNL     1       3.353   2.136  -2.733  0.00  0.00    +0.197 C 
ATOM     17  O   UNL     1       2.480   1.558  -3.353  0.00  0.00    -0.287 OA
BRANCH  16  18
ATOM     18  C   UNL     1       3.740   3.508  -3.109  0.00  0.00    +0.046 A 
ATOM     19  C   UNL     1       3.273   4.235  -4.227  0.00  0.00    -0.008 A 
ATOM     20  C   UNL     1       3.884   5.454  -4.194  0.00  0.00    +0.128 A 
ATOM     21  N   UNL     1       4.710   5.495  -3.091  0.00  0.00    -0.352 N 
ATOM     22  H   UNL     1       5.263   6.248  -2.831  0.00  0.00    +0.166 HD
ATOM     23  C   UNL     1       4.623   4.329  -2.430  0.00  0.00    +0.025 A 
ATOM     24  C   UNL     1       5.364   3.974  -1.167  0.00  0.00    +0.064 C 
ATOM     25  C   UNL     1       2.286   3.755  -5.260  0.00  0.00    +0.047 C 
BRANCH  20  26
ATOM     26  C   UNL     1       3.695   6.536  -5.165  0.00  0.00    +0.356 C 
ATOM     27  O   UNL     1       2.936   6.385  -6.104  0.00  0.00    -0.243 OA
BRANCH  26  28
ATOM     28  O   UNL     1       4.363   7.699  -5.018  0.00  0.00    -0.460 OA
BRANCH  28  29
ATOM     29  C   UNL     1       4.127   8.725  -6.018  0.00  0.00    +0.229 C 
ATOM     30  C   UNL     1       4.965   9.962  -5.686  0.00  0.00    +0.048 C 
ENDBRANCH  28  29
ENDBRANCH  26  28
ENDBRANCH  20  26
ENDBRANCH  16  18
ENDBRANCH   3  16
BRANCH   1  31
ATOM     31  C   UNL     1       4.400   0.106   1.927  0.00  0.00    +0.090 C 
BRANCH  31  32
ATOM     32  C   UNL     1       3.942  -1.353   1.980  0.00  0.00    -0.060 C 
BRANCH  32  33
ATOM     33  N   UNL     1       3.914  -1.790   3.392  0.00  0.00    +0.380 N 
ATOM     34  H   UNL     1       4.768  -1.463   3.859  0.00  0.00    -0.082 HD
BRANCH  33  36
ATOM     35  C   UNL     1       2.856  -1.491   5.577  0.00  0.00    -0.017 C 
ATOM     36  C   UNL     1       2.740  -1.210   4.077  0.00  0.00    -0.082 C 
ENDBRANCH  33  36
BRANCH  33  37
ATOM     37  C   UNL     1       3.862  -3.265   3.462  0.00  0.00    -0.082 C 
ATOM     38  C   UNL     1       5.261  -3.819   3.185  0.00  0.00    -0.017 C 
ENDBRANCH  33  37
ENDBRANCH  32  33
ENDBRANCH  31  32
ENDBRANCH   1  31
TORSDOF 12
