REMARK  Name = ZINC08644994
REMARK  8 active torsions:
REMARK  status: ('A' for Active; 'I' for Inactive)
REMARK    1  A    between atoms: C_1  and  C_2
REMARK    2  A    between atoms: C_2  and  C_4
REMARK    3  A    between atoms: C_2  and  S_15
REMARK    4  A    between atoms: N_6  and  C_7
REMARK    5  A    between atoms: C_7  and  C_13
REMARK    6  A    between atoms: S_15  and  C_16
REMARK    7  A    between atoms: C_19  and  C_22
REMARK    8  A    between atoms: N_20  and  N_21
REMARK                            x       y       z     vdW  Elec       q    Type
REMARK                         _______ _______ _______ _____ _____    ______ ____
ROOT
ATOM      1  C   UNL     1      -2.662  -3.038  -0.689  0.00  0.00    +0.209 A 
ATOM      2  N   UNL     1      -3.722  -2.432  -0.203  0.00  0.00    -0.121 NA
ATOM      3  N   UNL     1      -4.750  -3.196  -0.300  0.00  0.00    -0.127 NA
ATOM      4  C   UNL     1      -4.411  -4.336  -0.855  0.00  0.00    +0.183 A 
ATOM      5  N   UNL     1      -3.063  -4.268  -1.126  0.00  0.00    -0.224 N 
ENDROOT
BRANCH   4   6
ATOM      6  C   UNL     1      -5.307  -5.476  -1.140  0.00  0.00    +0.039 A 
ATOM      7  C   UNL     1      -4.923  -6.774  -0.796  0.00  0.00    +0.014 A 
ATOM      8  C   UNL     1      -5.766  -7.833  -1.059  0.00  0.00    +0.021 A 
ATOM      9  C   UNL     1      -6.987  -7.614  -1.674  0.00  0.00    +0.042 A 
ATOM     10  C   UNL     1      -7.373  -6.330  -2.022  0.00  0.00    +0.040 A 
ATOM     11  C   UNL     1      -6.540  -5.261  -1.759  0.00  0.00    +0.053 A 
ATOM     12 CL   UNL     1      -7.025  -3.653  -2.197  0.00  0.00    -0.083 Cl
ATOM     13 CL   UNL     1      -8.040  -8.953  -2.008  0.00  0.00    -0.083 Cl
ENDBRANCH   4   6
BRANCH   5  14
ATOM     14  N   UNL     1      -2.289  -5.231  -1.708  0.00  0.00    -0.295 N 
ATOM     15  H   UNL     1      -1.965  -5.897  -1.024  0.00  0.00    +0.163 HD
ATOM     16  H   UNL     1      -2.786  -5.692  -2.456  0.00  0.00    +0.163 HD
ENDBRANCH   5  14
BRANCH   1  17
ATOM     17  S   UNL     1      -1.028  -2.382  -0.770  0.00  0.00    -0.072 S 
BRANCH  17  19
ATOM     18  C   UNL     1      -1.715  -0.929   1.440  0.00  0.00    +0.029 C 
ATOM     19  C   UNL     1      -1.305  -0.756  -0.024  0.00  0.00    +0.137 C 
BRANCH  19  20
ATOM     20  C   UNL     1      -0.036   0.053  -0.098  0.00  0.00    +0.227 C 
ATOM     21  O   UNL     1       1.030  -0.504  -0.256  0.00  0.00    -0.275 OA
ATOM     22  N   UNL     1      -0.085   1.395   0.013  0.00  0.00    -0.296 N 
ATOM     23  H   UNL     1      -0.938   1.841   0.135  0.00  0.00    +0.150 HD
BRANCH  22  24
ATOM     24  C   UNL     1       1.149   2.182  -0.059  0.00  0.00    +0.121 C 
ATOM     25  C   UNL     1       2.093   1.753   1.066  0.00  0.00    +0.041 C 
ATOM     26  C   UNL     1       3.382   2.574   0.992  0.00  0.00    +0.003 C 
ATOM     27  C   UNL     1       3.049   4.060   1.144  0.00  0.00    +0.000 C 
ATOM     28  C   UNL     1       2.105   4.489   0.019  0.00  0.00    +0.003 C 
ATOM     29  C   UNL     1       0.816   3.667   0.093  0.00  0.00    +0.041 C 
BRANCH  24  30
ATOM     30  C   UNL     1       1.801   1.956  -1.359  0.00  0.00    +0.088 C 
ATOM     31  N   UNL     1       2.303   1.781  -2.363  0.00  0.00    -0.194 NA
ENDBRANCH  24  30
ENDBRANCH  22  24
ENDBRANCH  19  20
ENDBRANCH  17  19
ENDBRANCH   1  17
TORSDOF 7
