REMARK  Name = ZINC59928271
REMARK  7 active torsions:
REMARK  status: ('A' for Active; 'I' for Inactive)
REMARK    1  A    between atoms: C_1  and  C_2
REMARK    2  A    between atoms: C_3  and  C_7
REMARK    3  A    between atoms: C_10  and  S_13
REMARK    4  A    between atoms: N_11  and  C_12
REMARK    5  A    between atoms: S_13  and  C_14
REMARK    6  A    between atoms: C_14  and  C_16
REMARK    7  A    between atoms: C_14  and  C_17
REMARK                            x       y       z     vdW  Elec       q    Type
REMARK                         _______ _______ _______ _____ _____    ______ ____
ROOT
ATOM      1  C   UNL     1      -2.531  -0.417   0.203  0.00  0.00    +0.168 A 
ATOM      2  N   UNL     1      -2.974   0.818   0.221  0.00  0.00    -0.128 NA
ATOM      3  N   UNL     1      -4.235   0.836  -0.025  0.00  0.00    -0.122 NA
ATOM      4  C   UNL     1      -4.675  -0.387  -0.216  0.00  0.00    +0.192 A 
ATOM      5  N   UNL     1      -3.604  -1.227  -0.083  0.00  0.00    -0.305 N 
ATOM      6  C   UNL     1      -3.602  -2.686  -0.215  0.00  0.00    +0.153 C 
ENDROOT
BRANCH   1   9
ATOM      7  C   UNL     1       0.052   0.855  -1.038  0.00  0.00    +0.087 C 
ATOM      8  C   UNL     1      -0.006  -0.315  -0.089  0.00  0.00    +0.112 A 
ATOM      9  C   UNL     1      -1.138  -0.854   0.439  0.00  0.00    +0.060 A 
ATOM     10  C   UNL     1      -0.689  -1.960   1.294  0.00  0.00    +0.053 A 
ATOM     11  C   UNL     1       0.651  -1.982   1.200  0.00  0.00    +0.196 A 
ATOM     12  O   UNL     1       1.047  -1.003   0.372  0.00  0.00    -0.467 OA
ENDBRANCH   1   9
BRANCH   4  13
ATOM     13  S   UNL     1      -6.333  -0.857  -0.581  0.00  0.00    -0.078 S 
BRANCH  13  14
ATOM     14  C   UNL     1      -7.236   0.717  -0.624  0.00  0.00    +0.081 C 
ATOM     15  C   UNL     1      -6.723   1.567  -1.788  0.00  0.00    +0.024 C 
BRANCH  14  16
ATOM     16  C   UNL     1      -8.707   0.447  -0.809  0.00  0.00    -0.033 A 
ATOM     17  C   UNL     1      -9.150  -0.229  -1.931  0.00  0.00    +0.007 A 
ATOM     18  C   UNL     1     -10.498  -0.477  -2.102  0.00  0.00    +0.040 A 
ATOM     19  C   UNL     1     -11.407  -0.049  -1.149  0.00  0.00    +0.142 A 
ATOM     20  C   UNL     1     -10.963   0.628  -0.025  0.00  0.00    +0.076 A 
ATOM     21  C   UNL     1      -9.611   0.871   0.146  0.00  0.00    +0.027 A 
ATOM     22 CL   UNL     1     -12.100   1.166   1.171  0.00  0.00    -0.081 Cl
ATOM     23  F   UNL     1     -12.726  -0.291  -1.315  0.00  0.00    -0.204 F 
ENDBRANCH  14  16
ENDBRANCH  13  14
ENDBRANCH   4  13
TORSDOF 4
