REMARK  Name = ZINC14807049
REMARK  6 active torsions:
REMARK  status: ('A' for Active; 'I' for Inactive)
REMARK    1  A    between atoms: C_1  and  O_2
REMARK    2  A    between atoms: O_2  and  C_3
REMARK    3  A    between atoms: C_7  and  O_11
REMARK    4  A    between atoms: C_8  and  O_9
REMARK    5  A    between atoms: O_9  and  C_10
REMARK    6  A    between atoms: C_15  and  C_18
REMARK                            x       y       z     vdW  Elec       q    Type
REMARK                         _______ _______ _______ _____ _____    ______ ____
ROOT
ATOM      1  C   UNL     1      -0.787   2.890   1.346  0.00  0.00    +0.169 A 
ATOM      2  C   UNL     1      -0.255   3.743   0.387  0.00  0.00    +0.096 A 
ATOM      3  C   UNL     1      -0.354   5.114   0.541  0.00  0.00    +0.139 A 
ATOM      4  C   UNL     1      -0.995   5.635   1.681  0.00  0.00    +0.104 A 
ATOM      5  C   UNL     1      -1.537   4.772   2.645  0.00  0.00    +0.176 A 
ATOM      6  C   UNL     1      -1.433   3.400   2.469  0.00  0.00    +0.204 A 
ATOM      7  C   UNL     1      -1.084   7.090   1.845  0.00  0.00    +0.174 C 
ATOM      8  O   UNL     1      -1.423   7.594   2.897  0.00  0.00    -0.292 OA
ATOM      9  C   UNL     1      -0.729   7.934   0.634  0.00  0.00    +0.129 C 
ATOM     10  C   UNL     1       0.488   7.279  -0.035  0.00  0.00    +0.211 C 
ATOM     11  O   UNL     1       0.160   5.939  -0.402  0.00  0.00    -0.483 OA
ENDROOT
BRANCH  10  12
ATOM     12  C   UNL     1       0.866   8.060  -1.267  0.00  0.00    -0.007 A 
ATOM     13  C   UNL     1       0.165   7.875  -2.444  0.00  0.00    +0.007 A 
ATOM     14  C   UNL     1       0.508   8.595  -3.573  0.00  0.00    +0.000 A 
ATOM     15  C   UNL     1       1.559   9.492  -3.528  0.00  0.00    +0.000 A 
ATOM     16  C   UNL     1       2.263   9.673  -2.352  0.00  0.00    +0.000 A 
ATOM     17  C   UNL     1       1.916   8.957  -1.222  0.00  0.00    +0.007 A 
ENDBRANCH  10  12
BRANCH   1  19
ATOM     18  C   UNL     1      -0.013   1.086   0.008  0.00  0.00    +0.277 C 
ATOM     19  O   UNL     1      -0.682   1.547   1.184  0.00  0.00    -0.491 OA
ENDBRANCH   1  19
BRANCH   6  20
ATOM     20  O   UNL     1      -1.958   2.553   3.396  0.00  0.00    -0.488 OA
ATOM     21  C   UNL     1      -1.103   2.156   4.470  0.00  0.00    +0.277 C 
ENDBRANCH   6  20
BRANCH   5  22
ATOM     22  O   UNL     1      -2.163   5.275   3.739  0.00  0.00    -0.503 OA
ATOM     23  H   UNL     1      -3.113   5.415   3.619  0.00  0.00    +0.292 HD
ENDBRANCH   5  22
TORSDOF 4
