REMARK  Name = ZINC35513902
REMARK  9 active torsions:
REMARK  status: ('A' for Active; 'I' for Inactive)
REMARK    1  A    between atoms: C_1  and  C_2
REMARK    2  A    between atoms: C_2  and  C_3
REMARK    3  A    between atoms: C_3  and  C_5
REMARK    4  A    between atoms: C_3  and  N_6
REMARK    5  A    between atoms: C_7  and  C_9
REMARK    6  A    between atoms: C_11  and  N_21
REMARK    7  A    between atoms: C_14  and  N_15
REMARK    8  A    between atoms: N_21  and  S_22
REMARK    9  A    between atoms: S_22  and  C_25
REMARK                            x       y       z     vdW  Elec       q    Type
REMARK                         _______ _______ _______ _____ _____    ______ ____
ROOT
ATOM      1  C   UNL     1      -4.078   0.305   2.606  0.00  0.00    +0.078 A 
ATOM      2  C   UNL     1      -3.326   0.455   3.776  0.00  0.00    +0.044 A 
ATOM      3  C   UNL     1      -3.986   0.825   4.941  0.00  0.00    +0.093 A 
ATOM      4  C   UNL     1      -5.359   1.033   4.909  0.00  0.00    +0.139 A 
ATOM      5  N   UNL     1      -6.045   0.885   3.792  0.00  0.00    -0.238 NA
ATOM      6  C   UNL     1      -5.462   0.539   2.655  0.00  0.00    +0.133 A 
ENDROOT
BRANCH   6   7
ATOM      7  N   UNL     1      -6.224   0.401   1.506  0.00  0.00    -0.318 N 
ATOM      8  C   UNL     1      -6.917  -0.861   1.205  0.00  0.00    +0.087 C 
ATOM      9  C   UNL     1      -8.381  -0.546   0.879  0.00  0.00    -0.063 C 
ATOM     10  N   UNL     1      -8.438   0.449  -0.199  0.00  0.00    +0.381 N 
ATOM     11  C   UNL     1      -7.854   1.716   0.259  0.00  0.00    -0.063 C 
ATOM     12  C   UNL     1      -6.369   1.515   0.556  0.00  0.00    +0.087 C 
ATOM     13  H   UNL     1      -7.921   0.110  -0.996  0.00  0.00    -0.086 HD
ATOM     14  H   UNL     1      -9.400   0.600  -0.464  0.00  0.00    -0.086 HD
ENDBRANCH   6   7
BRANCH   1  16
ATOM     15  N   UNL     1      -2.087  -0.193   1.278  0.00  0.00    -0.309 N 
ATOM     16  C   UNL     1      -3.429  -0.086   1.341  0.00  0.00    +0.248 C 
ATOM     17  O   UNL     1      -4.104  -0.313   0.356  0.00  0.00    -0.270 OA
ATOM     18  H   UNL     1      -1.548  -0.012   2.065  0.00  0.00    +0.149 HD
BRANCH  15  19
ATOM     19  C   UNL     1      -1.441  -0.581   0.022  0.00  0.00    +0.070 C 
ATOM     20  C   UNL     1      -1.421  -2.107  -0.090  0.00  0.00    +0.028 C 
BRANCH  19  22
ATOM     21  C   UNL     1      -0.031   1.481  -0.014  0.00  0.00    +0.005 C 
ATOM     22  C   UNL     1      -0.007  -0.049  -0.001  0.00  0.00    +0.018 C 
ENDBRANCH  19  22
ENDBRANCH  15  19
ENDBRANCH   1  16
BRANCH   3  23
ATOM     23  N   UNL     1      -3.274   0.986   6.136  0.00  0.00    -0.096 NA
BRANCH  23  24
ATOM     24  S   UNL     1      -4.069   1.428   7.520  0.00  0.00    +0.092 S 
ATOM     25  O   UNL     1      -4.551   2.748   7.308  0.00  0.00    -0.148 OA
ATOM     26  O   UNL     1      -4.929   0.348   7.857  0.00  0.00    -0.148 OA
BRANCH  24  27
ATOM     27  C   UNL     1      -2.865   1.532   8.803  0.00  0.00    +0.110 A 
ATOM     28  C   UNL     1      -2.571   0.418   9.566  0.00  0.00    +0.030 A 
ATOM     29  C   UNL     1      -1.626   0.498  10.571  0.00  0.00    +0.017 A 
ATOM     30  C   UNL     1      -0.975   1.695  10.814  0.00  0.00    +0.018 A 
ATOM     31  C   UNL     1      -1.270   2.809  10.050  0.00  0.00    +0.017 A 
ATOM     32  C   UNL     1      -2.211   2.726   9.041  0.00  0.00    +0.030 A 
ATOM     33 BR   UNL     1       0.317   1.806  12.190  0.00  0.00    -0.050 Br
ENDBRANCH  24  27
ENDBRANCH  23  24
ENDBRANCH   3  23
TORSDOF 7
