REMARK  Name = ZINC15799362
REMARK  4 active torsions:
REMARK  status: ('A' for Active; 'I' for Inactive)
REMARK    1  A    between atoms: C_5  and  C_7
REMARK    2  A    between atoms: C_7  and  N_8
REMARK    3  A    between atoms: C_10  and  C_17
REMARK    4  A    between atoms: N_24  and  C_27
REMARK                            x       y       z     vdW  Elec       q    Type
REMARK                         _______ _______ _______ _____ _____    ______ ____
ROOT
ATOM      1  C   UNL     1       3.740  -2.416   0.138  0.00  0.00    +0.028 C 
ATOM      2  C   UNL     1       3.482  -1.339   0.977  0.00  0.00    +0.100 C 
ATOM      3  C   UNL     1       4.390  -0.994   2.085  0.00  0.00    +0.257 C 
ATOM      4  O   UNL     1       5.395  -1.646   2.296  0.00  0.00    -0.270 OA
ATOM      5  N   UNL     1       4.076   0.066   2.859  0.00  0.00    -0.235 N 
ATOM      6  C   UNL     1       2.972   0.792   2.638  0.00  0.00    +0.320 C 
ATOM      7  O   UNL     1       2.746   1.735   3.372  0.00  0.00    -0.251 OA
ATOM      8  N   UNL     1       2.103   0.535   1.649  0.00  0.00    -0.190 N 
ATOM      9  C   UNL     1       2.287  -0.497   0.800  0.00  0.00    +0.263 C 
ATOM     10  O   UNL     1       1.489  -0.723  -0.090  0.00  0.00    -0.269 OA
ATOM     11  H   UNL     1       4.663   0.307   3.593  0.00  0.00    +0.159 HD
ENDROOT
BRANCH   1  14
ATOM     12  N   UNL     1       7.167  -3.481   0.361  0.00  0.00    -0.342 N 
ATOM     13  C   UNL     1       6.233  -2.515   0.304  0.00  0.00    +0.095 A 
ATOM     14  C   UNL     1       4.976  -3.089   0.215  0.00  0.00    +0.001 A 
ATOM     15  C   UNL     1       5.194  -4.550   0.211  0.00  0.00    +0.007 A 
ATOM     16  C   UNL     1       6.582  -4.731   0.305  0.00  0.00    +0.050 A 
ATOM     17  C   UNL     1       7.101  -6.022   0.323  0.00  0.00    +0.026 A 
ATOM     18  C   UNL     1       6.252  -7.106   0.250  0.00  0.00    +0.002 A 
ATOM     19  C   UNL     1       4.880  -6.924   0.158  0.00  0.00    +0.001 A 
ATOM     20  C   UNL     1       4.348  -5.652   0.139  0.00  0.00    +0.010 A 
BRANCH  12  21
ATOM     21  C   UNL     1       8.608  -3.240   0.463  0.00  0.00    +0.158 C 
BRANCH  21  26
ATOM     22  C   UNL     1      10.344  -4.445  -2.666  0.00  0.00    +0.000 A 
ATOM     23  C   UNL     1      10.343  -3.301  -3.441  0.00  0.00    +0.001 A 
ATOM     24  C   UNL     1       9.780  -2.136  -2.954  0.00  0.00    +0.020 A 
ATOM     25  C   UNL     1       9.217  -2.116  -1.690  0.00  0.00    +0.046 A 
ATOM     26  C   UNL     1       9.220  -3.262  -0.914  0.00  0.00    -0.009 A 
ATOM     27  C   UNL     1       9.788  -4.424  -1.400  0.00  0.00    +0.007 A 
ATOM     28 CL   UNL     1       8.510  -0.654  -1.077  0.00  0.00    -0.083 Cl
ENDBRANCH  21  26
ENDBRANCH  12  21
ENDBRANCH   1  14
BRANCH   8  29
ATOM     29  C   UNL     1       0.975   1.355   1.498  0.00  0.00    +0.049 A 
ATOM     30  C   UNL     1       0.840   2.149   0.368  0.00  0.00    +0.028 A 
ATOM     31  C   UNL     1      -0.269   2.960   0.220  0.00  0.00    +0.051 A 
ATOM     32  C   UNL     1      -1.254   2.975   1.194  0.00  0.00    +0.166 A 
ATOM     33  C   UNL     1      -1.122   2.179   2.329  0.00  0.00    +0.168 A 
ATOM     34  C   UNL     1      -0.007   1.371   2.479  0.00  0.00    +0.073 A 
ATOM     35  O   UNL     1      -2.210   2.377   3.129  0.00  0.00    -0.453 OA
ATOM     36  C   UNL     1      -3.203   2.989   2.285  0.00  0.00    +0.466 C 
ATOM     37  O   UNL     1      -2.426   3.671   1.283  0.00  0.00    -0.453 OA
ENDBRANCH   8  29
TORSDOF 4
