REMARK  Name = ZINC02997539
REMARK  7 active torsions:
REMARK  status: ('A' for Active; 'I' for Inactive)
REMARK    1  A    between atoms: C_1  and  C_2
REMARK    2  A    between atoms: C_2  and  N_3
REMARK    3  A    between atoms: N_3  and  C_4
REMARK    4  A    between atoms: C_4  and  C_5
REMARK    5  A    between atoms: C_6  and  C_8
REMARK    6  A    between atoms: C_8  and  N_9
REMARK    7  A    between atoms: N_29  and  C_30
REMARK                            x       y       z     vdW  Elec       q    Type
REMARK                         _______ _______ _______ _____ _____    ______ ____
ROOT
ATOM      1  N   UNL     1      -0.270   2.453   0.974  0.00  0.00    -0.259 N 
ATOM      2  C   UNL     1      -1.336   1.619   1.257  0.00  0.00    +0.044 A 
ATOM      3  C   UNL     1      -1.827   0.532   0.530  0.00  0.00    +0.024 A 
ATOM      4  C   UNL     1      -2.924  -0.136   1.053  0.00  0.00    +0.002 A 
ATOM      5  C   UNL     1      -3.515   0.247   2.240  0.00  0.00    +0.001 A 
ATOM      6  C   UNL     1      -3.035   1.327   2.972  0.00  0.00    +0.010 A 
ATOM      7  C   UNL     1      -1.945   1.996   2.460  0.00  0.00    +0.025 A 
ATOM      8  C   UNL     1      -1.177   3.177   2.967  0.00  0.00    +0.212 C 
ATOM      9  C   UNL     1      -0.099   3.395   1.925  0.00  0.00    +0.267 C 
ATOM     10  O   UNL     1       0.756   4.256   1.941  0.00  0.00    -0.271 OA
ATOM     11  N   UNL     1      -2.035   4.361   3.049  0.00  0.00    -0.311 N 
ATOM     12  H   UNL     1      -2.037   5.018   2.335  0.00  0.00    +0.149 HD
ATOM     13  C   UNL     1      -2.847   4.528   4.165  0.00  0.00    +0.041 A 
ATOM     14  C   UNL     1      -4.035   5.238   4.101  0.00  0.00    +0.024 A 
ATOM     15  C   UNL     1      -4.803   5.391   5.239  0.00  0.00    +0.002 A 
ATOM     16  C   UNL     1      -4.395   4.840   6.443  0.00  0.00    +0.001 A 
ATOM     17  C   UNL     1      -3.218   4.126   6.524  0.00  0.00    +0.015 A 
ATOM     18  C   UNL     1      -2.436   3.959   5.382  0.00  0.00    +0.058 A 
ATOM     19  C   UNL     1      -1.185   3.181   5.414  0.00  0.00    +0.255 C 
ATOM     20  O   UNL     1      -0.721   2.809   6.475  0.00  0.00    -0.269 OA
ATOM     21  N   UNL     1      -0.559   2.886   4.257  0.00  0.00    -0.234 N 
ENDROOT
BRANCH  21  22
ATOM     22  C   UNL     1       0.706   2.290   4.293  0.00  0.00    +0.039 A 
ATOM     23  C   UNL     1       0.830   0.913   4.166  0.00  0.00    +0.023 A 
ATOM     24  C   UNL     1       2.081   0.328   4.198  0.00  0.00    +0.002 A 
ATOM     25  C   UNL     1       3.208   1.111   4.366  0.00  0.00    +0.000 A 
ATOM     26  C   UNL     1       3.087   2.482   4.498  0.00  0.00    +0.002 A 
ATOM     27  C   UNL     1       1.840   3.074   4.462  0.00  0.00    +0.023 A 
ENDBRANCH  21  22
BRANCH   1  28
ATOM     28  C   UNL     1       0.578   2.325  -0.214  0.00  0.00    +0.209 C 
BRANCH  28  30
ATOM     29  N   UNL     1       0.615   3.185  -2.533  0.00  0.00    -0.301 N 
ATOM     30  C   UNL     1      -0.001   3.150  -1.335  0.00  0.00    +0.233 C 
ATOM     31  O   UNL     1      -1.020   3.783  -1.158  0.00  0.00    -0.274 OA
BRANCH  29  33
ATOM     32  C   UNL     1       1.497   1.020  -3.253  0.00  0.00    +0.024 C 
ATOM     33  C   UNL     1       1.847   2.421  -2.746  0.00  0.00    +0.104 C 
ENDBRANCH  29  33
BRANCH  29  34
ATOM     34  C   UNL     1       0.053   3.987  -3.622  0.00  0.00    +0.104 C 
ATOM     35  C   UNL     1       0.636   5.400  -3.568  0.00  0.00    +0.024 C 
ENDBRANCH  29  34
ENDBRANCH  28  30
ENDBRANCH   1  28
TORSDOF 5
