REMARK  Name = ZINC03569159
REMARK  9 active torsions:
REMARK  status: ('A' for Active; 'I' for Inactive)
REMARK    1  A    between atoms: C_1  and  C_2
REMARK    2  A    between atoms: C_3  and  C_25
REMARK    3  A    between atoms: N_9  and  C_24
REMARK    4  A    between atoms: C_10  and  S_12
REMARK    5  A    between atoms: S_12  and  C_13
REMARK    6  A    between atoms: C_13  and  C_14
REMARK    7  A    between atoms: C_14  and  C_16
REMARK    8  A    between atoms: C_19  and  O_23
REMARK    9  A    between atoms: C_21  and  O_22
REMARK                            x       y       z     vdW  Elec       q    Type
REMARK                         _______ _______ _______ _____ _____    ______ ____
ROOT
ATOM      1  S   UNL     1       7.368   4.361   0.978  0.00  0.00    -0.080 S 
ENDROOT
BRANCH   1  11
ATOM      2  C   UNL     1      10.391   5.702   7.104  0.00  0.00    +0.045 C 
ATOM      3  C   UNL     1       9.091   5.105   6.629  0.00  0.00    -0.026 A 
ATOM      4  C   UNL     1       8.178   4.676   7.513  0.00  0.00    -0.008 A 
ATOM      5  S   UNL     1       6.855   4.073   6.482  0.00  0.00    -0.073 S 
ATOM      6  C   UNL     1       7.566   4.416   4.892  0.00  0.00    +0.117 A 
ATOM      7  C   UNL     1       8.812   4.989   5.208  0.00  0.00    +0.075 A 
ATOM      8  C   UNL     1       9.621   5.373   4.092  0.00  0.00    +0.263 A 
ATOM      9  O   UNL     1      10.717   5.877   4.268  0.00  0.00    -0.267 OA
ATOM     10  N   UNL     1       9.157   5.169   2.845  0.00  0.00    -0.290 N 
ATOM     11  C   UNL     1       7.933   4.606   2.629  0.00  0.00    +0.173 A 
ATOM     12  N   UNL     1       7.165   4.248   3.638  0.00  0.00    -0.216 NA
ATOM     13  C   UNL     1       9.981   5.560   1.699  0.00  0.00    +0.154 C 
ATOM     14  C   UNL     1       8.254   4.696   9.018  0.00  0.00    +0.052 C 
ENDBRANCH   1  11
BRANCH   1  15
ATOM     15  C   UNL     1       5.753   3.612   1.306  0.00  0.00    +0.157 C 
BRANCH  15  16
ATOM     16  C   UNL     1       5.066   3.308  -0.001  0.00  0.00    +0.177 C 
ATOM     17  O   UNL     1       5.615   3.571  -1.051  0.00  0.00    -0.291 OA
BRANCH  16  18
ATOM     18  C   UNL     1       3.736   2.694  -0.003  0.00  0.00    +0.060 A 
ATOM     19  C   UNL     1       3.100   2.388   1.207  0.00  0.00    +0.018 A 
ATOM     20  C   UNL     1       1.859   1.821   1.202  0.00  0.00    +0.046 A 
ATOM     21  C   UNL     1       1.221   1.532  -0.001  0.00  0.00    +0.120 A 
ATOM     22  C   UNL     1       1.836   1.827  -1.209  0.00  0.00    +0.091 A 
ATOM     23  C   UNL     1       3.092   2.408  -1.221  0.00  0.00    +0.131 A 
BRANCH  23  24
ATOM     24  O   UNL     1       3.699   2.699  -2.398  0.00  0.00    -0.506 OA
ATOM     25  H   UNL     1       3.192   2.474  -3.348  0.00  0.00    +0.292 HD
ENDBRANCH  23  24
BRANCH  21  26
ATOM     26  O   UNL     1      -0.011   0.963   0.007  0.00  0.00    -0.507 OA
ATOM     27  H   UNL     1      -0.517   0.733  -0.942  0.00  0.00    +0.292 HD
ENDBRANCH  21  26
ENDBRANCH  16  18
ENDBRANCH  15  16
ENDBRANCH   1  15
TORSDOF 6
