REMARK  Name = ZINC63221447
REMARK  6 active torsions:
REMARK  status: ('A' for Active; 'I' for Inactive)
REMARK    1  A    between atoms: C_1  and  C_2
REMARK    2  A    between atoms: C_4  and  C_12
REMARK    3  A    between atoms: C_12  and  C_13
REMARK    4  A    between atoms: C_13  and  N_14
REMARK    5  A    between atoms: N_14  and  S_15
REMARK    6  A    between atoms: S_15  and  C_18
REMARK                            x       y       z     vdW  Elec       q    Type
REMARK                         _______ _______ _______ _____ _____    ______ ____
ROOT
ATOM      1  N   UNL     1       0.998  -0.729  -4.977  0.00  0.00    -0.190 NA
ATOM      2  H   UNL     1       0.115  -0.395  -5.198  0.00  0.00    +0.148 HD
ENDROOT
BRANCH   1   3
ATOM      3  S   UNL     1       2.093  -1.034  -6.181  0.00  0.00    +0.058 S 
ATOM      4  O   UNL     1       1.440  -0.739  -7.409  0.00  0.00    -0.153 OA
ATOM      5  O   UNL     1       3.308  -0.407  -5.795  0.00  0.00    -0.153 OA
BRANCH   3   6
ATOM      6  C   UNL     1       2.400  -2.769  -6.179  0.00  0.00    +0.106 A 
ATOM      7  C   UNL     1       3.419  -3.288  -5.393  0.00  0.00    +0.032 A 
ATOM      8  C   UNL     1       3.675  -4.643  -5.377  0.00  0.00    +0.049 A 
ATOM      9  C   UNL     1       2.906  -5.500  -6.154  0.00  0.00    +0.139 A 
ATOM     10  C   UNL     1       1.874  -4.972  -6.949  0.00  0.00    +0.019 A 
ATOM     11  C   UNL     1       1.628  -3.595  -6.947  0.00  0.00    +0.040 A 
ATOM     12  C   UNL     1       1.068  -5.884  -7.766  0.00  0.00    +0.018 A 
ATOM     13  C   UNL     1       1.355  -7.209  -7.719  0.00  0.00    +0.092 A 
ATOM     14  C   UNL     1       2.406  -7.671  -6.897  0.00  0.00    +0.337 A 
ATOM     15  O   UNL     1       2.654  -8.863  -6.864  0.00  0.00    -0.245 OA
ATOM     16  O   UNL     1       3.140  -6.830  -6.152  0.00  0.00    -0.422 OA
ENDBRANCH   3   6
ENDBRANCH   1   3
BRANCH   1  17
ATOM     17  C   UNL     1       1.364  -0.963  -3.578  0.00  0.00    +0.110 C 
BRANCH  17  18
ATOM     18  C   UNL     1       0.353  -0.268  -2.664  0.00  0.00    +0.050 C 
BRANCH  18  21
ATOM     19  C   UNL     1      -0.019   1.526   0.010  0.00  0.00    +0.035 C 
ATOM     20  C   UNL     1       0.002  -0.004   0.002  0.00  0.00    +0.103 C 
ATOM     21  C   UNL     1       0.729  -0.509  -1.224  0.00  0.00    -0.037 C 
ATOM     22  C   UNL     1       1.785  -1.220  -0.768  0.00  0.00    -0.001 A 
ATOM     23  C   UNL     1       2.858  -1.954  -1.449  0.00  0.00    +0.010 A 
ATOM     24  C   UNL     1       3.797  -2.583  -0.705  0.00  0.00    +0.001 A 
ATOM     25  C   UNL     1       3.770  -2.551   0.696  0.00  0.00    +0.002 A 
ATOM     26  C   UNL     1       2.817  -1.897   1.393  0.00  0.00    +0.026 A 
ATOM     27  C   UNL     1       1.780  -1.201   0.712  0.00  0.00    +0.043 A 
ATOM     28  N   UNL     1       0.758  -0.506   1.155  0.00  0.00    -0.378 N 
ATOM     29  H   UNL     1       0.540  -0.349   2.087  0.00  0.00    +0.160 HD
ENDBRANCH  18  21
ENDBRANCH  17  18
ENDBRANCH   1  17
TORSDOF 5
