REMARK  Name = ZINC20609437
REMARK  11 active torsions:
REMARK  status: ('A' for Active; 'I' for Inactive)
REMARK    1  A    between atoms: C_1  and  C_2
REMARK    2  A    between atoms: C_2  and  O_3
REMARK    3  A    between atoms: O_3  and  C_4
REMARK    4  A    between atoms: C_4  and  C_6
REMARK    5  A    between atoms: C_7  and  N_29
REMARK    6  A    between atoms: C_16  and  C_22
REMARK    7  A    between atoms: C_17  and  C_21
REMARK    8  A    between atoms: C_22  and  O_24
REMARK    9  A    between atoms: O_24  and  C_25
REMARK   10  A    between atoms: C_25  and  C_26
REMARK   11  A    between atoms: C_25  and  C_27
REMARK                            x       y       z     vdW  Elec       q    Type
REMARK                         _______ _______ _______ _____ _____    ______ ____
ROOT
ATOM      1  C   UNL     1      -0.830   3.592   3.950  0.00  0.00    +0.098 C 
ATOM      2  C   UNL     1      -1.107   4.889   4.305  0.00  0.00    +0.097 C 
ATOM      3  N   UNL     1      -2.182   5.546   3.768  0.00  0.00    -0.302 N 
ATOM      4  C   UNL     1      -3.213   4.828   3.155  0.00  0.00    +0.037 A 
ATOM      5  C   UNL     1      -4.447   5.432   2.948  0.00  0.00    +0.024 A 
ATOM      6  C   UNL     1      -5.469   4.726   2.347  0.00  0.00    +0.017 A 
ATOM      7  C   UNL     1      -5.264   3.416   1.950  0.00  0.00    +0.018 A 
ATOM      8  C   UNL     1      -4.036   2.813   2.153  0.00  0.00    +0.022 A 
ATOM      9  C   UNL     1      -3.006   3.515   2.753  0.00  0.00    +0.001 A 
ATOM     10  C   UNL     1      -1.677   2.850   2.964  0.00  0.00    +0.164 C 
ATOM     11  C   UNL     1      -0.944   2.709   1.647  0.00  0.00    +0.100 C 
ATOM     12  C   UNL     1      -0.800   1.387   1.452  0.00  0.00    +0.117 C 
ATOM     13  O   UNL     1      -1.321   0.658   2.446  0.00  0.00    -0.429 OA
ATOM     14  C   UNL     1      -1.874   1.417   3.409  0.00  0.00    +0.332 C 
ATOM     15  O   UNL     1      -2.415   1.034   4.419  0.00  0.00    -0.249 OA
ATOM     16  C   UNL     1      -0.120   0.790   0.246  0.00  0.00    +0.087 C 
ATOM     17 BR   UNL     1      -6.665   2.449   1.127  0.00  0.00    -0.050 Br
ATOM     18  H   UNL     1      -2.237   6.644   3.818  0.00  0.00    +0.153 HD
ENDROOT
BRANCH   2  19
ATOM     19  N   UNL     1      -0.299   5.533   5.205  0.00  0.00    -0.346 N 
ATOM     20  H   UNL     1      -0.516   6.572   5.494  0.00  0.00    +0.143 HD
ATOM     21  H   UNL     1       0.566   5.011   5.640  0.00  0.00    +0.143 HD
ENDBRANCH   2  19
BRANCH   1  22
ATOM     22  C   UNL     1       0.272   2.948   4.525  0.00  0.00    +0.340 C 
ATOM     23  O   UNL     1       1.309   2.838   3.895  0.00  0.00    -0.245 OA
BRANCH  22  24
ATOM     24  O   UNL     1       0.185   2.449   5.777  0.00  0.00    -0.462 OA
BRANCH  24  26
ATOM     25  C   UNL     1       1.061   1.307   7.718  0.00  0.00    +0.048 C 
ATOM     26  C   UNL     1       1.348   1.804   6.300  0.00  0.00    +0.229 C 
ENDBRANCH  24  26
ENDBRANCH  22  24
ENDBRANCH   1  22
BRANCH  11  27
ATOM     27  C   UNL     1      -0.504   3.753   0.796  0.00  0.00    +0.340 C 
ATOM     28  O   UNL     1       0.075   3.490  -0.241  0.00  0.00    -0.245 OA
BRANCH  27  29
ATOM     29  O   UNL     1      -0.726   5.040   1.136  0.00  0.00    -0.459 OA
BRANCH  29  30
ATOM     30  C   UNL     1      -0.255   6.041   0.232  0.00  0.00    +0.171 C 
ATOM     31  C   UNL     1      -1.159   7.272   0.318  0.00  0.00    +0.052 C 
ATOM     32  C   UNL     1       1.176   6.432   0.604  0.00  0.00    +0.052 C 
ENDBRANCH  29  30
ENDBRANCH  27  29
ENDBRANCH  11  27
TORSDOF 7
