REMARK  Name = ZINC44989345
REMARK  5 active torsions:
REMARK  status: ('A' for Active; 'I' for Inactive)
REMARK    1  A    between atoms: C_1  and  C_2
REMARK    2  A    between atoms: C_2  and  C_4
REMARK    3  A    between atoms: C_2  and  N_14
REMARK    4  A    between atoms: C_4  and  N_5
REMARK    5  A    between atoms: C_7  and  N_13
REMARK                            x       y       z     vdW  Elec       q    Type
REMARK                         _______ _______ _______ _____ _____    ______ ____
ROOT
ATOM      1  N   UNL     1      -1.079  -2.233  -0.232  0.00  0.00    -0.329 N 
ATOM      2  C   UNL     1      -2.133  -3.123  -0.424  0.00  0.00    +0.140 A 
ATOM      3  C   UNL     1      -1.870  -4.487  -0.575  0.00  0.00    +0.066 A 
ATOM      4  C   UNL     1      -2.932  -5.361  -0.766  0.00  0.00    +0.043 A 
ATOM      5  C   UNL     1      -4.219  -4.839  -0.799  0.00  0.00    +0.038 A 
ATOM      6  C   UNL     1      -4.403  -3.480  -0.643  0.00  0.00    +0.128 A 
ATOM      7  N   UNL     1      -3.375  -2.671  -0.457  0.00  0.00    -0.238 NA
ATOM      8 BR   UNL     1      -5.705  -5.980  -1.056  0.00  0.00    -0.049 Br
ATOM      9  H   UNL     1      -0.166  -2.561  -0.208  0.00  0.00    +0.147 HD
ENDROOT
BRANCH   3  10
ATOM     10  N   UNL     1      -0.554  -4.966  -0.535  0.00  0.00    -0.355 N 
ATOM     11  H   UNL     1       0.182  -4.349  -0.402  0.00  0.00    +0.142 HD
ATOM     12  H   UNL     1      -0.380  -5.915  -0.641  0.00  0.00    +0.142 HD
ENDBRANCH   3  10
BRANCH   1  13
ATOM     13  C   UNL     1      -1.348  -0.803  -0.068  0.00  0.00    +0.087 C 
BRANCH  13  15
ATOM     14  C   UNL     1      -0.340   1.406   0.522  0.00  0.00    -0.012 C 
ATOM     15  C   UNL     1      -0.044  -0.072   0.259  0.00  0.00    -0.054 C 
BRANCH  15  16
ATOM     16  N   UNL     1       0.566  -0.670   1.454  0.00  0.00    +0.382 N 
ATOM     17  C   UNL     1      -0.304  -0.440   2.613  0.00  0.00    -0.078 C 
ATOM     18  C   UNL     1       0.287  -1.130   3.844  0.00  0.00    -0.019 C 
ATOM     19  C   UNL     1       1.678  -0.555   4.126  0.00  0.00    -0.004 C 
ATOM     20  C   UNL     1       2.555  -0.734   2.883  0.00  0.00    -0.019 C 
ATOM     21  C   UNL     1       1.880  -0.059   1.688  0.00  0.00    -0.078 C 
ATOM     22  H   UNL     1       0.679  -1.662   1.312  0.00  0.00    -0.081 HD
ENDBRANCH  15  16
ENDBRANCH  13  15
ENDBRANCH   1  13
TORSDOF 4
