REMARK  Name = ZINC21259055
REMARK  8 active torsions:
REMARK  status: ('A' for Active; 'I' for Inactive)
REMARK    1  A    between atoms: C_1  and  C_2
REMARK    2  A    between atoms: C_2  and  C_3
REMARK    3  A    between atoms: C_2  and  O_4
REMARK    4  A    between atoms: O_4  and  C_5
REMARK    5  A    between atoms: C_10  and  C_11
REMARK    6  A    between atoms: C_16  and  C_21
REMARK    7  A    between atoms: C_25  and  O_27
REMARK    8  A    between atoms: O_27  and  C_28
REMARK                            x       y       z     vdW  Elec       q    Type
REMARK                         _______ _______ _______ _____ _____    ______ ____
ROOT
ATOM      1  C   UNL     1      -0.011   1.502   0.030  0.00  0.00    +0.139 C 
ATOM      2  C   UNL     1       1.414   1.999  -0.047  0.00  0.00    +0.037 C 
ATOM      3  C   UNL     1       1.978   2.615  -1.098  0.00  0.00    +0.017 C 
ATOM      4  C   UNL     1       3.439   3.034  -1.050  0.00  0.00    +0.059 C 
ATOM      5  C   UNL     1       3.822   3.422   0.377  0.00  0.00    +0.032 C 
ATOM      6  C   UNL     1       3.592   2.199   1.272  0.00  0.00    +0.088 C 
ATOM      7  C   UNL     1       2.164   1.765   1.130  0.00  0.00    +0.163 C 
ATOM      8  O   UNL     1       1.630   1.193   2.060  0.00  0.00    -0.292 OA
ATOM      9  N   UNL     1       1.345   2.917  -2.261  0.00  0.00    -0.316 N 
ATOM     10  C   UNL     1       0.543   2.036  -2.980  0.00  0.00    +0.052 A 
ATOM     11  C   UNL     1       0.868   1.613  -4.256  0.00  0.00    +0.025 A 
ATOM     12  C   UNL     1       0.000   0.774  -4.935  0.00  0.00    +0.002 A 
ATOM     13  C   UNL     1      -1.181   0.366  -4.341  0.00  0.00    +0.002 A 
ATOM     14  C   UNL     1      -1.497   0.774  -3.057  0.00  0.00    +0.025 A 
ATOM     15  C   UNL     1      -0.620   1.596  -2.366  0.00  0.00    +0.049 A 
ATOM     16  N   UNL     1      -0.862   1.967  -1.045  0.00  0.00    -0.331 N 
ATOM     17  H   UNL     1       1.447   3.922  -2.698  0.00  0.00    +0.152 HD
ATOM     18  H   UNL     1      -1.716   2.624  -0.826  0.00  0.00    +0.147 HD
ENDROOT
BRANCH   1  24
ATOM     19  C   UNL     1      -1.115  -0.716   0.413  0.00  0.00    +0.126 A 
ATOM     20  C   UNL     1      -1.097  -2.103   0.394  0.00  0.00    +0.046 A 
ATOM     21  C   UNL     1       0.035  -2.772  -0.027  0.00  0.00    +0.004 A 
ATOM     22  C   UNL     1       1.151  -2.060  -0.428  0.00  0.00    +0.001 A 
ATOM     23  C   UNL     1       1.134  -0.678  -0.414  0.00  0.00    +0.009 A 
ATOM     24  C   UNL     1       0.005  -0.004   0.010  0.00  0.00    +0.019 A 
BRANCH  19  25
ATOM     25  O   UNL     1      -2.229  -0.055   0.826  0.00  0.00    -0.489 OA
BRANCH  25  27
ATOM     26  C   UNL     1      -4.152  -0.003   2.288  0.00  0.00    +0.051 C 
ATOM     27  C   UNL     1      -3.301  -0.849   1.339  0.00  0.00    +0.167 C 
ATOM     28  C   UNL     1      -4.169  -1.344   0.181  0.00  0.00    +0.051 C 
ENDBRANCH  25  27
ENDBRANCH  19  25
ENDBRANCH   1  24
BRANCH   5  29
ATOM     29  C   UNL     1       5.273   3.826   0.426  0.00  0.00    -0.040 A 
ATOM     30  C   UNL     1       6.252   2.933   0.029  0.00  0.00    +0.004 A 
ATOM     31  C   UNL     1       7.583   3.302   0.068  0.00  0.00    +0.004 A 
ATOM     32  C   UNL     1       7.940   4.560   0.514  0.00  0.00    +0.045 A 
ATOM     33  C   UNL     1       6.961   5.455   0.918  0.00  0.00    +0.120 A 
ATOM     34  C   UNL     1       5.625   5.085   0.873  0.00  0.00    +0.049 A 
BRANCH  33  35
ATOM     35  O   UNL     1       7.309   6.693   1.358  0.00  0.00    -0.495 OA
ATOM     36  C   UNL     1       8.704   7.006   1.377  0.00  0.00    +0.277 C 
ENDBRANCH  33  35
ENDBRANCH   5  29
TORSDOF 5
