REMARK  Name = ZINC05286280
REMARK  4 active torsions:
REMARK  status: ('A' for Active; 'I' for Inactive)
REMARK    1  A    between atoms: C_4  and  C_7
REMARK    2  A    between atoms: C_7  and  N_24
REMARK    3  A    between atoms: C_8  and  C_9
REMARK    4  A    between atoms: C_8  and  N_15
REMARK                            x       y       z     vdW  Elec       q    Type
REMARK                         _______ _______ _______ _____ _____    ______ ____
ROOT
ATOM      1  C   UNL     1       3.722  -0.643   0.155  0.00  0.00    +0.058 C 
ATOM      2  C   UNL     1       3.734  -1.996   0.069  0.00  0.00    +0.096 C 
ENDROOT
BRANCH   2   3
ATOM      3  N   UNL     1       4.952  -2.686   0.047  0.00  0.00    -0.210 N 
ATOM      4  C   UNL     1       5.429  -3.486  -0.967  0.00  0.00    +0.095 A 
ATOM      5  C   UNL     1       4.936  -3.867  -2.210  0.00  0.00    +0.030 A 
ATOM      6  C   UNL     1       5.673  -4.698  -3.007  0.00  0.00    +0.002 A 
ATOM      7  C   UNL     1       6.911  -5.166  -2.587  0.00  0.00    +0.002 A 
ATOM      8  C   UNL     1       7.417  -4.807  -1.372  0.00  0.00    +0.032 A 
ATOM      9  C   UNL     1       6.682  -3.956  -0.535  0.00  0.00    +0.113 A 
ATOM     10  N   UNL     1       6.913  -3.440   0.688  0.00  0.00    -0.129 NA
ATOM     11  N   UNL     1       5.931  -2.694   1.052  0.00  0.00    -0.060 NA
ENDBRANCH   2   3
BRANCH   1  15
ATOM     12  C   UNL     1       0.038   1.425   0.568  0.00  0.00    +0.000 A 
ATOM     13  C   UNL     1       0.962   1.846  -0.372  0.00  0.00    +0.001 A 
ATOM     14  C   UNL     1       2.161   1.179  -0.512  0.00  0.00    +0.010 A 
ATOM     15  C   UNL     1       2.442   0.076   0.299  0.00  0.00    -0.002 A 
ATOM     16  C   UNL     1       1.504  -0.342   1.246  0.00  0.00    +0.010 A 
ATOM     17  C   UNL     1       0.309   0.334   1.375  0.00  0.00    +0.001 A 
ENDBRANCH   1  15
BRANCH   2  18
ATOM     18  C   UNL     1       2.463  -2.742  -0.002  0.00  0.00    +0.002 A 
ATOM     19  C   UNL     1       2.088  -3.591   1.042  0.00  0.00    +0.010 A 
ATOM     20  C   UNL     1       0.898  -4.285   0.969  0.00  0.00    +0.001 A 
ATOM     21  C   UNL     1       0.076  -4.141  -0.136  0.00  0.00    +0.000 A 
ATOM     22  C   UNL     1       0.442  -3.302  -1.174  0.00  0.00    +0.001 A 
ATOM     23  C   UNL     1       1.626  -2.598  -1.112  0.00  0.00    +0.010 A 
ENDBRANCH   2  18
BRANCH   1  24
ATOM     24  N   UNL     1       4.920   0.069   0.108  0.00  0.00    -0.356 N 
ATOM     25  H   UNL     1       4.920   1.029   0.251  0.00  0.00    +0.142 HD
ATOM     26  H   UNL     1       5.753  -0.395  -0.068  0.00  0.00    +0.142 HD
ENDBRANCH   1  24
TORSDOF 4
