REMARK  Name = ZINC27540742
REMARK  12 active torsions:
REMARK  status: ('A' for Active; 'I' for Inactive)
REMARK    1  A    between atoms: C_1  and  C_2
REMARK    2  A    between atoms: C_2  and  C_4
REMARK    3  A    between atoms: C_2  and  N_19
REMARK    4  A    between atoms: N_6  and  C_7
REMARK    5  A    between atoms: C_8  and  C_17
REMARK    6  A    between atoms: N_19  and  C_20
REMARK    7  A    between atoms: N_19  and  C_21
REMARK    8  A    between atoms: C_21  and  C_22
REMARK    9  A    between atoms: N_24  and  C_25
REMARK   10  A    between atoms: C_25  and  C_26
REMARK   11  A    between atoms: C_25  and  C_27
REMARK   12  A    between atoms: C_25  and  C_28
REMARK                            x       y       z     vdW  Elec       q    Type
REMARK                         _______ _______ _______ _____ _____    ______ ____
ROOT
ATOM      1  C   UNL     1       0.363  -0.280   1.627  0.00  0.00    +0.204 C 
ATOM      2  O   UNL     1      -0.482  -0.808   2.317  0.00  0.00    -0.277 OA
ATOM      3  N   UNL     1       1.580  -0.010   2.141  0.00  0.00    -0.280 N 
ATOM      4  H   UNL     1       2.256   0.413   1.589  0.00  0.00    +0.155 HD
ENDROOT
BRANCH   3   5
ATOM      5  C   UNL     1       1.865  -0.337   3.459  0.00  0.00    +0.090 A 
ATOM      6  C   UNL     1       3.045  -0.131   4.151  0.00  0.00    +0.084 A 
ATOM      7  C   UNL     1       3.094  -0.568   5.539  0.00  0.00    -0.018 A 
ATOM      8  C   UNL     1       1.949  -1.135   5.974  0.00  0.00    -0.004 A 
ATOM      9  S   UNL     1       0.854  -1.065   4.584  0.00  0.00    -0.077 S 
ATOM     10  C   UNL     1       1.668  -1.705   7.330  0.00  0.00    +0.043 C 
ATOM     11  C   UNL     1       2.104  -0.695   8.400  0.00  0.00    +0.005 C 
ATOM     12  C   UNL     1       3.565  -0.956   8.750  0.00  0.00    +0.001 C 
ATOM     13  C   UNL     1       4.322  -1.452   7.520  0.00  0.00    +0.005 C 
ATOM     14  C   UNL     1       4.318  -0.389   6.426  0.00  0.00    +0.037 C 
BRANCH   6  15
ATOM     15  C   UNL     1       4.176   0.486   3.525  0.00  0.00    +0.102 C 
ATOM     16  N   UNL     1       5.073   0.977   3.029  0.00  0.00    -0.191 NA
ENDBRANCH   6  15
ENDBRANCH   3   5
BRANCH   1  18
ATOM     17  C   UNL     1      -0.451   1.518   0.126  0.00  0.00    -0.004 C 
ATOM     18  C   UNL     1       0.054   0.075   0.196  0.00  0.00    +0.017 C 
BRANCH  18  19
ATOM     19  N   UNL     1      -0.980  -0.831  -0.321  0.00  0.00    +0.391 N 
ATOM     20  C   UNL     1      -1.313  -0.458  -1.702  0.00  0.00    -0.094 C 
ATOM     21  H   UNL     1      -1.806  -0.762   0.255  0.00  0.00    -0.080 HD
BRANCH  19  22
ATOM     22  C   UNL     1      -0.479  -2.212  -0.294  0.00  0.00    +0.019 C 
BRANCH  22  23
ATOM     23  C   UNL     1      -1.594  -3.158  -0.657  0.00  0.00    +0.197 C 
ATOM     24  O   UNL     1      -2.697  -2.725  -0.912  0.00  0.00    -0.278 OA
ATOM     25  N   UNL     1      -1.365  -4.486  -0.697  0.00  0.00    -0.312 N 
ATOM     26  H   UNL     1      -0.482  -4.832  -0.492  0.00  0.00    +0.149 HD
BRANCH  25  27
ATOM     27  C   UNL     1      -2.449  -5.406  -1.049  0.00  0.00    +0.026 C 
ATOM     28  C   UNL     1      -2.961  -5.077  -2.453  0.00  0.00    +0.031 C 
ATOM     29  C   UNL     1      -1.927  -6.844  -1.021  0.00  0.00    +0.031 C 
ATOM     30  C   UNL     1      -3.591  -5.258  -0.042  0.00  0.00    +0.031 C 
ENDBRANCH  25  27
ENDBRANCH  22  23
ENDBRANCH  19  22
ENDBRANCH  18  19
ENDBRANCH   1  18
TORSDOF 7
