REMARK  Name = ZINC00823020
REMARK  6 active torsions:
REMARK  status: ('A' for Active; 'I' for Inactive)
REMARK    1  A    between atoms: C_4  and  O_7
REMARK    2  A    between atoms: O_7  and  C_8
REMARK    3  A    between atoms: C_12  and  C_14
REMARK    4  A    between atoms: C_19  and  N_28
REMARK    5  A    between atoms: C_23  and  N_27
REMARK    6  A    between atoms: C_24  and  C_25
REMARK                            x       y       z     vdW  Elec       q    Type
REMARK                         _______ _______ _______ _____ _____    ______ ____
ROOT
ATOM      1  C   UNL     1       1.540  -1.876  -0.024  0.00  0.00    +0.098 C 
ATOM      2  C   UNL     1       1.872  -0.423  -0.242  0.00  0.00    +0.008 A 
ATOM      3  C   UNL     1       3.184  -0.054  -0.486  0.00  0.00    +0.010 A 
ATOM      4  C   UNL     1       3.507   1.273  -0.687  0.00  0.00    +0.023 A 
ATOM      5  C   UNL     1       2.514   2.244  -0.645  0.00  0.00    +0.028 A 
ATOM      6  C   UNL     1       1.199   1.877  -0.401  0.00  0.00    +0.069 A 
ATOM      7  C   UNL     1       0.877   0.541  -0.199  0.00  0.00    +0.136 A 
ATOM      8  O   UNL     1      -0.413   0.198   0.038  0.00  0.00    -0.441 OA
ATOM      9  C   UNL     1      -0.814  -1.071  -0.146  0.00  0.00    +0.199 C 
ATOM     10  C   UNL     1       0.063  -2.101  -0.186  0.00  0.00    +0.098 C 
ENDROOT
BRANCH   1  15
ATOM     11  C   UNL     1       3.281  -3.650   2.822  0.00  0.00    +0.129 A 
ATOM     12  C   UNL     1       2.719  -3.019   3.923  0.00  0.00    +0.046 A 
ATOM     13  C   UNL     1       1.780  -2.023   3.742  0.00  0.00    +0.004 A 
ATOM     14  C   UNL     1       1.400  -1.654   2.465  0.00  0.00    +0.005 A 
ATOM     15  C   UNL     1       1.958  -2.280   1.366  0.00  0.00    -0.031 A 
ATOM     16  C   UNL     1       2.893  -3.281   1.542  0.00  0.00    +0.050 A 
BRANCH  11  17
ATOM     17  O   UNL     1       4.205  -4.631   2.998  0.00  0.00    -0.456 OA
BRANCH  17  21
ATOM     18  C   UNL     1       5.226  -5.661   6.860  0.00  0.00    +0.000 A 
ATOM     19  C   UNL     1       4.182  -6.309   6.226  0.00  0.00    +0.004 A 
ATOM     20  C   UNL     1       3.838  -5.966   4.933  0.00  0.00    +0.046 A 
ATOM     21  C   UNL     1       4.541  -4.971   4.270  0.00  0.00    +0.128 A 
ATOM     22  C   UNL     1       5.592  -4.326   4.906  0.00  0.00    +0.046 A 
ATOM     23  C   UNL     1       5.928  -4.669   6.201  0.00  0.00    +0.004 A 
ENDBRANCH  17  21
ENDBRANCH  11  17
ENDBRANCH   1  15
BRANCH   9  24
ATOM     24  N   UNL     1      -2.154  -1.331  -0.298  0.00  0.00    -0.328 N 
ATOM     25  H   UNL     1      -2.795  -0.603  -0.272  0.00  0.00    +0.145 HD
ATOM     26  H   UNL     1      -2.459  -2.242  -0.432  0.00  0.00    +0.145 HD
ENDBRANCH   9  24
BRANCH   5  27
ATOM     27  N   UNL     1       2.839   3.587  -0.848  0.00  0.00    -0.358 N 
ATOM     28  H   UNL     1       2.145   4.264  -0.819  0.00  0.00    +0.142 HD
ATOM     29  H   UNL     1       3.759   3.843  -1.019  0.00  0.00    +0.142 HD
ENDBRANCH   5  27
BRANCH  10  30
ATOM     30  C   UNL     1      -0.425  -3.432  -0.386  0.00  0.00    +0.101 C 
ATOM     31  N   UNL     1      -0.813  -4.488  -0.544  0.00  0.00    -0.191 NA
ENDBRANCH  10  30
TORSDOF 6
