REMARK  Name = ZINC39672946
REMARK  9 active torsions:
REMARK  status: ('A' for Active; 'I' for Inactive)
REMARK    1  A    between atoms: C_1  and  C_2
REMARK    2  A    between atoms: C_2  and  C_3
REMARK    3  A    between atoms: C_3  and  C_5
REMARK    4  A    between atoms: C_3  and  C_6
REMARK    5  A    between atoms: C_6  and  C_7
REMARK    6  A    between atoms: C_11  and  C_20
REMARK    7  A    between atoms: N_22  and  C_23
REMARK    8  A    between atoms: C_23  and  C_24
REMARK    9  A    between atoms: C_24  and  N_30
REMARK                            x       y       z     vdW  Elec       q    Type
REMARK                         _______ _______ _______ _____ _____    ______ ____
ROOT
ATOM      1  C   UNL     1       1.662  -2.651  -2.572  0.00  0.00    +0.216 C 
ATOM      2  O   UNL     1       2.170  -1.893  -3.371  0.00  0.00    -0.276 OA
ATOM      3  N   UNL     1       1.610  -3.972  -2.835  0.00  0.00    -0.300 N 
ATOM      4  C   UNL     1       1.029  -5.043  -1.993  0.00  0.00    +0.121 C 
ATOM      5  C   UNL     1       0.333  -5.993  -2.993  0.00  0.00    +0.100 C 
ATOM      6  C   UNL     1       1.055  -5.752  -4.330  0.00  0.00    -0.004 C 
ATOM      7  C   UNL     1       2.115  -4.680  -4.036  0.00  0.00    +0.115 C 
ATOM      8  C   UNL     1       1.721  -7.037  -4.810  0.00  0.00    -0.010 C 
ATOM      9  C   UNL     1       2.383  -6.787  -6.168  0.00  0.00    -0.082 C 
ATOM     10  N   UNL     1       1.369  -6.347  -7.135  0.00  0.00    +0.379 N 
ATOM     11  C   UNL     1       0.799  -5.062  -6.712  0.00  0.00    -0.082 C 
ATOM     12  C   UNL     1       0.070  -5.239  -5.377  0.00  0.00    -0.010 C 
ATOM     13  H   UNL     1       1.796  -6.241  -8.043  0.00  0.00    -0.086 HD
ATOM     14  H   UNL     1       0.636  -7.038  -7.189  0.00  0.00    -0.086 HD
ENDROOT
BRANCH   5  15
ATOM     15  C   UNL     1       0.497  -7.426  -2.557  0.00  0.00    +0.218 C 
ATOM     16  O   UNL     1       1.489  -7.765  -1.948  0.00  0.00    -0.275 OA
ATOM     17  N   UNL     1      -0.460  -8.331  -2.845  0.00  0.00    -0.313 N 
ATOM     18  H   UNL     1      -1.253  -8.060  -3.332  0.00  0.00    +0.149 HD
BRANCH  17  19
ATOM     19  C   UNL     1      -0.301  -9.725  -2.421  0.00  0.00    +0.126 C 
BRANCH  19  20
ATOM     20  C   UNL     1      -1.456 -10.561  -2.974  0.00  0.00    +0.038 C 
ATOM     21  C   UNL     1      -1.363 -11.986  -2.425  0.00  0.00    +0.024 C 
ATOM     22  C   UNL     1      -0.032 -12.610  -2.849  0.00  0.00    +0.002 C 
ATOM     23  C   UNL     1       0.051 -12.646  -4.377  0.00  0.00    +0.000 C 
ATOM     24  C   UNL     1      -0.042 -11.221  -4.926  0.00  0.00    +0.002 C 
ATOM     25  C   UNL     1      -1.373 -10.597  -4.502  0.00  0.00    +0.024 C 
BRANCH  20  26
ATOM     26  N   UNL     1      -2.734  -9.962  -2.567  0.00  0.00    -0.291 NA
ATOM     27  C   UNL     1      -2.825  -9.859  -1.104  0.00  0.00    +0.113 C 
ATOM     28  C   UNL     1      -4.142  -9.177  -0.726  0.00  0.00    +0.175 C 
ATOM     29  O   UNL     1      -5.232  -9.914  -1.286  0.00  0.00    -0.377 OA
ATOM     30  C   UNL     1      -5.176 -10.033  -2.710  0.00  0.00    +0.175 C 
ATOM     31  C   UNL     1      -3.869 -10.724  -3.107  0.00  0.00    +0.113 C 
ENDBRANCH  20  26
ENDBRANCH  19  20
ENDBRANCH  17  19
ENDBRANCH   5  15
BRANCH   1  32
ATOM     32  C   UNL     1       1.090  -2.116  -1.285  0.00  0.00    +0.099 C 
BRANCH  32  33
ATOM     33  C   UNL     1       1.277  -0.598  -1.235  0.00  0.00    -0.006 C 
ATOM     34  C   UNL     1       2.771  -0.270  -1.181  0.00  0.00    +0.008 C 
BRANCH  33  36
ATOM     35  C   UNL     1       0.667   1.488  -0.004  0.00  0.00    +0.004 C 
ATOM     36  C   UNL     1       0.587  -0.040   0.011  0.00  0.00    +0.000 C 
ENDBRANCH  33  36
ENDBRANCH  32  33
ENDBRANCH   1  32
TORSDOF 7
