REMARK  Name = ZINC37812982
REMARK  6 active torsions:
REMARK  status: ('A' for Active; 'I' for Inactive)
REMARK    1  A    between atoms: C_1  and  C_2
REMARK    2  A    between atoms: C_2  and  C_3
REMARK    3  A    between atoms: C_3  and  C_5
REMARK    4  A    between atoms: C_3  and  C_6
REMARK    5  A    between atoms: C_6  and  C_8
REMARK    6  A    between atoms: C_6  and  N_23
REMARK                            x       y       z     vdW  Elec       q    Type
REMARK                         _______ _______ _______ _____ _____    ______ ____
ROOT
ATOM      1  C   UNL     1       1.256  -2.648   2.581  0.00  0.00    +0.201 C 
ATOM      2  O   UNL     1       0.536  -3.050   3.470  0.00  0.00    -0.277 OA
ATOM      3  N   UNL     1       2.595  -2.713   2.717  0.00  0.00    -0.300 N 
ATOM      4  C   UNL     1       3.479  -2.326   1.608  0.00  0.00    +0.126 C 
ATOM      5  C   UNL     1       4.449  -1.248   2.108  0.00  0.00    +0.127 C 
ATOM      6  N   UNL     1       5.052  -1.707   3.368  0.00  0.00    -0.297 N 
ATOM      7  C   UNL     1       4.168  -2.094   4.476  0.00  0.00    +0.127 C 
ATOM      8  C   UNL     1       3.197  -3.166   3.978  0.00  0.00    +0.126 C 
ATOM      9  C   UNL     1       6.427  -1.774   3.508  0.00  0.00    +0.218 A 
ATOM     10  N   UNL     1       7.199  -1.413   2.492  0.00  0.00    -0.222 NA
ATOM     11  C   UNL     1       8.517  -1.465   2.592  0.00  0.00    +0.131 A 
ATOM     12  C   UNL     1       9.088  -1.903   3.778  0.00  0.00    +0.054 A 
ATOM     13  C   UNL     1       8.251  -2.272   4.820  0.00  0.00    +0.131 A 
ATOM     14  N   UNL     1       6.941  -2.191   4.655  0.00  0.00    -0.222 NA
ATOM     15 BR   UNL     1      10.967  -1.995   3.968  0.00  0.00    -0.047 Br
ENDROOT
BRANCH   1  16
ATOM     16  C   UNL     1       0.653  -2.074   1.324  0.00  0.00    +0.016 C 
BRANCH  16  17
ATOM     17  N   UNL     1      -0.589  -2.792   1.005  0.00  0.00    +0.386 N 
ATOM     18  H   UNL     1      -0.993  -2.408   0.164  0.00  0.00    -0.089 HD
ATOM     19  H   UNL     1      -0.386  -3.770   0.865  0.00  0.00    -0.089 HD
ATOM     20  H   UNL     1      -1.242  -2.690   1.768  0.00  0.00    -0.089 HD
ENDBRANCH  16  17
BRANCH  16  21
ATOM     21  C   UNL     1       0.344  -0.591   1.537  0.00  0.00    -0.020 C 
ATOM     22  C   UNL     1       1.644   0.165   1.820  0.00  0.00    +0.006 C 
BRANCH  21  24
ATOM     23  C   UNL     1      -0.735   1.427   0.535  0.00  0.00    +0.004 C 
ATOM     24  C   UNL     1      -0.313  -0.021   0.279  0.00  0.00    -0.001 C 
ENDBRANCH  21  24
ENDBRANCH  16  21
ENDBRANCH   1  16
TORSDOF 4
