REMARK  Name = ZINC02641276
REMARK  6 active torsions:
REMARK  status: ('A' for Active; 'I' for Inactive)
REMARK    1  A    between atoms: C_1  and  C_2
REMARK    2  A    between atoms: C_3  and  C_32
REMARK    3  A    between atoms: C_11  and  C_13
REMARK    4  A    between atoms: C_13  and  O_14
REMARK    5  A    between atoms: O_14  and  C_15
REMARK    6  A    between atoms: C_15  and  C_17
REMARK                            x       y       z     vdW  Elec       q    Type
REMARK                         _______ _______ _______ _____ _____    ______ ____
ROOT
ATOM      1  C   UNL     1      -1.230  -2.522  -0.435  0.00  0.00    +0.341 C 
ATOM      2  O   UNL     1      -2.394  -2.347  -0.134  0.00  0.00    -0.245 OA
ENDROOT
BRANCH   1   3
ATOM      3  C   UNL     1      -0.646  -1.794  -1.581  0.00  0.00    +0.073 A 
ATOM      4  C   UNL     1      -0.687  -2.342  -2.885  0.00  0.00    +0.015 A 
ATOM      5  C   UNL     1      -1.280  -3.585  -3.143  0.00  0.00    +0.011 A 
ATOM      6  C   UNL     1      -1.288  -4.077  -4.413  0.00  0.00    +0.001 A 
ATOM      7  C   UNL     1      -0.712  -3.360  -5.460  0.00  0.00    +0.002 A 
ATOM      8  C   UNL     1      -0.131  -2.149  -5.246  0.00  0.00    +0.028 A 
ATOM      9  C   UNL     1      -0.105  -1.607  -3.947  0.00  0.00    +0.072 A 
ATOM     10  N   UNL     1       0.450  -0.422  -3.704  0.00  0.00    -0.251 NA
ATOM     11  C   UNL     1       0.486   0.116  -2.499  0.00  0.00    +0.046 A 
ATOM     12  C   UNL     1      -0.041  -0.548  -1.404  0.00  0.00    -0.012 A 
ATOM     13  C   UNL     1       0.002  -0.004   0.002  0.00  0.00    +0.038 C 
ATOM     14  C   UNL     1      -0.019   1.524   0.010  0.00  0.00    +0.005 C 
ATOM     15  C   UNL     1       1.425   2.027  -0.001  0.00  0.00    +0.001 C 
ATOM     16  C   UNL     1       2.130   1.546  -1.265  0.00  0.00    +0.006 C 
ATOM     17  C   UNL     1       1.095   1.492  -2.391  0.00  0.00    +0.056 C 
ENDBRANCH   1   3
BRANCH   1  18
ATOM     18  O   UNL     1      -0.471  -3.378   0.276  0.00  0.00    -0.453 OA
BRANCH  18  19
ATOM     19  C   UNL     1      -1.111  -4.058   1.388  0.00  0.00    +0.306 C 
BRANCH  19  30
ATOM     20  C   UNL     1       2.603  -8.337   4.973  0.00  0.00    +0.045 C 
ATOM     21  C   UNL     1       2.800  -7.434   3.782  0.00  0.00    -0.026 A 
ATOM     22  C   UNL     1       3.993  -7.365   3.171  0.00  0.00    -0.008 A 
ATOM     23  S   UNL     1       3.718  -6.191   1.859  0.00  0.00    -0.073 S 
ATOM     24  C   UNL     1       2.010  -5.827   2.169  0.00  0.00    +0.116 A 
ATOM     25  C   UNL     1       1.701  -6.628   3.283  0.00  0.00    +0.075 A 
ATOM     26  C   UNL     1       0.354  -6.532   3.761  0.00  0.00    +0.260 A 
ATOM     27  O   UNL     1      -0.011  -7.188   4.722  0.00  0.00    -0.267 OA
ATOM     28  N   UNL     1      -0.502  -5.702   3.135  0.00  0.00    -0.308 N 
ATOM     29  H   UNL     1      -1.414  -5.630   3.457  0.00  0.00    +0.170 HD
ATOM     30  C   UNL     1      -0.115  -4.969   2.060  0.00  0.00    +0.149 A 
ATOM     31  N   UNL     1       1.106  -5.034   1.601  0.00  0.00    -0.223 NA
ATOM     32  C   UNL     1       5.262  -8.104   3.514  0.00  0.00    +0.052 C 
ENDBRANCH  19  30
ENDBRANCH  18  19
ENDBRANCH   1  18
TORSDOF 4
