REMARK  Name = ZINC38108894
REMARK  4 active torsions:
REMARK  status: ('A' for Active; 'I' for Inactive)
REMARK    1  A    between atoms: C_1  and  N_2
REMARK    2  A    between atoms: C_5  and  S_8
REMARK    3  A    between atoms: S_8  and  N_11
REMARK    4  A    between atoms: C_15  and  C_17
REMARK                            x       y       z     vdW  Elec       q    Type
REMARK                         _______ _______ _______ _____ _____    ______ ____
ROOT
ATOM      1  N   UNL     1      -0.486  -4.757   0.794  0.00  0.00    -0.166 NA
ATOM      2  C   UNL     1      -1.943  -4.982   0.766  0.00  0.00    +0.110 C 
ATOM      3  C   UNL     1      -2.110  -6.443   0.281  0.00  0.00    +0.019 C 
ATOM      4  C   UNL     1      -0.966  -6.557  -0.762  0.00  0.00    +0.028 C 
ATOM      5  C   UNL     1       0.152  -5.689  -0.147  0.00  0.00    +0.126 C 
ENDROOT
BRANCH   5   6
ATOM      6  C   UNL     1       0.860  -4.918  -1.231  0.00  0.00    +0.035 A 
ATOM      7  C   UNL     1       0.445  -3.756  -1.775  0.00  0.00    +0.024 A 
ATOM      8  C   UNL     1       1.394  -3.382  -2.747  0.00  0.00    +0.019 A 
ATOM      9  C   UNL     1       2.354  -4.330  -2.759  0.00  0.00    +0.083 A 
ATOM     10  N   UNL     1       2.035  -5.272  -1.827  0.00  0.00    -0.363 N 
ATOM     11  H   UNL     1       2.555  -6.064  -1.623  0.00  0.00    +0.165 HD
ENDBRANCH   5   6
BRANCH   1  12
ATOM     12  S   UNL     1       0.300  -3.635   1.724  0.00  0.00    +0.082 S 
ATOM     13  O   UNL     1      -0.672  -2.674   2.110  0.00  0.00    -0.151 OA
ATOM     14  O   UNL     1       1.484  -3.282   1.022  0.00  0.00    -0.151 OA
BRANCH  12  19
ATOM     15  C   UNL     1       2.747  -4.903   6.210  0.00  0.00    +0.151 C 
ATOM     16  N   UNL     1       1.847  -4.948   5.055  0.00  0.00    -0.323 N 
ATOM     17  C   UNL     1       0.941  -5.913   4.782  0.00  0.00    +0.202 A 
ATOM     18  N   UNL     1       0.328  -5.609   3.671  0.00  0.00    -0.215 NA
ATOM     19  C   UNL     1       0.815  -4.451   3.199  0.00  0.00    +0.231 A 
ATOM     20  C   UNL     1       1.763  -4.018   4.054  0.00  0.00    +0.156 A 
ATOM     21 CL   UNL     1       2.700  -2.564   3.911  0.00  0.00    -0.060 Cl
ENDBRANCH  12  19
ENDBRANCH   1  12
TORSDOF 3
