REMARK  Name = ZINC45165912
REMARK  3 active torsions:
REMARK  status: ('A' for Active; 'I' for Inactive)
REMARK    1  A    between atoms: C_3  and  N_18
REMARK    2  A    between atoms: C_4  and  S_8
REMARK    3  A    between atoms: S_8  and  N_11
REMARK                            x       y       z     vdW  Elec       q    Type
REMARK                         _______ _______ _______ _____ _____    ______ ____
ROOT
ATOM      1  S   UNL     1       3.751  -0.772  -1.094  0.00  0.00    +0.064 S 
ATOM      2  O   UNL     1       3.314  -2.027  -1.599  0.00  0.00    -0.153 OA
ATOM      3  O   UNL     1       4.451   0.170  -1.896  0.00  0.00    -0.153 OA
ENDROOT
BRANCH   1   4
ATOM      4  N   UNL     1       4.720  -1.098   0.209  0.00  0.00    -0.166 NA
ATOM      5  C   UNL     1       5.738  -0.137   0.665  0.00  0.00    +0.128 C 
ATOM      6  C   UNL     1       5.392   0.282   2.096  0.00  0.00    +0.121 C 
ATOM      7  N   UNL     1       5.074  -0.882   2.912  0.00  0.00    -0.313 N 
ATOM      8  C   UNL     1       4.677  -2.060   2.429  0.00  0.00    +0.229 C 
ATOM      9  O   UNL     1       4.365  -2.931   3.213  0.00  0.00    -0.274 OA
ATOM     10  C   UNL     1       4.594  -2.355   0.960  0.00  0.00    +0.205 C 
ATOM     11  H   UNL     1       5.158  -0.794   3.874  0.00  0.00    +0.149 HD
ENDBRANCH   1   4
BRANCH   1  15
ATOM     12  C   UNL     1       0.065   1.349   0.474  0.00  0.00    +0.003 A 
ATOM     13  C   UNL     1       0.095  -0.032   0.428  0.00  0.00    +0.025 A 
ATOM     14  C   UNL     1       1.222  -0.685  -0.052  0.00  0.00    +0.053 A 
ATOM     15  C   UNL     1       2.317   0.052  -0.485  0.00  0.00    +0.144 A 
ATOM     16  C   UNL     1       2.282   1.433  -0.436  0.00  0.00    +0.069 A 
ATOM     17  C   UNL     1       1.156   2.080   0.043  0.00  0.00    +0.022 A 
ATOM     18 CL   UNL     1       3.649   2.356  -0.975  0.00  0.00    -0.081 Cl
BRANCH  14  19
ATOM     19  N   UNL     1       1.255  -2.081  -0.100  0.00  0.00    -0.356 N 
ATOM     20  H   UNL     1       0.429  -2.587  -0.054  0.00  0.00    +0.142 HD
ATOM     21  H   UNL     1       2.104  -2.543  -0.178  0.00  0.00    +0.142 HD
ENDBRANCH  14  19
ENDBRANCH   1  15
TORSDOF 3
