REMARK  Name = ZINC35957136
REMARK  11 active torsions:
REMARK  status: ('A' for Active; 'I' for Inactive)
REMARK    1  A    between atoms: C_1  and  C_2
REMARK    2  A    between atoms: C_2  and  C_3
REMARK    3  A    between atoms: C_2  and  C_4
REMARK    4  A    between atoms: C_7  and  O_10
REMARK    5  A    between atoms: O_10  and  C_11
REMARK    6  A    between atoms: C_11  and  C_12
REMARK    7  A    between atoms: C_14  and  C_17
REMARK    8  A    between atoms: N_19  and  C_20
REMARK    9  A    between atoms: C_26  and  N_28
REMARK   10  A    between atoms: C_29  and  C_31
REMARK   11  A    between atoms: C_34  and  N_37
REMARK                            x       y       z     vdW  Elec       q    Type
REMARK                         _______ _______ _______ _____ _____    ______ ____
ROOT
ATOM      1  C   UNL     1     -10.643  -2.537  -1.452  0.00  0.00    +0.263 C 
ATOM      2  O   UNL     1     -11.702  -3.073  -1.184  0.00  0.00    -0.269 OA
ATOM      3  N   UNL     1     -10.629  -1.380  -2.144  0.00  0.00    -0.305 N 
ATOM      4  H   UNL     1      -9.785  -0.953  -2.357  0.00  0.00    +0.149 HD
ENDROOT
BRANCH   3   5
ATOM      5  C   UNL     1     -11.889  -0.769  -2.574  0.00  0.00    +0.093 C 
ATOM      6  C   UNL     1     -12.330  -1.388  -3.902  0.00  0.00    +0.024 C 
ATOM      7  C   UNL     1     -13.646  -0.749  -4.350  0.00  0.00    +0.002 C 
ATOM      8  C   UNL     1     -13.446   0.757  -4.531  0.00  0.00    +0.002 C 
ATOM      9  C   UNL     1     -13.006   1.376  -3.203  0.00  0.00    +0.024 C 
ATOM     10  C   UNL     1     -11.690   0.737  -2.754  0.00  0.00    +0.093 C 
BRANCH  10  11
ATOM     11  N   UNL     1     -11.268   1.330  -1.483  0.00  0.00    -0.307 N 
ATOM     12  C   UNL     1     -10.563   2.479  -1.476  0.00  0.00    +0.244 C 
ATOM     13  O   UNL     1     -10.278   3.023  -2.525  0.00  0.00    -0.270 OA
ATOM     14  H   UNL     1     -11.496   0.896  -0.646  0.00  0.00    +0.149 HD
BRANCH  12  15
ATOM     15  C   UNL     1     -10.138   3.077  -0.193  0.00  0.00    +0.037 A 
ATOM     16  C   UNL     1     -10.459   2.452   1.013  0.00  0.00    +0.015 A 
ATOM     17  C   UNL     1     -10.058   3.015   2.207  0.00  0.00    +0.033 A 
ATOM     18  C   UNL     1      -9.340   4.198   2.211  0.00  0.00    +0.126 A 
ATOM     19  C   UNL     1      -9.018   4.823   1.019  0.00  0.00    +0.033 A 
ATOM     20  C   UNL     1      -9.408   4.267  -0.182  0.00  0.00    +0.015 A 
BRANCH  18  21
ATOM     21  N   UNL     1      -8.914   4.796   3.496  0.00  0.00    +0.056 N 
ATOM     22  O   UNL     1      -9.193   4.253   4.538  0.00  0.00    -0.126 OA
ATOM     23  O   UNL     1      -8.286   5.830   3.502  0.00  0.00    -0.126 OA
ENDBRANCH  18  21
ENDBRANCH  12  15
ENDBRANCH  10  11
ENDBRANCH   3   5
BRANCH   1  26
ATOM     24  C   UNL     1      -7.113  -3.201  -0.875  0.00  0.00    +0.116 A 
ATOM     25  N   UNL     1      -8.191  -2.596  -1.292  0.00  0.00    -0.236 NA
ATOM     26  C   UNL     1      -9.376  -3.151  -1.020  0.00  0.00    +0.133 A 
ATOM     27  C   UNL     1      -9.344  -4.325  -0.315  0.00  0.00    +0.080 A 
ATOM     28  S   UNL     1      -7.696  -4.568  -0.094  0.00  0.00    -0.076 S 
BRANCH  24  29
ATOM     29  C   UNL     1      -5.679  -2.776  -1.058  0.00  0.00    +0.291 C 
BRANCH  29  30
ATOM     30  O   UNL     1      -5.282  -1.955   0.043  0.00  0.00    -0.485 OA
BRANCH  30  34
ATOM     31  C   UNL     1      -1.412  -0.526   0.013  0.00  0.00    -0.045 A 
ATOM     32  C   UNL     1      -2.258  -0.203   1.057  0.00  0.00    +0.007 A 
ATOM     33  C   UNL     1      -3.555  -0.681   1.070  0.00  0.00    +0.046 A 
ATOM     34  C   UNL     1      -4.007  -1.484   0.033  0.00  0.00    +0.121 A 
ATOM     35  C   UNL     1      -3.156  -1.805  -1.015  0.00  0.00    +0.046 A 
ATOM     36  C   UNL     1      -1.862  -1.321  -1.025  0.00  0.00    +0.007 A 
BRANCH  31  38
ATOM     37  C   UNL     1      -0.019   1.526   0.010  0.00  0.00    +0.012 C 
ATOM     38  C   UNL     1       0.002  -0.004   0.002  0.00  0.00    +0.013 C 
ATOM     39  C   UNL     1       0.742  -0.511   1.242  0.00  0.00    +0.012 C 
ENDBRANCH  31  38
ENDBRANCH  30  34
ENDBRANCH  29  30
ENDBRANCH  24  29
ENDBRANCH   1  26
TORSDOF 9
