REMARK  Name = ZINC33122426
REMARK  4 active torsions:
REMARK  status: ('A' for Active; 'I' for Inactive)
REMARK    1  A    between atoms: C_4  and  S_7
REMARK    2  A    between atoms: S_7  and  N_10
REMARK    3  A    between atoms: N_10  and  C_11
REMARK    4  A    between atoms: N_19  and  C_20
REMARK                            x       y       z     vdW  Elec       q    Type
REMARK                         _______ _______ _______ _____ _____    ______ ____
ROOT
ATOM      1  C   UNL     1       2.237   5.607  -2.455  0.00  0.00    +0.079 C 
ATOM      2  C   UNL     1       1.499   4.521  -3.242  0.00  0.00    +0.039 C 
ATOM      3  C   UNL     1       0.381   5.166  -4.068  0.00  0.00    +0.111 C 
ATOM      4  N   UNL     1       0.962   6.227  -4.902  0.00  0.00    -0.285 N 
ATOM      5  C   UNL     1       1.767   7.272  -4.256  0.00  0.00    +0.111 C 
ATOM      6  C   UNL     1       2.869   6.604  -3.428  0.00  0.00    +0.039 C 
ATOM      7  C   UNL     1       0.759   6.242  -6.235  0.00  0.00    +0.306 C 
ATOM      8  O   UNL     1       1.168   7.173  -6.902  0.00  0.00    -0.252 OA
ATOM      9  N   UNL     1       0.103   5.225  -6.828  0.00  0.00    -0.268 N 
ATOM     10  H   UNL     1      -0.344   4.427  -6.216  0.00  0.00    +0.156 HD
ENDROOT
BRANCH   9  11
ATOM     11  C   UNL     1      -0.009   5.183  -8.222  0.00  0.00    +0.049 A 
ATOM     12  C   UNL     1       0.857   5.926  -9.013  0.00  0.00    +0.024 A 
ATOM     13  C   UNL     1       0.747   5.879 -10.389  0.00  0.00    +0.002 A 
ATOM     14  C   UNL     1      -0.232   5.101 -10.979  0.00  0.00    +0.001 A 
ATOM     15  C   UNL     1      -1.100   4.364 -10.196  0.00  0.00    +0.017 A 
ATOM     16  C   UNL     1      -0.992   4.402  -8.818  0.00  0.00    +0.039 A 
ATOM     17 BR   UNL     1      -2.180   3.394  -7.747  0.00  0.00    -0.048 Br
ENDBRANCH   9  11
BRANCH   1  18
ATOM     18  N   UNL     1       3.285   4.990  -1.639  0.00  0.00    -0.187 NA
ATOM     19  H   UNL     1       4.213   4.634  -2.111  0.00  0.00    +0.148 HD
BRANCH  18  20
ATOM     20  S   UNL     1       2.982   4.601  -0.058  0.00  0.00    +0.059 S 
ATOM     21  O   UNL     1       2.395   5.750   0.537  0.00  0.00    -0.153 OA
ATOM     22  O   UNL     1       4.168   4.004   0.448  0.00  0.00    -0.153 OA
BRANCH  20  26
ATOM     23  C   UNL     1      -0.194   1.376  -0.062  0.00  0.00    +0.000 A 
ATOM     24  C   UNL     1       1.144   1.029  -0.100  0.00  0.00    +0.002 A 
ATOM     25  C   UNL     1       2.114   2.014  -0.100  0.00  0.00    +0.028 A 
ATOM     26  C   UNL     1       1.746   3.346  -0.057  0.00  0.00    +0.105 A 
ATOM     27  C   UNL     1       0.409   3.693  -0.014  0.00  0.00    +0.028 A 
ATOM     28  C   UNL     1      -0.561   2.708  -0.014  0.00  0.00    +0.002 A 
ENDBRANCH  20  26
ENDBRANCH  18  20
ENDBRANCH   1  18
TORSDOF 4
