REMARK  Name = ZINC13633091
REMARK  8 active torsions:
REMARK  status: ('A' for Active; 'I' for Inactive)
REMARK    1  A    between atoms: C_1  and  C_2
REMARK    2  A    between atoms: C_2  and  C_3
REMARK    3  A    between atoms: C_2  and  N_4
REMARK    4  A    between atoms: N_4  and  C_5
REMARK    5  A    between atoms: C_7  and  N_14
REMARK    6  A    between atoms: C_10  and  N_11
REMARK    7  A    between atoms: N_17  and  S_20
REMARK    8  A    between atoms: S_20  and  C_23
REMARK                            x       y       z     vdW  Elec       q    Type
REMARK                         _______ _______ _______ _____ _____    ______ ____
ROOT
ATOM      1  N   UNL     1       0.062  -4.172  -0.050  0.00  0.00    -0.327 N 
ATOM      2  C   UNL     1      -0.596  -4.728   1.140  0.00  0.00    +0.122 C 
ATOM      3  C   UNL     1      -0.711  -6.249   0.992  0.00  0.00    +0.128 C 
ATOM      4  N   UNL     1       0.626  -6.793   0.708  0.00  0.00    -0.174 NA
ATOM      5  C   UNL     1       1.404  -6.192  -0.386  0.00  0.00    +0.128 C 
ATOM      6  C   UNL     1       1.436  -4.674  -0.183  0.00  0.00    +0.122 C 
ENDROOT
BRANCH   1   9
ATOM      7  C   UNL     1      -1.186  -0.715   0.120  0.00  0.00    +0.060 A 
ATOM      8  C   UNL     1      -1.168  -2.103   0.093  0.00  0.00    +0.048 A 
ATOM      9  C   UNL     1       0.039  -2.776  -0.027  0.00  0.00    +0.032 A 
ATOM     10  C   UNL     1       1.226  -2.058  -0.125  0.00  0.00    +0.025 A 
ATOM     11  C   UNL     1       1.204  -0.677  -0.103  0.00  0.00    +0.036 A 
ATOM     12  C   UNL     1       0.004  -0.004   0.016  0.00  0.00    +0.147 A 
BRANCH  12  13
ATOM     13  N   UNL     1      -0.015   1.476   0.039  0.00  0.00    +0.058 N 
ATOM     14  O   UNL     1       1.032   2.097   0.067  0.00  0.00    -0.126 OA
ATOM     15  O   UNL     1      -1.077   2.071   0.025  0.00  0.00    -0.126 OA
ENDBRANCH  12  13
BRANCH   7  16
ATOM     16  N   UNL     1      -2.399  -0.034   0.247  0.00  0.00    -0.340 N 
ATOM     17  H   UNL     1      -2.420   0.934   0.184  0.00  0.00    +0.146 HD
BRANCH  16  19
ATOM     18  C   UNL     1      -4.655   0.122   1.177  0.00  0.00    +0.027 C 
ATOM     19  C   UNL     1      -3.638  -0.780   0.476  0.00  0.00    +0.064 C 
ATOM     20  C   UNL     1      -4.208  -1.246  -0.866  0.00  0.00    +0.027 C 
ENDBRANCH  16  19
ENDBRANCH   7  16
ENDBRANCH   1   9
BRANCH   4  21
ATOM     21  S   UNL     1       1.238  -8.050   1.596  0.00  0.00    +0.061 S 
ATOM     22  O   UNL     1       0.124  -8.745   2.139  0.00  0.00    -0.153 OA
ATOM     23  O   UNL     1       2.210  -8.689   0.779  0.00  0.00    -0.153 OA
BRANCH  21  24
ATOM     24  C   UNL     1       2.107  -7.350   2.959  0.00  0.00    +0.106 A 
ATOM     25  C   UNL     1       3.453  -7.054   2.842  0.00  0.00    +0.029 A 
ATOM     26  C   UNL     1       4.134  -6.500   3.910  0.00  0.00    +0.017 A 
ATOM     27  C   UNL     1       3.472  -6.252   5.099  0.00  0.00    +0.018 A 
ATOM     28  C   UNL     1       2.127  -6.553   5.217  0.00  0.00    +0.017 A 
ATOM     29  C   UNL     1       1.445  -7.102   4.147  0.00  0.00    +0.029 A 
ATOM     30 BR   UNL     1       4.405  -5.500   6.562  0.00  0.00    -0.050 Br
ENDBRANCH  21  24
ENDBRANCH   4  21
TORSDOF 6
