REMARK  Name = ZINC12532673
REMARK  16 active torsions:
REMARK  status: ('A' for Active; 'I' for Inactive)
REMARK    1  A    between atoms: C_1  and  C_2
REMARK    2  A    between atoms: C_2  and  C_3
REMARK    3  A    between atoms: C_3  and  C_4
REMARK    4  A    between atoms: C_4  and  N_5
REMARK    5  A    between atoms: C_6  and  C_29
REMARK    6  A    between atoms: C_9  and  S_10
REMARK    7  A    between atoms: S_10  and  C_11
REMARK    8  A    between atoms: C_11  and  C_12
REMARK    9  A    between atoms: N_14  and  C_15
REMARK   10  A    between atoms: C_20  and  S_21
REMARK   11  A    between atoms: S_21  and  C_22
REMARK   12  A    between atoms: C_29  and  C_31
REMARK   13  A    between atoms: C_29  and  N_66
REMARK   14  A    between atoms: C_31  and  C_32
REMARK   15  A    between atoms: C_33  and  N_66
REMARK   16  A    between atoms: C_34  and  N_66
REMARK                            x       y       z     vdW  Elec       q    Type
REMARK                         _______ _______ _______ _____ _____    ______ ____
ROOT
ATOM      1  C   UNL     1       2.956   2.306   6.316  0.00  0.00    +0.173 C 
ENDROOT
BRANCH   1   2
ATOM      2  C   UNL     1       3.726   2.909   7.463  0.00  0.00    +0.228 C 
ATOM      3  O   UNL     1       3.989   4.094   7.461  0.00  0.00    -0.275 OA
ATOM      4  N   UNL     1       4.123   2.133   8.490  0.00  0.00    -0.284 N 
ATOM      5  H   UNL     1       3.978   1.174   8.458  0.00  0.00    +0.155 HD
BRANCH   4   6
ATOM      6  C   UNL     1       4.745   2.710   9.605  0.00  0.00    +0.047 A 
ATOM      7  C   UNL     1       4.639   4.074   9.832  0.00  0.00    +0.024 A 
ATOM      8  C   UNL     1       5.253   4.641  10.933  0.00  0.00    +0.002 A 
ATOM      9  C   UNL     1       5.975   3.853  11.811  0.00  0.00    +0.001 A 
ATOM     10  C   UNL     1       6.086   2.493  11.593  0.00  0.00    +0.017 A 
ATOM     11  C   UNL     1       5.468   1.913  10.494  0.00  0.00    +0.034 A 
BRANCH  11  12
ATOM     12  S   UNL     1       5.601   0.178  10.218  0.00  0.00    -0.088 S 
BRANCH  12  13
ATOM     13  C   UNL     1       6.452  -0.416  11.642  0.00  0.00    +0.013 A 
ATOM     14  C   UNL     1       7.840  -0.457  11.656  0.00  0.00    +0.016 A 
ATOM     15  C   UNL     1       8.504  -0.918  12.776  0.00  0.00    +0.021 A 
ATOM     16  C   UNL     1       7.788  -1.350  13.879  0.00  0.00    +0.041 A 
ATOM     17  C   UNL     1       6.404  -1.315  13.865  0.00  0.00    +0.021 A 
ATOM     18  C   UNL     1       5.735  -0.850  12.750  0.00  0.00    +0.016 A 
ATOM     19 CL   UNL     1       8.626  -1.935  15.281  0.00  0.00    -0.084 Cl
ENDBRANCH  12  13
ENDBRANCH  11  12
ENDBRANCH   4   6
ENDBRANCH   1   2
BRANCH   1  20
ATOM     20  S   UNL     1       2.571   3.595   5.104  0.00  0.00    -0.077 S 
BRANCH  20  25
ATOM     21  N   UNL     1       1.152   3.097   2.745  0.00  0.00    -0.307 N 
ATOM     22  C   UNL     1       0.579   2.007   2.149  0.00  0.00    +0.120 A 
ATOM     23  N   UNL     1       0.781   0.987   2.934  0.00  0.00    -0.135 NA
ATOM     24  N   UNL     1       1.444   1.352   3.972  0.00  0.00    -0.123 NA
ATOM     25  C   UNL     1       1.696   2.639   3.910  0.00  0.00    +0.192 A 
BRANCH  21  26
ATOM     26  C   UNL     1       1.176   4.472   2.237  0.00  0.00    +0.125 C 
BRANCH  26  27
ATOM     27  C   UNL     1      -0.054   5.225   2.748  0.00  0.00    +0.021 C 
BRANCH  27  29
ATOM     28  C   UNL     1      -1.259   7.414   2.728  0.00  0.00    +0.004 C 
ATOM     29  C   UNL     1      -0.029   6.660   2.218  0.00  0.00    -0.002 C 
ENDBRANCH  27  29
ENDBRANCH  26  27
ENDBRANCH  21  26
BRANCH  22  30
ATOM     30  C   UNL     1      -0.154   1.991   0.833  0.00  0.00    +0.000 C 
BRANCH  30  33
ATOM     31  C   UNL     1      -2.241   1.757   2.039  0.00  0.00    -0.096 C 
ATOM     32  C   UNL     1      -2.121   1.150  -0.302  0.00  0.00    -0.096 C 
ATOM     33  N   UNL     1      -1.384   1.184   0.979  0.00  0.00    +0.383 N 
ATOM     34  H   UNL     1      -1.125   0.226   1.241  0.00  0.00    -0.082 HD
ENDBRANCH  30  33
BRANCH  30  35
ATOM     35  C   UNL     1       0.733   1.353  -0.237  0.00  0.00    -0.011 C 
ATOM     36  C   UNL     1       1.961   2.235  -0.474  0.00  0.00    +0.002 C 
ENDBRANCH  30  35
ENDBRANCH  22  30
ENDBRANCH  20  25
ENDBRANCH   1  20
TORSDOF 12
