REMARK  Name = ZINC13525181
REMARK  12 active torsions:
REMARK  status: ('A' for Active; 'I' for Inactive)
REMARK    1  A    between atoms: C_1  and  C_2
REMARK    2  A    between atoms: C_2  and  N_3
REMARK    3  A    between atoms: C_7  and  C_9
REMARK    4  A    between atoms: C_9  and  C_11
REMARK    5  A    between atoms: C_9  and  O_12
REMARK    6  A    between atoms: O_12  and  C_13
REMARK    7  A    between atoms: C_13  and  C_15
REMARK    8  A    between atoms: C_26  and  C_36
REMARK    9  A    between atoms: C_30  and  C_31
REMARK   10  A    between atoms: C_36  and  C_37
REMARK   11  A    between atoms: C_36  and  C_38
REMARK   12  A    between atoms: C_36  and  C_39
REMARK                            x       y       z     vdW  Elec       q    Type
REMARK                         _______ _______ _______ _____ _____    ______ ____
ROOT
ATOM      1  C   UNL     1       3.314  -0.574  -0.900  0.00  0.00    +0.073 A 
ATOM      2  C   UNL     1       2.046   0.087  -0.588  0.00  0.00    +0.015 A 
ATOM      3  C   UNL     1       1.914   1.478  -0.641  0.00  0.00    +0.011 A 
ATOM      4  C   UNL     1       0.712   2.053  -0.345  0.00  0.00    +0.001 A 
ATOM      5  C   UNL     1      -0.385   1.271   0.009  0.00  0.00    +0.002 A 
ATOM      6  C   UNL     1      -0.290  -0.086   0.070  0.00  0.00    +0.028 A 
ATOM      7  C   UNL     1       0.933  -0.714  -0.228  0.00  0.00    +0.072 A 
ATOM      8  N   UNL     1       1.056  -2.040  -0.176  0.00  0.00    -0.247 NA
ATOM      9  C   UNL     1       2.193  -2.662  -0.450  0.00  0.00    +0.072 A 
ATOM     10  C   UNL     1       3.354  -1.960  -0.824  0.00  0.00    -0.007 A 
ATOM     11  C   UNL     1       4.639  -2.667  -1.151  0.00  0.00    +0.042 C 
ATOM     12  C   UNL     1       4.686  -4.053  -0.513  0.00  0.00    +0.003 C 
ATOM     13  C   UNL     1       3.441  -4.845  -0.931  0.00  0.00    +0.041 C 
ATOM     14  C   UNL     1       2.235  -4.136  -0.354  0.00  0.00    -0.020 C 
ATOM     15  C   UNL     1       1.232  -4.826   0.229  0.00  0.00    +0.020 C 
ENDROOT
BRANCH  15  16
ATOM     16  C   UNL     1       1.188  -6.284   0.120  0.00  0.00    +0.013 A 
ATOM     17  C   UNL     1       0.340  -7.183   0.750  0.00  0.00    +0.015 A 
ATOM     18  C   UNL     1       0.494  -8.521   0.484  0.00  0.00    +0.008 A 
ATOM     19  C   UNL     1       1.465  -8.921  -0.381  0.00  0.00    +0.046 A 
ATOM     20  S   UNL     1       2.207  -7.371  -0.864  0.00  0.00    -0.097 S 
ENDBRANCH  15  16
BRANCH  12  21
ATOM     21  C   UNL     1       5.942  -4.789  -0.984  0.00  0.00    -0.034 C 
ATOM     22  C   UNL     1       7.184  -3.996  -0.571  0.00  0.00    +0.011 C 
ATOM     23  C   UNL     1       5.989  -6.178  -0.344  0.00  0.00    +0.011 C 
ATOM     24  C   UNL     1       5.911  -4.930  -2.507  0.00  0.00    +0.011 C 
ENDBRANCH  12  21
BRANCH   1  25
ATOM     25  C   UNL     1       4.510   0.206  -1.281  0.00  0.00    +0.341 C 
ATOM     26  O   UNL     1       4.720   0.463  -2.449  0.00  0.00    -0.245 OA
BRANCH  25  27
ATOM     27  O   UNL     1       5.367   0.631  -0.333  0.00  0.00    -0.449 OA
BRANCH  27  28
ATOM     28  C   UNL     1       6.520   1.392  -0.780  0.00  0.00    +0.259 C 
ATOM     29  C   UNL     1       7.679   0.438  -1.070  0.00  0.00    +0.062 C 
BRANCH  28  34
ATOM     30  N   UNL     1       9.270   5.008   0.795  0.00  0.00    -0.299 N 
ATOM     31  C   UNL     1       8.281   4.121   1.027  0.00  0.00    +0.306 C 
ATOM     32  O   UNL     1       7.719   4.107   2.104  0.00  0.00    -0.252 OA
ATOM     33  N   UNL     1       7.916   3.251   0.065  0.00  0.00    -0.237 N 
ATOM     34  C   UNL     1       6.928   2.365   0.297  0.00  0.00    +0.261 C 
ATOM     35  O   UNL     1       6.367   2.351   1.371  0.00  0.00    -0.271 OA
ATOM     36  H   UNL     1       9.719   5.019  -0.065  0.00  0.00    +0.150 HD
ATOM     37  H   UNL     1       8.365   3.263  -0.795  0.00  0.00    +0.159 HD
BRANCH  30  39
ATOM     38  C   UNL     1      10.801   6.840   1.324  0.00  0.00    +0.024 C 
ATOM     39  C   UNL     1       9.666   5.953   1.841  0.00  0.00    +0.102 C 
ENDBRANCH  30  39
ENDBRANCH  28  34
ENDBRANCH  27  28
ENDBRANCH  25  27
ENDBRANCH   1  25
TORSDOF 7
