REMARK  Name = ZINC06197940
REMARK  10 active torsions:
REMARK  status: ('A' for Active; 'I' for Inactive)
REMARK    1  A    between atoms: C_1  and  C_2
REMARK    2  A    between atoms: C_2  and  C_3
REMARK    3  A    between atoms: C_10  and  C_15
REMARK    4  A    between atoms: C_15  and  C_17
REMARK    5  A    between atoms: C_15  and  N_70
REMARK    6  A    between atoms: N_21  and  C_22
REMARK    7  A    between atoms: C_27  and  C_28
REMARK    8  A    between atoms: C_27  and  N_70
REMARK    9  A    between atoms: C_35  and  C_36
REMARK   10  A    between atoms: C_35  and  N_70
REMARK                            x       y       z     vdW  Elec       q    Type
REMARK                         _______ _______ _______ _____ _____    ______ ____
ROOT
ATOM      1  C   UNL     1      -1.265   7.526  -0.578  0.00  0.00    +0.040 C 
ENDROOT
BRANCH   1   9
ATOM      2  C   UNL     1       2.341   2.774  -2.222  0.00  0.00    -0.047 A 
ATOM      3  C   UNL     1       1.311   1.880  -2.482  0.00  0.00    +0.005 A 
ATOM      4  C   UNL     1      -0.005   2.259  -2.329  0.00  0.00    +0.026 A 
ATOM      5  C   UNL     1      -0.307   3.547  -1.897  0.00  0.00    +0.049 A 
ATOM      6  C   UNL     1       0.740   4.450  -1.634  0.00  0.00    -0.001 A 
ATOM      7  C   UNL     1       2.068   4.045  -1.802  0.00  0.00    +0.013 A 
ATOM      8  C   UNL     1       0.412   5.805  -1.185  0.00  0.00    +0.017 A 
ATOM      9  C   UNL     1      -0.893   6.140  -1.039  0.00  0.00    +0.011 A 
ATOM     10  C   UNL     1      -1.905   5.197  -1.316  0.00  0.00    +0.251 A 
ATOM     11  O   UNL     1      -3.072   5.519  -1.178  0.00  0.00    -0.268 OA
ATOM     12  N   UNL     1      -1.614   3.950  -1.728  0.00  0.00    -0.322 N 
ATOM     13  H   UNL     1      -2.356   3.307  -1.915  0.00  0.00    +0.169 HD
BRANCH   2  15
ATOM     14  C   UNL     1       4.217   2.635  -3.837  0.00  0.00    +0.009 C 
ATOM     15  C   UNL     1       3.772   2.339  -2.404  0.00  0.00    +0.032 C 
ENDBRANCH   2  15
ENDBRANCH   1   9
BRANCH   1  16
ATOM     16  C   UNL     1      -2.006   8.240  -1.679  0.00  0.00    +0.143 A 
ATOM     17  N   UNL     1      -3.300   8.234  -1.884  0.00  0.00    -0.115 NA
ATOM     18  N   UNL     1      -3.543   8.962  -2.919  0.00  0.00    -0.023 NA
ATOM     19  N   UNL     1      -2.436   9.425  -3.385  0.00  0.00    -0.044 NA
ATOM     20  N   UNL     1      -1.465   9.003  -2.648  0.00  0.00    -0.227 N 
BRANCH  20  21
ATOM     21  C   UNL     1      -0.042   9.298  -2.830  0.00  0.00    +0.111 C 
ATOM     22  C   UNL     1       0.183  10.825  -2.849  0.00  0.00    +0.027 C 
ATOM     23  C   UNL     1       1.296  11.031  -3.907  0.00  0.00    +0.002 C 
ATOM     24  C   UNL     1       0.935   9.987  -4.992  0.00  0.00    +0.002 C 
ATOM     25  C   UNL     1       0.436   8.766  -4.192  0.00  0.00    +0.027 C 
ENDBRANCH  20  21
ENDBRANCH   1  16
BRANCH   1  26
ATOM     26  N   UNL     1      -2.149   7.420   0.602  0.00  0.00    +0.397 N 
ATOM     27  H   UNL     1      -3.025   6.963   0.322  0.00  0.00    -0.079 HD
BRANCH  26  28
ATOM     28  C   UNL     1      -2.458   8.768   1.125  0.00  0.00    -0.041 C 
BRANCH  28  29
ATOM     29  C   UNL     1      -1.191   9.485   1.516  0.00  0.00    -0.064 A 
ATOM     30  C   UNL     1      -0.699   9.364   2.802  0.00  0.00    +0.004 A 
ATOM     31  C   UNL     1       0.465  10.017   3.162  0.00  0.00    +0.038 A 
ATOM     32  C   UNL     1       1.131  10.802   2.236  0.00  0.00    +0.123 A 
ATOM     33  C   UNL     1       0.634  10.927   0.950  0.00  0.00    +0.038 A 
ATOM     34  C   UNL     1      -0.527  10.269   0.591  0.00  0.00    +0.004 A 
ATOM     35  F   UNL     1       2.267  11.445   2.587  0.00  0.00    -0.205 F 
ENDBRANCH  28  29
ENDBRANCH  26  28
BRANCH  26  36
ATOM     36  C   UNL     1      -1.497   6.609   1.651  0.00  0.00    -0.001 C 
BRANCH  36  37
ATOM     37  C   UNL     1      -2.527   6.234   2.685  0.00  0.00    +0.089 A 
ATOM     38  C   UNL     1      -3.246   5.097   2.703  0.00  0.00    +0.042 A 
ATOM     39  C   UNL     1      -4.084   5.161   3.840  0.00  0.00    +0.041 A 
ATOM     40  C   UNL     1      -3.828   6.333   4.448  0.00  0.00    +0.195 A 
ATOM     41  O   UNL     1      -2.880   6.977   3.747  0.00  0.00    -0.470 OA
ENDBRANCH  36  37
ENDBRANCH  26  36
ENDBRANCH   1  26
TORSDOF 9
