REMARK  Name = ZINC25454710
REMARK  15 active torsions:
REMARK  status: ('A' for Active; 'I' for Inactive)
REMARK    1  A    between atoms: C_1  and  C_2
REMARK    2  A    between atoms: C_2  and  C_3
REMARK    3  A    between atoms: C_2  and  C_4
REMARK    4  A    between atoms: C_4  and  C_5
REMARK    5  A    between atoms: C_5  and  N_6
REMARK    6  A    between atoms: N_6  and  C_7
REMARK    7  A    between atoms: N_6  and  C_20
REMARK    8  A    between atoms: C_7  and  C_8
REMARK    9  A    between atoms: N_10  and  C_11
REMARK   10  A    between atoms: C_15  and  C_16
REMARK   11  A    between atoms: C_16  and  O_18
REMARK   12  A    between atoms: O_18  and  C_19
REMARK   13  A    between atoms: C_21  and  N_36
REMARK   14  A    between atoms: N_22  and  C_29
REMARK   15  A    between atoms: C_29  and  C_30
REMARK                            x       y       z     vdW  Elec       q    Type
REMARK                         _______ _______ _______ _____ _____    ______ ____
ROOT
ATOM      1  N   UNL     1       2.904   3.161   0.192  0.00  0.00    -0.314 N 
ENDROOT
BRANCH   1   2
ATOM      2  C   UNL     1       1.609   2.596   0.264  0.00  0.00    +0.134 A 
ATOM      3  C   UNL     1       0.574   3.300   0.816  0.00  0.00    +0.127 A 
ATOM      4  N   UNL     1      -0.677   2.728   0.874  0.00  0.00    -0.276 N 
ATOM      5  C   UNL     1      -0.881   1.490   0.389  0.00  0.00    +0.331 A 
ATOM      6  O   UNL     1      -1.994   1.002   0.445  0.00  0.00    -0.246 OA
ATOM      7  N   UNL     1       0.126   0.781  -0.151  0.00  0.00    -0.273 N 
ATOM      8  H   UNL     1      -0.058  -0.234  -0.534  0.00  0.00    +0.173 HD
ATOM      9  C   UNL     1       1.367   1.301  -0.229  0.00  0.00    +0.277 A 
ATOM     10  O   UNL     1       2.274   0.653  -0.724  0.00  0.00    -0.266 OA
BRANCH   3  11
ATOM     11  N   UNL     1       0.781   4.569   1.307  0.00  0.00    -0.343 N 
ATOM     12  H   UNL     1      -0.055   5.131   1.749  0.00  0.00    +0.144 HD
ATOM     13  H   UNL     1       1.782   5.021   1.258  0.00  0.00    +0.144 HD
ENDBRANCH   3  11
BRANCH   4  14
ATOM     14  C   UNL     1      -1.792   3.474   1.462  0.00  0.00    +0.163 C 
BRANCH  14  15
ATOM     15  C   UNL     1      -2.483   4.273   0.388  0.00  0.00    -0.028 A 
ATOM     16  C   UNL     1      -2.073   5.565   0.116  0.00  0.00    +0.005 A 
ATOM     17  C   UNL     1      -2.704   6.297  -0.872  0.00  0.00    +0.000 A 
ATOM     18  C   UNL     1      -3.752   5.741  -1.582  0.00  0.00    +0.000 A 
ATOM     19  C   UNL     1      -4.166   4.451  -1.306  0.00  0.00    +0.000 A 
ATOM     20  C   UNL     1      -3.532   3.717  -0.321  0.00  0.00    +0.005 A 
ENDBRANCH  14  15
ENDBRANCH   4  14
ENDBRANCH   1   2
BRANCH   1  21
ATOM     21  C   UNL     1       3.876   2.345   0.931  0.00  0.00    +0.106 C 
BRANCH  21  22
ATOM     22  C   UNL     1       3.713   2.591   2.432  0.00  0.00    +0.022 C 
BRANCH  22  24
ATOM     23  C   UNL     1       6.162   2.329   2.850  0.00  0.00    +0.007 C 
ATOM     24  C   UNL     1       4.771   1.795   3.198  0.00  0.00    -0.016 C 
ATOM     25  C   UNL     1       4.530   1.942   4.702  0.00  0.00    +0.007 C 
ENDBRANCH  22  24
ENDBRANCH  21  22
ENDBRANCH   1  21
BRANCH   1  26
ATOM     26  C   UNL     1       3.321   3.341  -1.205  0.00  0.00    +0.201 C 
BRANCH  26  27
ATOM     27  C   UNL     1       4.465   4.321  -1.265  0.00  0.00    +0.235 C 
ATOM     28  O   UNL     1       4.802   4.921  -0.266  0.00  0.00    -0.274 OA
ATOM     29  N   UNL     1       5.114   4.529  -2.427  0.00  0.00    -0.283 N 
ATOM     30  H   UNL     1       4.758   4.047  -3.350  0.00  0.00    +0.155 HD
BRANCH  29  31
ATOM     31  C   UNL     1       6.237   5.356  -2.461  0.00  0.00    +0.055 A 
ATOM     32  C   UNL     1       6.915   5.702  -1.311  0.00  0.00    +0.032 A 
ATOM     33  C   UNL     1       8.004   6.506  -1.401  0.00  0.00    +0.048 A 
ATOM     34  S   UNL     1       8.127   6.829  -3.099  0.00  0.00    -0.088 S 
ATOM     35  C   UNL     1       6.725   5.878  -3.659  0.00  0.00    +0.117 A 
BRANCH  35  36
ATOM     36  C   UNL     1       6.237   5.700  -4.974  0.00  0.00    +0.347 C 
ATOM     37  O   UNL     1       5.255   5.007  -5.170  0.00  0.00    -0.244 OA
BRANCH  36  38
ATOM     38  O   UNL     1       6.859   6.298  -6.012  0.00  0.00    -0.464 OA
ATOM     39  C   UNL     1       6.311   6.074  -7.313  0.00  0.00    +0.280 C 
ENDBRANCH  36  38
ENDBRANCH  35  36
ENDBRANCH  29  31
ENDBRANCH  26  27
ENDBRANCH   1  26
TORSDOF 12
