REMARK  Name = ZINC64678638
REMARK  8 active torsions:
REMARK  status: ('A' for Active; 'I' for Inactive)
REMARK    1  A    between atoms: C_1  and  C_2
REMARK    2  A    between atoms: C_5  and  C_8
REMARK    3  A    between atoms: N_10  and  C_11
REMARK    4  A    between atoms: N_10  and  C_12
REMARK    5  A    between atoms: C_12  and  C_13
REMARK    6  A    between atoms: C_13  and  C_14
REMARK    7  A    between atoms: C_17  and  C_20
REMARK    8  A    between atoms: C_25  and  C_30
REMARK                            x       y       z     vdW  Elec       q    Type
REMARK                         _______ _______ _______ _____ _____    ______ ____
ROOT
ATOM      1  C   UNL     1       2.361  -7.990   0.873  0.00  0.00    +0.139 C 
ATOM      2  N   UNL     1       1.500  -8.935   0.986  0.00  0.00    -0.072 NA
ATOM      3  O   UNL     1       2.126 -10.203   0.913  0.00  0.00    -0.367 OA
ATOM      4  C   UNL     1       3.529  -9.950   0.736  0.00  0.00    +0.318 C 
ATOM      5  N   UNL     1       3.634  -8.483   0.711  0.00  0.00    -0.291 N 
ATOM      6  H   UNL     1       4.446  -7.963   0.602  0.00  0.00    +0.151 HD
ENDROOT
BRANCH   4   7
ATOM      7  C   UNL     1       4.016 -10.543  -0.588  0.00  0.00    +0.165 C 
ATOM      8  C   UNL     1       3.844 -12.046  -0.581  0.00  0.00    +0.012 C 
ATOM      9  C   UNL     1       5.085 -12.566  -0.727  0.00  0.00    -0.004 A 
ATOM     10  C   UNL     1       5.583 -13.944  -0.795  0.00  0.00    +0.013 A 
ATOM     11  C   UNL     1       6.910 -14.155  -0.948  0.00  0.00    -0.050 A 
ATOM     12  C   UNL     1       7.819 -13.092  -1.043  0.00  0.00    +0.005 A 
ATOM     13  C   UNL     1       7.437 -11.799  -0.989  0.00  0.00    +0.026 A 
ATOM     14  C   UNL     1       6.065 -11.461  -0.830  0.00  0.00    +0.043 A 
ATOM     15  N   UNL     1       5.454 -10.302  -0.751  0.00  0.00    -0.373 N 
ATOM     16  C   UNL     1       7.425 -15.570  -1.018  0.00  0.00    +0.044 C 
ATOM     17  H   UNL     1       5.881  -9.432  -0.793  0.00  0.00    +0.160 HD
ENDBRANCH   4   7
BRANCH   1  18
ATOM     18  C   UNL     1       2.018  -6.523   0.908  0.00  0.00    +0.094 C 
BRANCH  18  19
ATOM     19  C   UNL     1       0.509  -6.356   1.103  0.00  0.00    +0.115 C 
BRANCH  19  22
ATOM     20  C   UNL     1      -0.128  -4.282  -0.005  0.00  0.00    +0.246 C 
ATOM     21  O   UNL     1      -0.212  -4.897  -1.049  0.00  0.00    -0.270 OA
ATOM     22  N   UNL     1       0.176  -4.930   1.137  0.00  0.00    -0.300 N 
ATOM     23  C   UNL     1       0.172  -4.209   2.412  0.00  0.00    +0.132 C 
BRANCH  20  28
ATOM     24  C   UNL     1      -1.028   1.402   0.067  0.00  0.00    +0.044 C 
ATOM     25  C   UNL     1      -0.793  -0.087   0.048  0.00  0.00    -0.050 A 
ATOM     26  C   UNL     1      -1.265  -0.872   1.085  0.00  0.00    +0.004 A 
ATOM     27  C   UNL     1      -1.053  -2.235   1.074  0.00  0.00    +0.013 A 
ATOM     28  C   UNL     1      -0.360  -2.822   0.014  0.00  0.00    +0.037 A 
ATOM     29  C   UNL     1       0.114  -2.024  -1.029  0.00  0.00    +0.013 A 
ATOM     30  C   UNL     1      -0.110  -0.663  -1.009  0.00  0.00    +0.004 A 
ENDBRANCH  20  28
ENDBRANCH  19  22
ENDBRANCH  18  19
ENDBRANCH   1  18
TORSDOF 5
