REMARK  Name = ZINC67189174
REMARK  10 active torsions:
REMARK  status: ('A' for Active; 'I' for Inactive)
REMARK    1  A    between atoms: C_1  and  C_2
REMARK    2  A    between atoms: C_4  and  C_29
REMARK    3  A    between atoms: N_5  and  C_7
REMARK    4  A    between atoms: C_7  and  C_8
REMARK    5  A    between atoms: C_8  and  C_10
REMARK    6  A    between atoms: C_8  and  C_11
REMARK    7  A    between atoms: C_11  and  N_12
REMARK    8  A    between atoms: N_12  and  C_13
REMARK    9  A    between atoms: C_13  and  C_14
REMARK   10  A    between atoms: C_19  and  C_20
REMARK                            x       y       z     vdW  Elec       q    Type
REMARK                         _______ _______ _______ _____ _____    ______ ____
ROOT
ATOM      1  C   UNL     1       2.941  -6.691   3.510  0.00  0.00    -0.043 C 
ENDROOT
BRANCH   1   2
ATOM      2  C   UNL     1       4.367  -7.142   3.693  0.00  0.00    -0.016 A 
ATOM      3  C   UNL     1       5.002  -8.085   2.964  0.00  0.00    +0.107 A 
ATOM      4  N   UNL     1       6.263  -8.199   3.436  0.00  0.00    -0.284 N 
ATOM      5  H   UNL     1       6.944  -8.803   3.099  0.00  0.00    +0.188 HD
ATOM      6  N   UNL     1       6.417  -7.295   4.495  0.00  0.00    -0.171 NA
ATOM      7  C   UNL     1       5.278  -6.650   4.650  0.00  0.00    +0.129 A 
BRANCH   7   8
ATOM      8  C   UNL     1       5.003  -5.600   5.654  0.00  0.00    +0.156 A 
ATOM      9  C   UNL     1       5.518  -5.566   6.906  0.00  0.00    +0.060 A 
ATOM     10  C   UNL     1       4.977  -4.359   7.535  0.00  0.00    +0.021 A 
ATOM     11  C   UNL     1       5.120  -3.769   8.792  0.00  0.00    +0.011 A 
ATOM     12  C   UNL     1       4.459  -2.605   9.073  0.00  0.00    +0.001 A 
ATOM     13  C   UNL     1       3.648  -2.009   8.118  0.00  0.00    +0.004 A 
ATOM     14  C   UNL     1       3.495  -2.578   6.870  0.00  0.00    +0.047 A 
ATOM     15  C   UNL     1       4.157  -3.759   6.563  0.00  0.00    +0.136 A 
ATOM     16  O   UNL     1       4.208  -4.530   5.458  0.00  0.00    -0.453 OA
ENDBRANCH   7   8
ENDBRANCH   1   2
BRANCH   1  17
ATOM     17  N   UNL     1       2.918  -5.435   2.748  0.00  0.00    +0.382 N 
ATOM     18  H   UNL     1       3.343  -5.582   1.845  0.00  0.00    -0.085 HD
ATOM     19  H   UNL     1       3.433  -4.728   3.251  0.00  0.00    -0.085 HD
BRANCH  17  20
ATOM     20  C   UNL     1       1.528  -4.995   2.571  0.00  0.00    -0.077 C 
BRANCH  20  21
ATOM     21  C   UNL     1       1.504  -3.688   1.777  0.00  0.00    -0.010 C 
ATOM     22  C   UNL     1       2.177  -2.583   2.595  0.00  0.00    +0.007 C 
BRANCH  21  23
ATOM     23  C   UNL     1       0.055  -3.295   1.485  0.00  0.00    +0.145 C 
BRANCH  23  28
ATOM     24  C   UNL     1      -0.018   1.503   0.010  0.00  0.00    +0.067 C 
ATOM     25  C   UNL     1       0.002  -0.004   0.002  0.00  0.00    +0.060 A 
ATOM     26  C   UNL     1       0.008  -0.818  -1.135  0.00  0.00    +0.047 A 
ATOM     27  C   UNL     1       0.028  -2.107  -0.725  0.00  0.00    +0.036 A 
ATOM     28  N   UNL     1       0.034  -2.109   0.625  0.00  0.00    -0.268 N 
ATOM     29  N   UNL     1       0.023  -0.777   1.058  0.00  0.00    -0.176 NA
ATOM     30  C   UNL     1       0.040  -3.323  -1.615  0.00  0.00    +0.065 C 
ENDBRANCH  23  28
ENDBRANCH  21  23
ENDBRANCH  20  21
ENDBRANCH  17  20
ENDBRANCH   1  17
TORSDOF 7
