REMARK  Name = ZINC58299598
REMARK  7 active torsions:
REMARK  status: ('A' for Active; 'I' for Inactive)
REMARK    1  A    between atoms: C_3  and  C_6
REMARK    2  A    between atoms: C_6  and  C_8
REMARK    3  A    between atoms: C_6  and  N_28
REMARK    4  A    between atoms: C_8  and  N_9
REMARK    5  A    between atoms: C_10  and  C_12
REMARK    6  A    between atoms: C_15  and  N_18
REMARK    7  A    between atoms: C_22  and  C_25
REMARK                            x       y       z     vdW  Elec       q    Type
REMARK                         _______ _______ _______ _____ _____    ______ ____
ROOT
ATOM      1  N   UNL     1       5.528   0.089   1.197  0.00  0.00    -0.312 N 
ATOM      2  C   UNL     1       6.219  -0.317   2.280  0.00  0.00    +0.244 C 
ATOM      3  O   UNL     1       5.647  -0.476   3.342  0.00  0.00    -0.270 OA
ATOM      4  H   UNL     1       5.984   0.216   0.350  0.00  0.00    +0.149 HD
ENDROOT
BRANCH   2   5
ATOM      5  C   UNL     1       7.669  -0.568   2.179  0.00  0.00    +0.037 A 
ATOM      6  C   UNL     1       8.329  -0.380   0.961  0.00  0.00    +0.015 A 
ATOM      7  C   UNL     1       9.682  -0.615   0.870  0.00  0.00    +0.024 A 
ATOM      8  C   UNL     1      10.393  -1.039   1.989  0.00  0.00    +0.030 A 
ATOM      9  C   UNL     1       9.738  -1.228   3.203  0.00  0.00    +0.024 A 
ATOM     10  C   UNL     1       8.387  -0.989   3.302  0.00  0.00    +0.015 A 
BRANCH   8  11
ATOM     11  N   UNL     1      11.760  -1.276   1.894  0.00  0.00    -0.329 N 
ATOM     12  C   UNL     1      12.546  -1.616   3.087  0.00  0.00    +0.105 C 
ATOM     13  C   UNL     1      13.311  -2.916   2.820  0.00  0.00    +0.020 C 
ATOM     14  C   UNL     1      14.141  -2.761   1.544  0.00  0.00    +0.016 C 
ATOM     15  C   UNL     1      13.212  -2.495   0.358  0.00  0.00    +0.092 C 
ATOM     16  C   UNL     1      12.445  -1.196   0.596  0.00  0.00    +0.117 C 
BRANCH  15  17
ATOM     17  C   UNL     1      14.028  -2.375  -0.904  0.00  0.00    +0.215 C 
ATOM     18  O   UNL     1      13.998  -1.350  -1.550  0.00  0.00    -0.276 OA
ATOM     19  N   UNL     1      14.790  -3.409  -1.313  0.00  0.00    -0.329 N 
ATOM     20  H   UNL     1      14.814  -4.229  -0.796  0.00  0.00    +0.145 HD
ATOM     21  H   UNL     1      15.316  -3.332  -2.125  0.00  0.00    +0.145 HD
ENDBRANCH  15  17
ENDBRANCH   8  11
ENDBRANCH   2   5
BRANCH   1  22
ATOM     22  C   UNL     1       4.088   0.338   1.297  0.00  0.00    +0.097 C 
BRANCH  22  23
ATOM     23  C   UNL     1       3.529   0.668  -0.088  0.00  0.00    +0.016 C 
BRANCH  23  24
ATOM     24  N   UNL     1       4.289   1.782  -0.670  0.00  0.00    +0.387 N 
ATOM     25  C   UNL     1       4.239   2.934   0.239  0.00  0.00    -0.078 C 
ATOM     26  C   UNL     1       5.096   4.070  -0.323  0.00  0.00    -0.019 C 
ATOM     27  C   UNL     1       4.555   4.478  -1.696  0.00  0.00    -0.004 C 
ATOM     28  C   UNL     1       4.542   3.252  -2.614  0.00  0.00    -0.019 C 
ATOM     29  C   UNL     1       3.706   2.147  -1.967  0.00  0.00    -0.078 C 
ATOM     30  H   UNL     1       5.249   1.501  -0.801  0.00  0.00    -0.081 HD
ENDBRANCH  23  24
BRANCH  23  33
ATOM     31  C   UNL     1       3.210  -2.379  -2.136  0.00  0.00    +0.041 A 
ATOM     32  C   UNL     1       2.660  -1.404  -1.273  0.00  0.00    +0.043 A 
ATOM     33  C   UNL     1       3.650  -0.541  -0.980  0.00  0.00    +0.093 A 
ATOM     34  O   UNL     1       4.763  -0.940  -1.616  0.00  0.00    -0.469 OA
ATOM     35  C   UNL     1       4.502  -2.054  -2.319  0.00  0.00    +0.195 A 
ENDBRANCH  23  33
ENDBRANCH  22  23
ENDBRANCH   1  22
TORSDOF 7
