REMARK  Name = ZINC02275279
REMARK  5 active torsions:
REMARK  status: ('A' for Active; 'I' for Inactive)
REMARK    1  A    between atoms: C_4  and  N_7
REMARK    2  A    between atoms: N_7  and  C_8
REMARK    3  A    between atoms: C_8  and  N_10
REMARK    4  A    between atoms: N_10  and  N_11
REMARK    5  A    between atoms: N_25  and  C_26
REMARK                            x       y       z     vdW  Elec       q    Type
REMARK                         _______ _______ _______ _____ _____    ______ ____
ROOT
ATOM      1  N   UNL     1      -0.412  -6.078  -0.800  0.00  0.00    -0.234 N 
ATOM      2  C   UNL     1       0.014  -4.815  -0.472  0.00  0.00    +0.221 A 
ATOM      3  N   UNL     1      -0.865  -3.823  -0.492  0.00  0.00    -0.207 NA
ATOM      4  C   UNL     1      -0.424  -2.613  -0.170  0.00  0.00    +0.118 A 
ATOM      5  C   UNL     1       0.914  -2.328   0.186  0.00  0.00    +0.076 A 
ATOM      6  C   UNL     1       1.210  -0.942   0.506  0.00  0.00    -0.023 A 
ATOM      7  C   UNL     1       0.179  -0.068   0.432  0.00  0.00    -0.004 A 
ATOM      8  S   UNL     1      -1.220  -1.041  -0.065  0.00  0.00    -0.073 S 
ATOM      9  C   UNL     1       0.215   1.403   0.709  0.00  0.00    +0.043 C 
ATOM     10  C   UNL     1       1.519   1.726   1.452  0.00  0.00    +0.005 C 
ATOM     11  C   UNL     1       2.682   1.050   0.720  0.00  0.00    +0.005 C 
ATOM     12  C   UNL     1       2.603  -0.465   0.909  0.00  0.00    +0.037 C 
ATOM     13  C   UNL     1       1.836  -3.425   0.196  0.00  0.00    +0.268 A 
ATOM     14  O   UNL     1       3.010  -3.280   0.490  0.00  0.00    -0.266 OA
ATOM     15  N   UNL     1       1.323  -4.632  -0.140  0.00  0.00    -0.247 N 
ATOM     16  H   UNL     1       0.204  -6.826  -0.747  0.00  0.00    +0.173 HD
ENDROOT
BRANCH  15  17
ATOM     17  C   UNL     1       2.177  -5.743  -0.148  0.00  0.00    +0.053 A 
ATOM     18  C   UNL     1       2.282  -6.547   0.978  0.00  0.00    +0.026 A 
ATOM     19  C   UNL     1       3.121  -7.644   0.966  0.00  0.00    +0.002 A 
ATOM     20  C   UNL     1       3.863  -7.936  -0.164  0.00  0.00    +0.000 A 
ATOM     21  C   UNL     1       3.764  -7.134  -1.286  0.00  0.00    +0.002 A 
ATOM     22  C   UNL     1       2.923  -6.038  -1.281  0.00  0.00    +0.026 A 
ENDBRANCH  15  17
BRANCH   1  23
ATOM     23  N   UNL     1      -1.735  -6.287  -1.210  0.00  0.00    -0.245 N 
ATOM     24  H   UNL     1      -2.350  -5.540  -1.263  0.00  0.00    +0.172 HD
BRANCH  23  25
ATOM     25  C   UNL     1      -2.153  -7.528  -1.531  0.00  0.00    +0.151 C 
ATOM     26  S   UNL     1      -3.769  -7.783  -2.033  0.00  0.00    -0.017 S 
BRANCH  25  27
ATOM     27  N   UNL     1      -1.298  -8.567  -1.458  0.00  0.00    -0.296 N 
ATOM     28  H   UNL     1      -0.405  -8.437  -1.101  0.00  0.00    +0.154 HD
BRANCH  27  32
ATOM     29  C   UNL     1      -2.488 -12.340  -2.762  0.00  0.00    +0.000 A 
ATOM     30  C   UNL     1      -2.768 -11.225  -3.530  0.00  0.00    +0.002 A 
ATOM     31  C   UNL     1      -2.375  -9.972  -3.100  0.00  0.00    +0.023 A 
ATOM     32  C   UNL     1      -1.698  -9.834  -1.896  0.00  0.00    +0.033 A 
ATOM     33  C   UNL     1      -1.413 -10.957  -1.130  0.00  0.00    +0.023 A 
ATOM     34  C   UNL     1      -1.813 -12.206  -1.562  0.00  0.00    +0.002 A 
ENDBRANCH  27  32
ENDBRANCH  25  27
ENDBRANCH  23  25
ENDBRANCH   1  23
TORSDOF 5
