REMARK  Name = ZINC20275207
REMARK  5 active torsions:
REMARK  status: ('A' for Active; 'I' for Inactive)
REMARK    1  A    between atoms: C_1  and  C_2
REMARK    2  A    between atoms: C_2  and  N_3
REMARK    3  A    between atoms: N_3  and  C_4
REMARK    4  A    between atoms: N_3  and  C_12
REMARK    5  A    between atoms: C_5  and  C_10
REMARK                            x       y       z     vdW  Elec       q    Type
REMARK                         _______ _______ _______ _____ _____    ______ ____
ROOT
ATOM      1  N   UNL     1       0.688  -0.476  -1.203  0.00  0.00    -0.309 N 
ENDROOT
BRANCH   1   2
ATOM      2  C   UNL     1       2.073  -0.590  -1.215  0.00  0.00    +0.149 A 
ATOM      3  C   UNL     1       2.844  -0.365  -0.072  0.00  0.00    +0.132 A 
ATOM      4  S   UNL     1       4.483  -0.658  -0.718  0.00  0.00    -0.040 S 
ATOM      5  C   UNL     1       4.051  -1.022  -2.303  0.00  0.00    +0.159 A 
ATOM      6  N   UNL     1       2.735  -0.922  -2.302  0.00  0.00    -0.209 NA
ATOM      7  N   UNL     1       4.878  -1.353  -3.355  0.00  0.00    -0.337 N 
ATOM      8  H   UNL     1       5.838  -1.397  -3.222  0.00  0.00    +0.144 HD
ATOM      9  H   UNL     1       4.501  -1.542  -4.228  0.00  0.00    +0.144 HD
BRANCH   3  10
ATOM     10  C   UNL     1       2.434   0.001   1.250  0.00  0.00    +0.110 C 
ATOM     11  N   UNL     1       2.109   0.291   2.299  0.00  0.00    -0.190 NA
ENDBRANCH   3  10
ENDBRANCH   1   2
BRANCH   1  12
ATOM     12  C   UNL     1      -0.070  -0.629  -2.447  0.00  0.00    +0.097 C 
ATOM     13  C   UNL     1       0.204  -2.013  -3.057  0.00  0.00    +0.046 C 
ATOM     14  C   UNL     1      -0.326  -2.065  -4.510  0.00  0.00    +0.168 C 
ATOM     15  S   UNL     1      -0.213  -0.308  -5.044  0.00  0.00    -0.029 S 
ATOM     16  O   UNL     1      -1.520   0.174  -5.325  0.00  0.00    -0.174 OA
ATOM     17  O   UNL     1       0.803  -0.189  -6.029  0.00  0.00    -0.174 OA
ATOM     18  C   UNL     1       0.381   0.450  -3.473  0.00  0.00    +0.188 C 
ENDBRANCH   1  12
BRANCH   1  20
ATOM     19  C   UNL     1      -0.038   1.304   0.308  0.00  0.00    +0.024 C 
ATOM     20  C   UNL     1      -0.014  -0.204   0.053  0.00  0.00    +0.103 C 
ENDBRANCH   1  20
TORSDOF 4
