REMARK  Name = ZINC06894697
REMARK  3 active torsions:
REMARK  status: ('A' for Active; 'I' for Inactive)
REMARK    1  A    between atoms: C_1  and  C_2
REMARK    2  A    between atoms: C_5  and  N_8
REMARK    3  A    between atoms: C_9  and  C_11
REMARK                            x       y       z     vdW  Elec       q    Type
REMARK                         _______ _______ _______ _____ _____    ______ ____
ROOT
ATOM      1  C   UNL     1       0.097  -6.354   1.350  0.00  0.00    +0.076 C 
ATOM      2  C   UNL     1      -1.173  -6.970   0.702  0.00  0.00    -0.003 C 
ATOM      3  C   UNL     1      -2.205  -6.845   1.848  0.00  0.00    -0.066 C 
ATOM      4  C   UNL     1      -3.251  -7.963   1.708  0.00  0.00    -0.017 C 
ATOM      5  C   UNL     1      -3.051  -8.863   2.950  0.00  0.00    -0.020 C 
ATOM      6  C   UNL     1      -1.588  -8.566   3.359  0.00  0.00    -0.077 C 
ATOM      7  N   UNL     1      -1.430  -7.096   3.091  0.00  0.00    +0.394 N 
ATOM      8  C   UNL     1      -0.014  -6.798   2.816  0.00  0.00    +0.052 C 
ATOM      9  C   UNL     1       0.855  -7.999   3.078  0.00  0.00    -0.027 A 
ATOM     10  C   UNL     1       0.884  -9.274   2.558  0.00  0.00    +0.004 A 
ATOM     11  C   UNL     1       1.823 -10.184   3.009  0.00  0.00    +0.000 A 
ATOM     12  C   UNL     1       2.732  -9.808   3.983  0.00  0.00    +0.002 A 
ATOM     13  C   UNL     1       2.707  -8.532   4.505  0.00  0.00    +0.023 A 
ATOM     14  C   UNL     1       1.764  -7.610   4.056  0.00  0.00    +0.036 A 
ATOM     15  N   UNL     1       1.539  -6.281   4.421  0.00  0.00    -0.286 N 
ATOM     16  C   UNL     1       0.515  -5.733   3.741  0.00  0.00    +0.212 C 
ATOM     17  O   UNL     1       0.098  -4.599   3.852  0.00  0.00    -0.277 OA
ATOM     18  H   UNL     1       2.061  -5.808   5.088  0.00  0.00    +0.155 HD
ATOM     19  H   UNL     1      -1.786  -6.543   3.856  0.00  0.00    -0.079 HD
ENDROOT
BRANCH   1  21
ATOM     20  N   UNL     1       1.231  -4.161   1.192  0.00  0.00    -0.285 N 
ATOM     21  C   UNL     1       0.074  -4.850   1.244  0.00  0.00    +0.220 C 
ATOM     22  O   UNL     1      -0.985  -4.261   1.207  0.00  0.00    -0.275 OA
ATOM     23  H   UNL     1       2.077  -4.635   1.154  0.00  0.00    +0.155 HD
BRANCH  20  28
ATOM     24  C   UNL     1       1.153   1.512   1.191  0.00  0.00    +0.044 C 
ATOM     25  C   UNL     1       1.174   0.005   1.191  0.00  0.00    -0.050 A 
ATOM     26  C   UNL     1       0.173  -0.699   0.547  0.00  0.00    +0.005 A 
ATOM     27  C   UNL     1       0.189  -2.080   0.545  0.00  0.00    +0.023 A 
ATOM     28  C   UNL     1       1.212  -2.762   1.191  0.00  0.00    +0.033 A 
ATOM     29  C   UNL     1       2.216  -2.052   1.837  0.00  0.00    +0.023 A 
ATOM     30  C   UNL     1       2.196  -0.671   1.831  0.00  0.00    +0.005 A 
ENDBRANCH  20  28
ENDBRANCH   1  21
TORSDOF 2
