REMARK  Name = ZINC35292664
REMARK  8 active torsions:
REMARK  status: ('A' for Active; 'I' for Inactive)
REMARK    1  A    between atoms: C_1  and  C_2
REMARK    2  A    between atoms: C_2  and  C_3
REMARK    3  A    between atoms: C_3  and  N_4
REMARK    4  A    between atoms: C_5  and  C_7
REMARK    5  A    between atoms: C_7  and  N_8
REMARK    6  A    between atoms: N_16  and  N_17
REMARK    7  A    between atoms: C_18  and  C_20
REMARK    8  A    between atoms: C_27  and  C_30
REMARK                            x       y       z     vdW  Elec       q    Type
REMARK                         _______ _______ _______ _____ _____    ______ ____
ROOT
ATOM      1  N   UNL     1       2.032  -4.604  -3.497  0.00  0.00    -0.291 NA
ATOM      2  C   UNL     1       3.452  -4.228  -3.479  0.00  0.00    +0.104 C 
ATOM      3  C   UNL     1       4.087  -4.577  -4.829  0.00  0.00    +0.124 C 
ATOM      4  N   UNL     1       3.823  -5.995  -5.116  0.00  0.00    -0.282 N 
ATOM      5  C   UNL     1       2.437  -6.479  -5.020  0.00  0.00    +0.124 C 
ATOM      6  C   UNL     1       1.867  -6.054  -3.662  0.00  0.00    +0.104 C 
ATOM      7  C   UNL     1       4.824  -6.830  -5.460  0.00  0.00    +0.319 C 
ATOM      8  O   UNL     1       5.948  -6.396  -5.624  0.00  0.00    -0.251 OA
ATOM      9  N   UNL     1       4.580  -8.145  -5.621  0.00  0.00    -0.218 N 
ATOM     10  H   UNL     1       3.671  -8.481  -5.563  0.00  0.00    +0.174 HD
ENDROOT
BRANCH   9  11
ATOM     11  N   UNL     1       5.637  -9.029  -5.872  0.00  0.00    -0.229 N 
ATOM     12  C   UNL     1       5.384 -10.326  -6.134  0.00  0.00    +0.267 C 
ATOM     13  O   UNL     1       4.236 -10.731  -6.151  0.00  0.00    -0.268 OA
ATOM     14  H   UNL     1       6.552  -8.706  -5.859  0.00  0.00    +0.173 HD
BRANCH  12  15
ATOM     15  C   UNL     1       6.491 -11.251  -6.397  0.00  0.00    +0.076 A 
ATOM     16  C   UNL     1       6.448 -12.602  -6.688  0.00  0.00    +0.024 A 
ATOM     17  C   UNL     1       7.664 -13.236  -6.894  0.00  0.00    -0.036 A 
ATOM     18  C   UNL     1       8.784 -12.464  -6.789  0.00  0.00    -0.006 A 
ATOM     19  S   UNL     1       8.244 -10.925  -6.433  0.00  0.00    -0.088 S 
ATOM     20  C   UNL     1      10.204 -12.915  -6.965  0.00  0.00    +0.043 C 
ATOM     21  C   UNL     1      10.238 -14.448  -6.910  0.00  0.00    +0.009 C 
ATOM     22  C   UNL     1       9.145 -14.998  -7.831  0.00  0.00    -0.009 C 
ATOM     23  C   UNL     1       7.769 -14.723  -7.224  0.00  0.00    +0.039 C 
ATOM     24  C   UNL     1       9.333 -16.508  -7.998  0.00  0.00    +0.008 C 
ENDBRANCH  12  15
ENDBRANCH   9  11
BRANCH   1  25
ATOM     25  C   UNL     1       1.346  -4.131  -2.288  0.00  0.00    +0.180 C 
BRANCH  25  27
ATOM     26  N   UNL     1       0.744  -1.964  -1.258  0.00  0.00    -0.314 N 
ATOM     27  C   UNL     1       1.325  -2.624  -2.279  0.00  0.00    +0.227 C 
ATOM     28  O   UNL     1       1.832  -2.005  -3.191  0.00  0.00    -0.274 OA
ATOM     29  H   UNL     1       0.339  -2.458  -0.529  0.00  0.00    +0.149 HD
BRANCH  26  30
ATOM     30  C   UNL     1       0.724  -0.499  -1.250  0.00  0.00    +0.104 C 
BRANCH  30  32
ATOM     31  C   UNL     1      -0.012   1.524   0.019  0.00  0.00    +0.005 C 
ATOM     32  C   UNL     1       0.009  -0.005   0.010  0.00  0.00    +0.015 C 
ENDBRANCH  30  32
ENDBRANCH  26  30
ENDBRANCH  25  27
ENDBRANCH   1  25
TORSDOF 6
