REMARK  Name = ZINC14547242
REMARK  3 active torsions:
REMARK  status: ('A' for Active; 'I' for Inactive)
REMARK    1  A    between atoms: C_1  and  C_2
REMARK    2  A    between atoms: C_3  and  N_24
REMARK    3  A    between atoms: C_9  and  C_18
REMARK                            x       y       z     vdW  Elec       q    Type
REMARK                         _______ _______ _______ _____ _____    ______ ____
ROOT
ATOM      1  C   UNL     1      -2.953   4.228  -0.035  0.00  0.00    +0.048 C 
ATOM      2  C   UNL     1      -1.697   3.395  -0.020  0.00  0.00    +0.001 A 
ATOM      3  C   UNL     1      -1.784   2.020  -0.078  0.00  0.00    +0.131 A 
ATOM      4  C   UNL     1      -0.631   1.257  -0.060  0.00  0.00    +0.033 A 
ATOM      5  C   UNL     1       0.603   1.871   0.006  0.00  0.00    +0.008 A 
ATOM      6  C   UNL     1       0.701   3.255   0.061  0.00  0.00    -0.019 A 
ATOM      7  C   UNL     1      -0.452   4.018   0.047  0.00  0.00    +0.037 A 
ATOM      8  N   UNL     1      -0.419   5.412   0.099  0.00  0.00    -0.336 N 
ATOM      9  C   UNL     1       0.767   5.896   0.808  0.00  0.00    +0.106 C 
ATOM     10  C   UNL     1       2.025   5.396   0.116  0.00  0.00    +0.029 C 
ATOM     11  C   UNL     1       2.080   3.855   0.139  0.00  0.00    +0.049 C 
ATOM     12  C   UNL     1       2.816   3.514  -1.146  0.00  0.00    -0.023 C 
ATOM     13  C   UNL     1       2.737   4.505  -1.998  0.00  0.00    -0.030 C 
ATOM     14  C   UNL     1       1.938   5.651  -1.409  0.00  0.00    +0.033 C 
ATOM     15  H   UNL     1      -0.474   5.809  -0.827  0.00  0.00    +0.147 HD
ENDROOT
BRANCH   9  16
ATOM     16  C   UNL     1       0.743   5.389   2.227  0.00  0.00    -0.009 A 
ATOM     17  C   UNL     1       1.928   5.127   2.899  0.00  0.00    +0.008 A 
ATOM     18  C   UNL     1       1.858   4.662   4.203  0.00  0.00    +0.020 A 
ATOM     19  C   UNL     1       0.619   4.476   4.786  0.00  0.00    +0.111 A 
ATOM     20  N   UNL     1      -0.487   4.736   4.117  0.00  0.00    -0.263 NA
ATOM     21  C   UNL     1      -0.459   5.185   2.877  0.00  0.00    +0.116 A 
ENDBRANCH   9  16
BRANCH   3  22
ATOM     22  N   UNL     1      -3.108   1.362  -0.154  0.00  0.00    +0.057 N 
ATOM     23  O   UNL     1      -3.191   0.149  -0.086  0.00  0.00    -0.126 OA
ATOM     24  O   UNL     1      -4.115   2.035  -0.286  0.00  0.00    -0.126 OA
ENDBRANCH   3  22
TORSDOF 2
