REMARK  Name = ZINC40057684
REMARK  7 active torsions:
REMARK  status: ('A' for Active; 'I' for Inactive)
REMARK    1  A    between atoms: C_1  and  C_2
REMARK    2  A    between atoms: C_2  and  C_3
REMARK    3  A    between atoms: C_3  and  C_4
REMARK    4  A    between atoms: C_10  and  C_27
REMARK    5  A    between atoms: C_16  and  C_26
REMARK    6  A    between atoms: C_18  and  C_25
REMARK    7  A    between atoms: C_30  and  O_33
REMARK                            x       y       z     vdW  Elec       q    Type
REMARK                         _______ _______ _______ _____ _____    ______ ____
ROOT
ATOM      1  C   UNL     1       0.762  -2.018   1.233  0.00  0.00    +0.104 A 
ATOM      2  N   UNL     1       1.647  -2.850   0.720  0.00  0.00    -0.145 NA
ATOM      3  N   UNL     1       1.516  -4.102   0.800  0.00  0.00    -0.125 NA
ATOM      4  C   UNL     1       0.477  -4.659   1.407  0.00  0.00    +0.191 A 
ATOM      5  S   UNL     1      -0.403  -3.188   1.924  0.00  0.00    -0.035 S 
ATOM      6  N   UNL     1       0.164  -6.000   1.593  0.00  0.00    -0.230 N 
ATOM      7  C   UNL     1       0.965  -7.146   1.137  0.00  0.00    +0.151 C 
ATOM      8  C   UNL     1       0.217  -8.364   1.569  0.00  0.00    +0.072 A 
ATOM      9  C   UNL     1       0.509  -9.791   1.395  0.00  0.00    +0.199 A 
ATOM     10  O   UNL     1       1.575 -10.207   0.976  0.00  0.00    -0.287 OA
ATOM     11  C   UNL     1      -0.618 -10.679   1.778  0.00  0.00    +0.067 A 
ATOM     12  C   UNL     1      -0.573 -12.042   1.486  0.00  0.00    -0.036 A 
ATOM     13  C   UNL     1      -1.621 -12.846   1.840  0.00  0.00    +0.007 A 
ATOM     14  C   UNL     1      -2.725 -12.309   2.486  0.00  0.00    -0.047 A 
ATOM     15  C   UNL     1      -2.786 -10.967   2.784  0.00  0.00    +0.050 A 
ATOM     16  C   UNL     1      -1.728 -10.126   2.435  0.00  0.00    +0.140 A 
ATOM     17  O   UNL     1      -1.804  -8.812   2.746  0.00  0.00    -0.450 OA
ATOM     18  C   UNL     1      -0.910  -7.950   2.221  0.00  0.00    +0.199 A 
ATOM     19  C   UNL     1      -0.925  -6.478   2.229  0.00  0.00    +0.289 C 
ATOM     20  O   UNL     1      -1.794  -5.793   2.733  0.00  0.00    -0.266 OA
ATOM     21  C   UNL     1      -3.873 -13.208   2.867  0.00  0.00    +0.044 C 
ATOM     22  C   UNL     1       0.625 -12.626   0.783  0.00  0.00    +0.044 C 
ENDROOT
BRANCH   7  23
ATOM     23  C   UNL     1       1.099  -7.123  -0.364  0.00  0.00    -0.022 A 
ATOM     24  C   UNL     1       0.028  -6.733  -1.147  0.00  0.00    +0.009 A 
ATOM     25  C   UNL     1       0.148  -6.711  -2.523  0.00  0.00    +0.046 A 
ATOM     26  C   UNL     1       1.345  -7.080  -3.120  0.00  0.00    +0.117 A 
ATOM     27  C   UNL     1       2.418  -7.470  -2.332  0.00  0.00    +0.046 A 
ATOM     28  C   UNL     1       2.295  -7.486  -0.957  0.00  0.00    +0.009 A 
BRANCH  26  29
ATOM     29  O   UNL     1       1.465  -7.059  -4.473  0.00  0.00    -0.507 OA
ATOM     30  H   UNL     1       1.777  -6.215  -4.827  0.00  0.00    +0.292 HD
ENDBRANCH  26  29
ENDBRANCH   7  23
BRANCH   1  31
ATOM     31  C   UNL     1       0.742  -0.511   1.242  0.00  0.00    +0.064 C 
BRANCH  31  33
ATOM     32  C   UNL     1      -0.019   1.526   0.010  0.00  0.00    +0.004 C 
ATOM     33  C   UNL     1       0.002  -0.004   0.002  0.00  0.00    +0.003 C 
ENDBRANCH  31  33
ENDBRANCH   1  31
TORSDOF 4
