REMARK  Name = ZINC12620239
REMARK  8 active torsions:
REMARK  status: ('A' for Active; 'I' for Inactive)
REMARK    1  A    between atoms: C_1  and  C_2
REMARK    2  A    between atoms: C_6  and  S_8
REMARK    3  A    between atoms: S_8  and  N_11
REMARK    4  A    between atoms: N_11  and  C_12
REMARK    5  A    between atoms: C_12  and  C_14
REMARK    6  A    between atoms: C_12  and  C_25
REMARK    7  A    between atoms: C_14  and  C_15
REMARK    8  A    between atoms: N_27  and  C_28
REMARK                            x       y       z     vdW  Elec       q    Type
REMARK                         _______ _______ _______ _____ _____    ______ ____
ROOT
ATOM      1  C   UNL     1      -1.397   5.346  -2.373  0.00  0.00    +0.167 C 
ENDROOT
BRANCH   1   2
ATOM      2  C   UNL     1      -0.820   4.851  -3.674  0.00  0.00    +0.236 C 
ATOM      3  O   UNL     1       0.380   4.868  -3.851  0.00  0.00    -0.274 OA
ATOM      4  N   UNL     1      -1.637   4.391  -4.642  0.00  0.00    -0.284 N 
ATOM      5  H   UNL     1      -2.599   4.441  -4.529  0.00  0.00    +0.155 HD
BRANCH   4   6
ATOM      6  C   UNL     1      -1.098   3.841  -5.810  0.00  0.00    +0.034 A 
ATOM      7  C   UNL     1       0.072   4.383  -6.354  0.00  0.00    +0.024 A 
ATOM      8  C   UNL     1       0.621   3.866  -7.485  0.00  0.00    +0.010 A 
ATOM      9  C   UNL     1       0.005   2.778  -8.129  0.00  0.00    -0.018 A 
ATOM     10  C   UNL     1       0.546   2.227  -9.303  0.00  0.00    +0.008 A 
ATOM     11  C   UNL     1      -0.074   1.174  -9.902  0.00  0.00    +0.001 A 
ATOM     12  C   UNL     1      -1.243   0.632  -9.370  0.00  0.00    +0.001 A 
ATOM     13  C   UNL     1      -1.796   1.140  -8.235  0.00  0.00    +0.008 A 
ATOM     14  C   UNL     1      -1.183   2.227  -7.587  0.00  0.00    -0.016 A 
ATOM     15  C   UNL     1      -1.727   2.776  -6.415  0.00  0.00    +0.031 A 
ENDBRANCH   4   6
ENDBRANCH   1   2
BRANCH   1  16
ATOM     16  N   UNL     1      -0.355   5.336  -1.342  0.00  0.00    -0.178 NA
ATOM     17  H   UNL     1       0.258   6.084  -1.266  0.00  0.00    +0.149 HD
BRANCH  16  18
ATOM     18  S   UNL     1      -0.226   4.050  -0.308  0.00  0.00    +0.059 S 
ATOM     19  O   UNL     1      -1.525   3.819   0.219  0.00  0.00    -0.153 OA
ATOM     20  O   UNL     1       0.898   4.308   0.522  0.00  0.00    -0.153 OA
BRANCH  18  26
ATOM     21  C   UNL     1      -1.601  -0.110  -3.158  0.00  0.00    +0.044 C 
ATOM     22  C   UNL     1      -0.505   0.746  -2.577  0.00  0.00    -0.049 A 
ATOM     23  C   UNL     1       0.819   0.424  -2.809  0.00  0.00    +0.003 A 
ATOM     24  C   UNL     1       1.824   1.212  -2.281  0.00  0.00    +0.002 A 
ATOM     25  C   UNL     1       1.505   2.319  -1.517  0.00  0.00    +0.028 A 
ATOM     26  C   UNL     1       0.181   2.638  -1.281  0.00  0.00    +0.106 A 
ATOM     27  C   UNL     1      -0.824   1.849  -1.809  0.00  0.00    +0.032 A 
ENDBRANCH  18  26
ENDBRANCH  16  18
ENDBRANCH   1  16
BRANCH   1  28
ATOM     28  C   UNL     1      -1.921   6.771  -2.555  0.00  0.00    +0.067 C 
BRANCH  28  29
ATOM     29  C   UNL     1      -2.618   7.216  -1.296  0.00  0.00    -0.020 A 
ATOM     30  C   UNL     1      -3.932   7.121  -1.035  0.00  0.00    +0.087 A 
ATOM     31  N   UNL     1      -4.198   7.626   0.209  0.00  0.00    -0.360 N 
ATOM     32  H   UNL     1      -5.077   7.667   0.618  0.00  0.00    +0.165 HD
ATOM     33  C   UNL     1      -3.033   8.070   0.793  0.00  0.00    +0.047 A 
ATOM     34  C   UNL     1      -1.991   7.827  -0.122  0.00  0.00    +0.003 A 
ATOM     35  C   UNL     1      -0.680   8.174   0.208  0.00  0.00    +0.010 A 
ATOM     36  C   UNL     1      -0.414   8.746   1.420  0.00  0.00    +0.001 A 
ATOM     37  C   UNL     1      -1.437   8.985   2.327  0.00  0.00    +0.002 A 
ATOM     38  C   UNL     1      -2.739   8.657   2.019  0.00  0.00    +0.026 A 
ENDBRANCH  28  29
ENDBRANCH   1  28
TORSDOF 7
