REMARK  Name = ZINC63372382
REMARK  10 active torsions:
REMARK  status: ('A' for Active; 'I' for Inactive)
REMARK    1  A    between atoms: C_1  and  C_2
REMARK    2  A    between atoms: C_2  and  C_3
REMARK    3  A    between atoms: C_6  and  C_9
REMARK    4  A    between atoms: N_16  and  C_31
REMARK    5  A    between atoms: C_19  and  C_30
REMARK    6  A    between atoms: C_31  and  C_32
REMARK    7  A    between atoms: C_35  and  O_40
REMARK    8  A    between atoms: C_36  and  O_38
REMARK    9  A    between atoms: O_38  and  C_39
REMARK   10  A    between atoms: O_40  and  C_41
REMARK                            x       y       z     vdW  Elec       q    Type
REMARK                         _______ _______ _______ _____ _____    ______ ____
ROOT
ATOM      1  C   UNL     1      -5.419  -2.005   0.043  0.00  0.00    +0.065 C 
ATOM      2  C   UNL     1      -5.491  -3.345  -0.710  0.00  0.00    +0.121 C 
ATOM      3  N   UNL     1      -5.355  -3.097  -2.159  0.00  0.00    -0.283 N 
ATOM      4  C   UNL     1      -4.344  -3.687  -2.806  0.00  0.00    +0.234 C 
ATOM      5  O   UNL     1      -3.583  -4.370  -2.155  0.00  0.00    -0.274 OA
ATOM      6  C   UNL     1      -4.083  -3.566  -4.271  0.00  0.00    +0.204 C 
ATOM      7  N   UNL     1      -5.068  -2.730  -4.937  0.00  0.00    -0.287 N 
ATOM      8  C   UNL     1      -6.072  -2.128  -4.302  0.00  0.00    +0.242 C 
ATOM      9  O   UNL     1      -6.836  -1.455  -4.961  0.00  0.00    -0.273 OA
ATOM     10  C   UNL     1      -6.319  -2.225  -2.833  0.00  0.00    +0.135 C 
ATOM     11  C   UNL     1      -6.238  -0.835  -2.194  0.00  0.00    +0.139 C 
ATOM     12  C   UNL     1      -6.329  -1.047  -0.685  0.00  0.00    -0.027 C 
ATOM     13  C   UNL     1      -7.316  -0.271  -0.256  0.00  0.00    -0.000 A 
ATOM     14  C   UNL     1      -7.808   0.031   1.098  0.00  0.00    +0.010 A 
ATOM     15  C   UNL     1      -8.876   0.868   1.175  0.00  0.00    +0.001 A 
ATOM     16  C   UNL     1      -9.497   1.428   0.054  0.00  0.00    +0.002 A 
ATOM     17  C   UNL     1      -9.105   1.213  -1.227  0.00  0.00    +0.026 A 
ATOM     18  C   UNL     1      -7.985   0.357  -1.436  0.00  0.00    +0.043 A 
ATOM     19  N   UNL     1      -7.374   0.010  -2.561  0.00  0.00    -0.375 N 
ATOM     20  C   UNL     1      -7.729  -2.775  -2.604  0.00  0.00    +0.044 C 
ATOM     21  H   UNL     1      -7.628   0.259  -3.463  0.00  0.00    +0.160 HD
ENDROOT
BRANCH   1  25
ATOM     22  C   UNL     1      -1.412  -0.526   0.013  0.00  0.00    -0.048 A 
ATOM     23  C   UNL     1      -2.051  -0.766   1.215  0.00  0.00    +0.004 A 
ATOM     24  C   UNL     1      -3.348  -1.244   1.225  0.00  0.00    +0.004 A 
ATOM     25  C   UNL     1      -4.006  -1.482   0.032  0.00  0.00    -0.039 A 
ATOM     26  C   UNL     1      -3.367  -1.241  -1.170  0.00  0.00    +0.004 A 
ATOM     27  C   UNL     1      -2.072  -0.758  -1.179  0.00  0.00    +0.004 A 
BRANCH  22  29
ATOM     28  C   UNL     1      -0.019   1.526   0.010  0.00  0.00    +0.009 C 
ATOM     29  C   UNL     1       0.002  -0.004   0.002  0.00  0.00    +0.032 C 
ENDBRANCH  22  29
ENDBRANCH   1  25
BRANCH   7  30
ATOM     30  C   UNL     1      -4.951  -2.540  -6.384  0.00  0.00    +0.143 C 
BRANCH  30  31
ATOM     31  C   UNL     1      -5.731  -3.615  -7.097  0.00  0.00    -0.026 A 
ATOM     32  C   UNL     1      -5.115  -4.807  -7.431  0.00  0.00    +0.009 A 
ATOM     33  C   UNL     1      -5.827  -5.796  -8.085  0.00  0.00    +0.050 A 
ATOM     34  C   UNL     1      -7.159  -5.593  -8.407  0.00  0.00    +0.162 A 
ATOM     35  C   UNL     1      -7.778  -4.393  -8.070  0.00  0.00    +0.162 A 
ATOM     36  C   UNL     1      -7.061  -3.408  -7.411  0.00  0.00    +0.054 A 
BRANCH  35  37
ATOM     37  O   UNL     1      -9.086  -4.190  -8.384  0.00  0.00    -0.491 OA
ATOM     38  C   UNL     1      -9.655  -2.934  -8.008  0.00  0.00    +0.277 C 
ENDBRANCH  35  37
BRANCH  34  39
ATOM     39  O   UNL     1      -7.860  -6.565  -9.050  0.00  0.00    -0.491 OA
ATOM     40  C   UNL     1      -7.159  -7.770  -9.364  0.00  0.00    +0.277 C 
ENDBRANCH  34  39
ENDBRANCH  30  31
ENDBRANCH   7  30
TORSDOF 6
