REMARK  Name = ZINC34830045
REMARK  6 active torsions:
REMARK  status: ('A' for Active; 'I' for Inactive)
REMARK    1  A    between atoms: C_4  and  C_7
REMARK    2  A    between atoms: N_16  and  C_17
REMARK    3  A    between atoms: C_17  and  C_18
REMARK    4  A    between atoms: C_18  and  C_19
REMARK    5  A    between atoms: C_28  and  C_30
REMARK    6  A    between atoms: C_34  and  N_36
REMARK                            x       y       z     vdW  Elec       q    Type
REMARK                         _______ _______ _______ _____ _____    ______ ____
ROOT
ATOM      1  C   UNL     1       2.614  -2.122  -4.390  0.00  0.00    +0.214 C 
ATOM      2  O   UNL     1       2.556  -0.926  -4.586  0.00  0.00    -0.276 OA
ATOM      3  N   UNL     1       2.480  -2.980  -5.420  0.00  0.00    -0.300 N 
ATOM      4  C   UNL     1       2.276  -2.519  -6.749  0.00  0.00    +0.109 C 
ATOM      5  C   UNL     1       0.788  -2.193  -7.104  0.00  0.00    +0.038 C 
ATOM      6  C   UNL     1      -0.103  -3.270  -6.402  0.00  0.00    +0.109 C 
ATOM      7  N   UNL     1       0.446  -4.580  -6.395  0.00  0.00    -0.296 N 
ATOM      8  C   UNL     1       1.188  -4.996  -5.177  0.00  0.00    +0.127 C 
ATOM      9  C   UNL     1       2.546  -4.451  -5.218  0.00  0.00    +0.126 C 
ATOM     10  C   UNL     1       0.299  -5.410  -7.447  0.00  0.00    +0.247 C 
ATOM     11  O   UNL     1      -0.314  -5.043  -8.430  0.00  0.00    -0.270 OA
ENDROOT
BRANCH  10  12
ATOM     12  C   UNL     1       0.885  -6.767  -7.406  0.00  0.00    +0.039 A 
ATOM     13  C   UNL     1       0.281  -7.813  -8.106  0.00  0.00    +0.013 A 
ATOM     14  C   UNL     1       0.833  -9.076  -8.063  0.00  0.00    +0.003 A 
ATOM     15  C   UNL     1       1.983  -9.308  -7.329  0.00  0.00    +0.033 A 
ATOM     16  C   UNL     1       2.586  -8.276  -6.633  0.00  0.00    +0.127 A 
ATOM     17  C   UNL     1       2.048  -7.006  -6.672  0.00  0.00    +0.045 A 
BRANCH  16  18
ATOM     18  N   UNL     1       3.815  -8.533  -5.849  0.00  0.00    +0.056 N 
ATOM     19  O   UNL     1       4.291  -9.644  -5.818  0.00  0.00    -0.126 OA
ATOM     20  O   UNL     1       4.344  -7.632  -5.240  0.00  0.00    -0.126 OA
ENDBRANCH  16  18
ENDBRANCH  10  12
BRANCH   1  21
ATOM     21  C   UNL     1       2.836  -2.647  -2.995  0.00  0.00    +0.077 C 
BRANCH  21  22
ATOM     22  C   UNL     1       2.954  -1.473  -2.021  0.00  0.00    -0.068 C 
BRANCH  22  31
ATOM     23  C   UNL     1       3.163  -0.862   0.284  0.00  0.00    -0.006 C 
ATOM     24  C   UNL     1       3.491  -1.389   1.678  0.00  0.00    -0.047 A 
ATOM     25  C   UNL     1       3.199  -0.708   2.857  0.00  0.00    +0.010 A 
ATOM     26  C   UNL     1       3.524  -1.254   4.052  0.00  0.00    +0.045 A 
ATOM     27  S   UNL     1       4.280  -2.797   3.560  0.00  0.00    -0.101 S 
ATOM     28  C   UNL     1       4.107  -2.598   1.810  0.00  0.00    -0.010 A 
ATOM     29  C   UNL     1       4.523  -3.507   0.700  0.00  0.00    +0.024 C 
ATOM     30  C   UNL     1       4.452  -2.702  -0.610  0.00  0.00    -0.072 C 
ATOM     31  N   UNL     1       3.171  -1.985  -0.661  0.00  0.00    +0.388 N 
ATOM     32  H   UNL     1       2.425  -2.623  -0.425  0.00  0.00    -0.080 HD
BRANCH  23  36
ATOM     33  C   UNL     1      -0.700   0.961   0.311  0.00  0.00    +0.000 A 
ATOM     34  C   UNL     1       0.436   1.746   0.376  0.00  0.00    +0.000 A 
ATOM     35  C   UNL     1       1.686   1.157   0.367  0.00  0.00    +0.002 A 
ATOM     36  C   UNL     1       1.800  -0.219   0.295  0.00  0.00    -0.057 A 
ATOM     37  C   UNL     1       0.665  -1.005   0.231  0.00  0.00    +0.002 A 
ATOM     38  C   UNL     1      -0.585  -0.415   0.238  0.00  0.00    +0.000 A 
ENDBRANCH  23  36
ENDBRANCH  22  31
ENDBRANCH  21  22
ENDBRANCH   1  21
TORSDOF 6
