REMARK  Name = ZINC34750052
REMARK  10 active torsions:
REMARK  status: ('A' for Active; 'I' for Inactive)
REMARK    1  A    between atoms: C_1  and  C_2
REMARK    2  A    between atoms: C_2  and  C_3
REMARK    3  A    between atoms: C_3  and  C_4
REMARK    4  A    between atoms: C_4  and  S_5
REMARK    5  A    between atoms: S_5  and  C_6
REMARK    6  A    between atoms: C_17  and  C_19
REMARK    7  A    between atoms: C_17  and  C_20
REMARK    8  A    between atoms: N_24  and  C_27
REMARK    9  A    between atoms: C_27  and  C_28
REMARK   10  A    between atoms: N_30  and  C_31
REMARK                            x       y       z     vdW  Elec       q    Type
REMARK                         _______ _______ _______ _____ _____    ______ ____
ROOT
ATOM      1  C   UNL     1       0.200  -5.368  -2.656  0.00  0.00    +0.191 A 
ATOM      2  N   UNL     1       0.796  -6.080  -3.606  0.00  0.00    -0.206 NA
ATOM      3  C   UNL     1       2.067  -6.436  -3.523  0.00  0.00    +0.134 A 
ATOM      4  C   UNL     1       2.827  -6.048  -2.384  0.00  0.00    +0.051 A 
ATOM      5  C   UNL     1       4.229  -6.324  -2.079  0.00  0.00    -0.020 A 
ATOM      6  C   UNL     1       4.714  -5.837  -0.917  0.00  0.00    +0.021 A 
ATOM      7  S   UNL     1       3.352  -4.990  -0.168  0.00  0.00    -0.071 S 
ATOM      8  C   UNL     1       2.129  -5.294  -1.418  0.00  0.00    +0.115 A 
ATOM      9  N   UNL     1       0.859  -4.974  -1.575  0.00  0.00    -0.215 NA
ATOM     10  C   UNL     1       6.111  -5.998  -0.403  0.00  0.00    +0.203 C 
ATOM     11  O   UNL     1       6.755  -7.016  -1.185  0.00  0.00    -0.368 OA
ATOM     12  C   UNL     1       6.595  -6.838  -2.595  0.00  0.00    +0.068 C 
ATOM     13  C   UNL     1       5.147  -7.124  -3.002  0.00  0.00    +0.071 C 
ATOM     14  C   UNL     1       6.952  -5.397  -2.968  0.00  0.00    +0.041 C 
ATOM     15  C   UNL     1       7.529  -7.797  -3.337  0.00  0.00    +0.041 C 
ATOM     16  N   UNL     1       2.652  -7.177  -4.534  0.00  0.00    -0.318 N 
ATOM     17  C   UNL     1       2.736  -8.643  -4.444  0.00  0.00    +0.088 C 
ATOM     18  C   UNL     1       2.195  -9.242  -5.747  0.00  0.00    -0.059 C 
ATOM     19  N   UNL     1       2.916  -8.662  -6.887  0.00  0.00    +0.387 N 
ATOM     20  C   UNL     1       2.643  -7.221  -6.971  0.00  0.00    -0.059 C 
ATOM     21  C   UNL     1       3.202  -6.523  -5.731  0.00  0.00    +0.088 C 
ATOM     22  H   UNL     1       3.907  -8.809  -6.767  0.00  0.00    -0.081 HD
ENDROOT
BRANCH   1  23
ATOM     23  S   UNL     1      -1.498  -4.933  -2.840  0.00  0.00    -0.086 S 
BRANCH  23  24
ATOM     24  C   UNL     1      -1.871  -3.980  -1.342  0.00  0.00    +0.077 C 
BRANCH  24  25
ATOM     25  C   UNL     1      -3.334  -3.534  -1.373  0.00  0.00    +0.011 C 
BRANCH  25  27
ATOM     26  C   UNL     1      -5.112  -2.284  -0.140  0.00  0.00    +0.004 C 
ATOM     27  C   UNL     1      -3.649  -2.730  -0.110  0.00  0.00    -0.003 C 
ENDBRANCH  25  27
ENDBRANCH  24  25
ENDBRANCH  23  24
ENDBRANCH   1  23
BRANCH  19  28
ATOM     28  C   UNL     1       2.474  -9.315  -8.127  0.00  0.00    +0.019 C 
BRANCH  28  29
ATOM     29  C   UNL     1       3.298  -8.809  -9.282  0.00  0.00    +0.197 C 
ATOM     30  O   UNL     1       4.168  -7.985  -9.092  0.00  0.00    -0.278 OA
ATOM     31  N   UNL     1       3.069  -9.271 -10.527  0.00  0.00    -0.314 N 
ATOM     32  H   UNL     1       2.373  -9.930 -10.679  0.00  0.00    +0.149 HD
BRANCH  31  33
ATOM     33  C   UNL     1       3.870  -8.779 -11.650  0.00  0.00    +0.073 C 
ATOM     34  C   UNL     1       3.263  -7.479 -12.180  0.00  0.00    +0.022 C 
ATOM     35  C   UNL     1       4.100  -6.965 -13.353  0.00  0.00    +0.002 C 
ATOM     36  C   UNL     1       4.112  -8.013 -14.468  0.00  0.00    +0.000 C 
ATOM     37  C   UNL     1       4.720  -9.314 -13.938  0.00  0.00    +0.002 C 
ATOM     38  C   UNL     1       3.883  -9.827 -12.765  0.00  0.00    +0.022 C 
ENDBRANCH  31  33
ENDBRANCH  28  29
ENDBRANCH  19  28
TORSDOF 7
