REMARK  Name = ZINC10022523
REMARK  7 active torsions:
REMARK  status: ('A' for Active; 'I' for Inactive)
REMARK    1  A    between atoms: C_1  and  C_2
REMARK    2  A    between atoms: C_2  and  C_4
REMARK    3  A    between atoms: C_2  and  S_19
REMARK    4  A    between atoms: N_6  and  C_7
REMARK    5  A    between atoms: C_8  and  C_17
REMARK    6  A    between atoms: S_19  and  C_20
REMARK    7  A    between atoms: C_23  and  C_25
REMARK                            x       y       z     vdW  Elec       q    Type
REMARK                         _______ _______ _______ _____ _____    ______ ____
ROOT
ATOM      1  C   UNL     1       0.002  -0.004   0.002  0.00  0.00    +0.231 C 
ATOM      2  O   UNL     1      -0.801  -0.618  -0.669  0.00  0.00    -0.274 OA
ATOM      3  N   UNL     1       0.912  -0.670   0.740  0.00  0.00    -0.278 N 
ATOM      4  H   UNL     1       1.554  -0.179   1.277  0.00  0.00    +0.155 HD
ENDROOT
BRANCH   3   5
ATOM      5  C   UNL     1       0.931  -2.058   0.732  0.00  0.00    +0.090 A 
ATOM      6  C   UNL     1       1.780  -2.911   1.417  0.00  0.00    +0.084 A 
ATOM      7  C   UNL     1       1.590  -4.344   1.240  0.00  0.00    -0.018 A 
ATOM      8  C   UNL     1       0.589  -4.685   0.400  0.00  0.00    -0.004 A 
ATOM      9  S   UNL     1      -0.106  -3.144  -0.130  0.00  0.00    -0.077 S 
ATOM     10  C   UNL     1       0.156  -6.062   0.002  0.00  0.00    +0.043 C 
ATOM     11  C   UNL     1      -0.005  -6.924   1.261  0.00  0.00    +0.005 C 
ATOM     12  C   UNL     1       1.333  -7.590   1.566  0.00  0.00    +0.001 C 
ATOM     13  C   UNL     1       2.483  -6.673   1.155  0.00  0.00    +0.005 C 
ATOM     14  C   UNL     1       2.446  -5.378   1.960  0.00  0.00    +0.037 C 
BRANCH   6  15
ATOM     15  C   UNL     1       2.811  -2.401   2.271  0.00  0.00    +0.102 C 
ATOM     16  N   UNL     1       3.628  -1.997   2.949  0.00  0.00    -0.191 NA
ENDBRANCH   6  15
ENDBRANCH   3   5
BRANCH   1  18
ATOM     17  C   UNL     1      -0.735   1.996   1.269  0.00  0.00    +0.029 C 
ATOM     18  C   UNL     1      -0.018   1.503   0.010  0.00  0.00    +0.139 C 
BRANCH  18  19
ATOM     19  S   UNL     1      -0.894   2.102  -1.456  0.00  0.00    -0.053 S 
BRANCH  19  20
ATOM     20  C   UNL     1      -0.641   3.837  -1.276  0.00  0.00    +0.278 A 
ATOM     21  N   UNL     1       0.017   4.431  -0.308  0.00  0.00    -0.101 NA
ATOM     22  N   UNL     1      -0.002   5.703  -0.500  0.00  0.00    -0.111 NA
ATOM     23  C   UNL     1      -0.665   5.970  -1.586  0.00  0.00    +0.221 A 
ATOM     24  O   UNL     1      -1.081   4.799  -2.108  0.00  0.00    -0.415 OA
BRANCH  23  25
ATOM     25  C   UNL     1      -0.918   7.340  -2.161  0.00  0.00    +0.077 C 
ATOM     26  C   UNL     1       0.418   8.016  -2.475  0.00  0.00    +0.013 C 
ATOM     27  C   UNL     1       0.162   9.407  -3.058  0.00  0.00    +0.001 C 
ATOM     28  C   UNL     1      -0.610  10.251  -2.042  0.00  0.00    +0.000 C 
ATOM     29  C   UNL     1      -1.947   9.575  -1.728  0.00  0.00    +0.001 C 
ATOM     30  C   UNL     1      -1.690   8.184  -1.145  0.00  0.00    +0.013 C 
ENDBRANCH  23  25
ENDBRANCH  19  20
ENDBRANCH  18  19
ENDBRANCH   1  18
TORSDOF 6
