REMARK  Name = ZINC07022826
REMARK  5 active torsions:
REMARK  status: ('A' for Active; 'I' for Inactive)
REMARK    1  A    between atoms: C_1  and  C_2
REMARK    2  A    between atoms: C_15  and  C_17
REMARK    3  A    between atoms: C_17  and  O_18
REMARK    4  A    between atoms: O_18  and  C_19
REMARK    5  A    between atoms: C_24  and  C_25
REMARK                            x       y       z     vdW  Elec       q    Type
REMARK                         _______ _______ _______ _____ _____    ______ ____
ROOT
ATOM      1  C   UNL     1      -0.867   5.851  -2.275  0.00  0.00    +0.029 C 
ATOM      2  C   UNL     1       0.303   5.915  -1.291  0.00  0.00    +0.087 C 
ATOM      3  C   UNL     1       1.522   5.225  -1.905  0.00  0.00    +0.118 C 
ATOM      4  C   UNL     1       2.540   4.924  -0.837  0.00  0.00    +0.219 C 
ATOM      5  O   UNL     1       3.540   5.605  -0.750  0.00  0.00    -0.275 OA
ATOM      6  N   UNL     1       2.347   3.902   0.025  0.00  0.00    -0.284 N 
ATOM      7  C   UNL     1       1.157   3.166  -0.000  0.00  0.00    +0.055 A 
ATOM      8  C   UNL     1       1.177   1.781   0.000  0.00  0.00    +0.025 A 
ATOM      9  C   UNL     1      -0.013   1.076   0.008  0.00  0.00    +0.002 A 
ATOM     10  C   UNL     1      -1.221   1.748   0.017  0.00  0.00    +0.002 A 
ATOM     11  C   UNL     1      -1.249   3.131   0.020  0.00  0.00    +0.025 A 
ATOM     12  C   UNL     1      -0.062   3.845  -0.002  0.00  0.00    +0.058 A 
ATOM     13  N   UNL     1      -0.072   5.245  -0.044  0.00  0.00    -0.264 N 
ATOM     14  C   UNL     1      -0.421   5.962   1.042  0.00  0.00    +0.258 C 
ATOM     15  O   UNL     1      -0.426   7.174   0.993  0.00  0.00    -0.272 OA
ATOM     16  H   UNL     1       3.039   3.676   0.667  0.00  0.00    +0.155 HD
ENDROOT
BRANCH  14  17
ATOM     17  C   UNL     1      -0.805   5.258   2.318  0.00  0.00    +0.325 C 
BRANCH  17  18
ATOM     18  O   UNL     1      -1.131   6.227   3.317  0.00  0.00    -0.482 OA
BRANCH  18  19
ATOM     19  C   UNL     1      -1.500   5.755   4.535  0.00  0.00    +0.133 A 
ATOM     20  C   UNL     1      -1.555   4.389   4.765  0.00  0.00    +0.048 A 
ATOM     21  C   UNL     1      -1.925   3.910   6.006  0.00  0.00    +0.023 A 
ATOM     22  C   UNL     1      -2.256   4.789   7.026  0.00  0.00    +0.042 A 
ATOM     23  C   UNL     1      -2.213   6.151   6.812  0.00  0.00    +0.036 A 
ATOM     24  C   UNL     1      -1.833   6.647   5.563  0.00  0.00    +0.079 A 
ATOM     25 CL   UNL     1      -2.728   4.173   8.579  0.00  0.00    -0.084 Cl
BRANCH  24  26
ATOM     26  C   UNL     1      -1.784   8.103   5.327  0.00  0.00    +0.245 C 
ATOM     27  O   UNL     1      -1.454   8.532   4.238  0.00  0.00    -0.270 OA
ATOM     28  N   UNL     1      -2.106   8.957   6.319  0.00  0.00    -0.325 N 
ATOM     29  H   UNL     1      -2.369   8.615   7.187  0.00  0.00    +0.145 HD
ATOM     30  H   UNL     1      -2.073   9.914   6.164  0.00  0.00    +0.145 HD
ENDBRANCH  24  26
ENDBRANCH  18  19
ENDBRANCH  17  18
ENDBRANCH  14  17
TORSDOF 4
