REMARK  Name = ZINC19597420
REMARK  12 active torsions:
REMARK  status: ('A' for Active; 'I' for Inactive)
REMARK    1  A    between atoms: C_1  and  C_2
REMARK    2  A    between atoms: C_2  and  O_3
REMARK    3  A    between atoms: O_3  and  C_4
REMARK    4  A    between atoms: C_4  and  C_6
REMARK    5  A    between atoms: C_7  and  C_23
REMARK    6  A    between atoms: C_9  and  N_22
REMARK    7  A    between atoms: C_10  and  C_20
REMARK    8  A    between atoms: C_11  and  C_13
REMARK    9  A    between atoms: C_23  and  S_24
REMARK   10  A    between atoms: S_24  and  C_25
REMARK   11  A    between atoms: C_26  and  C_36
REMARK   12  A    between atoms: N_33  and  C_35
REMARK                            x       y       z     vdW  Elec       q    Type
REMARK                         _______ _______ _______ _____ _____    ______ ____
ROOT
ATOM      1  C   UNL     1      -2.797  -2.411   0.126  0.00  0.00    +0.088 C 
ATOM      2  C   UNL     1      -2.945  -3.725  -0.086  0.00  0.00    +0.128 C 
ATOM      3  O   UNL     1      -4.155  -4.295  -0.193  0.00  0.00    -0.444 OA
ATOM      4  C   UNL     1      -5.233  -3.535  -0.463  0.00  0.00    +0.198 C 
ATOM      5  C   UNL     1      -5.219  -2.194  -0.270  0.00  0.00    +0.098 C 
ATOM      6  C   UNL     1      -3.990  -1.505   0.262  0.00  0.00    +0.105 C 
ENDROOT
BRANCH   6   7
ATOM      7  C   UNL     1      -4.194  -1.160   1.715  0.00  0.00    -0.034 A 
ATOM      8  C   UNL     1      -4.422  -2.164   2.638  0.00  0.00    +0.006 A 
ATOM      9  C   UNL     1      -4.609  -1.848   3.970  0.00  0.00    +0.020 A 
ATOM     10  C   UNL     1      -4.567  -0.527   4.381  0.00  0.00    +0.041 A 
ATOM     11  C   UNL     1      -4.338   0.477   3.456  0.00  0.00    +0.020 A 
ATOM     12  C   UNL     1      -4.146   0.159   2.125  0.00  0.00    +0.006 A 
ATOM     13 CL   UNL     1      -4.802  -0.130   6.054  0.00  0.00    -0.084 Cl
ENDBRANCH   6   7
BRANCH   4  14
ATOM     14  N   UNL     1      -6.372  -4.132  -0.944  0.00  0.00    -0.328 N 
ATOM     15  H   UNL     1      -6.393  -5.092  -1.086  0.00  0.00    +0.145 HD
ATOM     16  H   UNL     1      -7.154  -3.595  -1.142  0.00  0.00    +0.145 HD
ENDBRANCH   4  14
BRANCH   1  17
ATOM     17  C   UNL     1      -1.494  -1.866   0.231  0.00  0.00    +0.339 C 
ATOM     18  O   UNL     1      -0.999  -1.285  -0.717  0.00  0.00    -0.245 OA
BRANCH  17  19
ATOM     19  O   UNL     1      -0.801  -1.990   1.382  0.00  0.00    -0.462 OA
BRANCH  19  21
ATOM     20  C   UNL     1       1.133  -1.655   2.792  0.00  0.00    +0.048 C 
ATOM     21  C   UNL     1       0.507  -1.416   1.417  0.00  0.00    +0.229 C 
ENDBRANCH  19  21
ENDBRANCH  17  19
ENDBRANCH   1  17
BRANCH   5  22
ATOM     22  C   UNL     1      -6.388  -1.424  -0.572  0.00  0.00    +0.101 C 
ATOM     23  N   UNL     1      -7.315  -0.813  -0.812  0.00  0.00    -0.191 NA
ENDBRANCH   5  22
BRANCH   2  24
ATOM     24  C   UNL     1      -1.716  -4.589  -0.209  0.00  0.00    +0.150 C 
BRANCH  24  25
ATOM     25  S   UNL     1      -1.492  -5.543   1.318  0.00  0.00    -0.097 S 
BRANCH  25  26
ATOM     26  C   UNL     1      -0.036  -6.489   1.020  0.00  0.00    +0.115 A 
ATOM     27  C   UNL     1       0.444  -7.367   2.008  0.00  0.00    +0.084 A 
ATOM     28  C   UNL     1       1.603  -8.101   1.743  0.00  0.00    +0.028 A 
ATOM     29  C   UNL     1       2.232  -7.935   0.516  0.00  0.00    -0.011 A 
ATOM     30  C   UNL     1       1.700  -7.059  -0.407  0.00  0.00    +0.048 A 
ATOM     31  N   UNL     1       0.599  -6.375  -0.134  0.00  0.00    -0.244 NA
ATOM     32  C   UNL     1       2.343  -6.857  -1.758  0.00  0.00    +0.071 C 
ATOM     33  C   UNL     1       3.779  -7.382  -1.737  0.00  0.00    +0.090 C 
ATOM     34  N   UNL     1       3.769  -8.751  -1.197  0.00  0.00    -0.301 NA
ATOM     35  C   UNL     1       3.483  -8.726   0.241  0.00  0.00    +0.121 C 
ATOM     36  C   UNL     1       5.041  -9.433  -1.469  0.00  0.00    +0.105 C 
BRANCH  27  37
ATOM     37  C   UNL     1      -0.240  -7.506   3.259  0.00  0.00    +0.102 C 
ATOM     38  N   UNL     1      -0.783  -7.616   4.251  0.00  0.00    -0.191 NA
ENDBRANCH  27  37
ENDBRANCH  25  26
ENDBRANCH  24  25
ENDBRANCH   2  24
TORSDOF 10
