REMARK  Name = ZINC08743234
REMARK  5 active torsions:
REMARK  status: ('A' for Active; 'I' for Inactive)
REMARK    1  A    between atoms: C_1  and  N_51
REMARK    2  A    between atoms: C_6  and  C_27
REMARK    3  A    between atoms: C_8  and  N_26
REMARK    4  A    between atoms: C_9  and  C_13
REMARK    5  A    between atoms: C_13  and  N_15
REMARK                            x       y       z     vdW  Elec       q    Type
REMARK                         _______ _______ _______ _____ _____    ______ ____
ROOT
ATOM      1  C   UNL     1       3.886  -0.049   3.154  0.00  0.00    -0.096 C 
ATOM      2  C   UNL     1       3.430  -2.028   1.832  0.00  0.00    -0.073 C 
ATOM      3  C   UNL     1       2.271  -2.897   1.344  0.00  0.00    +0.037 C 
ATOM      4  C   UNL     1       1.374  -2.096   0.434  0.00  0.00    +0.043 A 
ATOM      5  C   UNL     1       1.422  -0.719   0.402  0.00  0.00    -0.034 A 
ATOM      6  C   UNL     1       0.566  -0.011  -0.444  0.00  0.00    +0.003 A 
ATOM      7  C   UNL     1      -0.342  -0.733  -1.278  0.00  0.00    +0.037 A 
ATOM      8  C   UNL     1      -1.309  -0.219  -2.230  0.00  0.00    +0.054 A 
ATOM      9  C   UNL     1      -2.082  -1.119  -2.928  0.00  0.00    +0.099 A 
ATOM     10  S   UNL     1      -1.526  -2.699  -2.319  0.00  0.00    -0.062 S 
ATOM     11  C   UNL     1      -0.296  -2.140  -1.165  0.00  0.00    +0.112 A 
ATOM     12  N   UNL     1       0.527  -2.754  -0.346  0.00  0.00    -0.244 NA
ATOM     13  C   UNL     1       2.376   0.064   1.268  0.00  0.00    -0.041 C 
ATOM     14  N   UNL     1       2.860  -0.779   2.374  0.00  0.00    +0.381 N 
ATOM     15  H   UNL     1       2.072  -1.009   2.990  0.00  0.00    -0.082 HD
ENDROOT
BRANCH   6  16
ATOM     16  C   UNL     1       0.602   1.462  -0.481  0.00  0.00    +0.020 A 
ATOM     17  C   UNL     1      -0.334   2.361  -0.035  0.00  0.00    +0.016 A 
ATOM     18  C   UNL     1      -0.077   3.705  -0.173  0.00  0.00    +0.008 A 
ATOM     19  C   UNL     1       1.086   4.101  -0.755  0.00  0.00    +0.046 A 
ATOM     20  S   UNL     1       1.871   2.541  -1.124  0.00  0.00    -0.097 S 
ENDBRANCH   6  16
BRANCH   8  21
ATOM     21  N   UNL     1      -1.452   1.150  -2.431  0.00  0.00    -0.356 N 
ATOM     22  H   UNL     1      -0.744   1.756  -2.161  0.00  0.00    +0.142 HD
ATOM     23  H   UNL     1      -2.259   1.498  -2.842  0.00  0.00    +0.142 HD
ENDBRANCH   8  21
BRANCH   9  24
ATOM     24  C   UNL     1      -3.114  -0.845  -3.931  0.00  0.00    +0.278 C 
ATOM     25  O   UNL     1      -3.376   0.307  -4.237  0.00  0.00    -0.267 OA
BRANCH  24  26
ATOM     26  N   UNL     1      -3.771  -1.860  -4.513  0.00  0.00    -0.152 NA
ATOM     27  C   UNL     1      -4.706  -1.612  -5.420  0.00  0.00    +0.164 A 
ATOM     28  N   UNL     1      -5.139  -0.408  -5.894  0.00  0.00    -0.335 N 
ATOM     29  H   UNL     1      -4.747   0.413  -5.556  0.00  0.00    +0.168 HD
ATOM     30  C   UNL     1      -6.135  -0.353  -6.852  0.00  0.00    +0.055 A 
ATOM     31  C   UNL     1      -6.693   0.794  -7.442  0.00  0.00    +0.027 A 
ATOM     32  C   UNL     1      -7.684   0.690  -8.389  0.00  0.00    +0.002 A 
ATOM     33  C   UNL     1      -8.165  -0.544  -8.793  0.00  0.00    +0.001 A 
ATOM     34  C   UNL     1      -7.635  -1.691  -8.229  0.00  0.00    +0.017 A 
ATOM     35  C   UNL     1      -6.644  -1.587  -7.281  0.00  0.00    +0.039 A 
ATOM     36  S   UNL     1      -5.709  -2.768  -6.339  0.00  0.00    -0.052 S 
ENDBRANCH  24  26
ENDBRANCH   9  24
TORSDOF 4
