REMARK  Name = ZINC05414774
REMARK  5 active torsions:
REMARK  status: ('A' for Active; 'I' for Inactive)
REMARK    1  A    between atoms: C_3  and  S_8
REMARK    2  A    between atoms: S_8  and  N_11
REMARK    3  A    between atoms: C_15  and  C_18
REMARK    4  A    between atoms: N_20  and  C_21
REMARK    5  A    between atoms: N_31  and  C_32
REMARK                            x       y       z     vdW  Elec       q    Type
REMARK                         _______ _______ _______ _____ _____    ______ ____
ROOT
ATOM      1  N   UNL     1      -0.100   6.369  -1.548  0.00  0.00    -0.173 NA
ATOM      2  C   UNL     1      -1.375   6.577  -2.249  0.00  0.00    +0.128 C 
ATOM      3  C   UNL     1      -1.399   8.006  -2.807  0.00  0.00    +0.127 C 
ATOM      4  N   UNL     1      -0.144   8.248  -3.532  0.00  0.00    -0.272 N 
ATOM      5  C   UNL     1       1.130   8.039  -2.831  0.00  0.00    +0.179 C 
ATOM      6  C   UNL     1       1.155   6.616  -2.272  0.00  0.00    +0.141 C 
ATOM      7  C   UNL     1      -0.163   8.654  -4.817  0.00  0.00    +0.303 C 
ATOM      8  O   UNL     1       0.877   8.940  -5.379  0.00  0.00    -0.253 OA
ATOM      9  N   UNL     1      -1.333   8.743  -5.479  0.00  0.00    -0.296 N 
ATOM     10  H   UNL     1      -2.168   8.586  -5.011  0.00  0.00    +0.151 HD
ENDROOT
BRANCH   9  11
ATOM     11  C   UNL     1      -1.344   9.077  -6.906  0.00  0.00    +0.074 C 
ATOM     12  C   UNL     1      -1.301  10.597  -7.074  0.00  0.00    +0.022 C 
ATOM     13  C   UNL     1      -1.313  10.946  -8.564  0.00  0.00    +0.002 C 
ATOM     14  C   UNL     1      -2.588  10.397  -9.206  0.00  0.00    +0.000 C 
ATOM     15  C   UNL     1      -2.631   8.877  -9.038  0.00  0.00    +0.002 C 
ATOM     16  C   UNL     1      -2.620   8.528  -7.548  0.00  0.00    +0.022 C 
ENDBRANCH   9  11
BRANCH   5  17
ATOM     17  C   UNL     1       1.253   9.026  -1.699  0.00  0.00    +0.236 C 
ATOM     18  O   UNL     1       0.262   9.569  -1.258  0.00  0.00    -0.274 OA
ATOM     19  N   UNL     1       2.464   9.306  -1.177  0.00  0.00    -0.302 N 
ATOM     20  H   UNL     1       3.256   8.872  -1.530  0.00  0.00    +0.150 HD
BRANCH  19  21
ATOM     21  C   UNL     1       2.583  10.266  -0.077  0.00  0.00    +0.159 C 
ATOM     22  C   UNL     1       3.845   9.958   0.732  0.00  0.00    +0.033 C 
ATOM     23  C   UNL     1       4.099  11.123   1.696  0.00  0.00    +0.021 C 
ATOM     24  C   UNL     1       4.474  12.361   0.881  0.00  0.00    +0.104 C 
ATOM     25  N   UNL     1       3.500  12.588  -0.179  0.00  0.00    -0.314 N 
ATOM     26  C   UNL     1       2.661  11.658  -0.635  0.00  0.00    +0.233 C 
ATOM     27  O   UNL     1       1.920  11.952  -1.550  0.00  0.00    -0.274 OA
ATOM     28  H   UNL     1       3.459  13.472  -0.577  0.00  0.00    +0.149 HD
ENDBRANCH  19  21
ENDBRANCH   5  17
BRANCH   1  29
ATOM     29  S   UNL     1      -0.078   5.870   0.031  0.00  0.00    +0.061 S 
ATOM     30  O   UNL     1      -1.323   6.256   0.596  0.00  0.00    -0.153 OA
ATOM     31  O   UNL     1       1.167   6.289   0.572  0.00  0.00    -0.153 OA
BRANCH  29  34
ATOM     32  C   UNL     1      -1.227   2.020   0.013  0.00  0.00    +0.040 A 
ATOM     33  C   UNL     1      -1.243   3.401   0.028  0.00  0.00    +0.031 A 
ATOM     34  C   UNL     1      -0.055   4.108   0.020  0.00  0.00    +0.106 A 
ATOM     35  C   UNL     1       1.151   3.433   0.004  0.00  0.00    +0.031 A 
ATOM     36  C   UNL     1       1.171   2.051  -0.004  0.00  0.00    +0.040 A 
ATOM     37  C   UNL     1      -0.019   1.343   0.003  0.00  0.00    +0.124 A 
ATOM     38  F   UNL     1      -0.002  -0.008  -0.005  0.00  0.00    -0.205 F 
ENDBRANCH  29  34
ENDBRANCH   1  29
TORSDOF 5
