REMARK  Name = ZINC35724933
REMARK  15 active torsions:
REMARK  status: ('A' for Active; 'I' for Inactive)
REMARK    1  A    between atoms: C_1  and  C_2
REMARK    2  A    between atoms: C_2  and  C_3
REMARK    3  A    between atoms: C_3  and  C_5
REMARK    4  A    between atoms: C_3  and  C_6
REMARK    5  A    between atoms: C_6  and  C_8
REMARK    6  A    between atoms: C_6  and  N_23
REMARK    7  A    between atoms: C_14  and  C_16
REMARK    8  A    between atoms: C_19  and  C_22
REMARK    9  A    between atoms: N_26  and  C_27
REMARK   10  A    between atoms: C_28  and  C_36
REMARK   11  A    between atoms: C_32  and  C_33
REMARK   12  A    between atoms: C_33  and  C_34
REMARK   13  A    between atoms: C_33  and  C_35
REMARK   14  A    between atoms: C_36  and  C_37
REMARK   15  A    between atoms: C_36  and  C_38
REMARK                            x       y       z     vdW  Elec       q    Type
REMARK                         _______ _______ _______ _____ _____    ______ ____
ROOT
ATOM      1  C   UNL     1      -0.503  -0.611  -1.229  0.00  0.00    +0.163 C 
ENDROOT
BRANCH   1   2
ATOM      2  C   UNL     1       0.515  -0.824  -0.139  0.00  0.00    +0.239 C 
ATOM      3  O   UNL     1       0.756  -1.946   0.254  0.00  0.00    -0.273 OA
ATOM      4  N   UNL     1       1.158   0.231   0.398  0.00  0.00    -0.262 N 
ATOM      5  C   UNL     1       2.025   0.045   1.468  0.00  0.00    +0.188 A 
ATOM      6  N   UNL     1       2.353  -1.074   2.087  0.00  0.00    -0.125 NA
ATOM      7  N   UNL     1       3.165  -1.089   3.055  0.00  0.00    -0.140 NA
ATOM      8  C   UNL     1       3.703   0.056   3.458  0.00  0.00    +0.134 A 
ATOM      9  S   UNL     1       2.938   1.188   2.306  0.00  0.00    -0.030 S 
ATOM     10  H   UNL     1       1.016   1.120   0.038  0.00  0.00    +0.157 HD
BRANCH   8  11
ATOM     11  C   UNL     1       4.666   0.319   4.548  0.00  0.00    +0.009 A 
ATOM     12  C   UNL     1       5.098   1.621   4.803  0.00  0.00    +0.011 A 
ATOM     13  C   UNL     1       5.997   1.860   5.822  0.00  0.00    +0.004 A 
ATOM     14  C   UNL     1       6.470   0.812   6.590  0.00  0.00    -0.050 A 
ATOM     15  C   UNL     1       6.046  -0.482   6.343  0.00  0.00    +0.004 A 
ATOM     16  C   UNL     1       5.143  -0.733   5.331  0.00  0.00    +0.011 A 
ATOM     17  C   UNL     1       7.452   1.080   7.702  0.00  0.00    +0.044 C 
ENDBRANCH   8  11
ENDBRANCH   1   2
BRANCH   1  18
ATOM     18  N   UNL     1      -0.762  -1.881  -1.911  0.00  0.00    -0.288 N 
ATOM     19  C   UNL     1      -1.211  -1.884  -3.182  0.00  0.00    +0.304 C 
ATOM     20  O   UNL     1      -1.401  -0.833  -3.763  0.00  0.00    -0.252 OA
ATOM     21  N   UNL     1      -1.449  -3.053  -3.810  0.00  0.00    -0.269 N 
ATOM     22  H   UNL     1      -0.611  -2.720  -1.449  0.00  0.00    +0.151 HD
ATOM     23  H   UNL     1      -1.362  -3.889  -3.327  0.00  0.00    +0.156 HD
BRANCH  21  24
ATOM     24  C   UNL     1      -1.822  -3.059  -5.159  0.00  0.00    +0.042 A 
ATOM     25  C   UNL     1      -3.113  -3.420  -5.522  0.00  0.00    -0.023 A 
ATOM     26  C   UNL     1      -3.478  -3.425  -6.854  0.00  0.00    +0.006 A 
ATOM     27  C   UNL     1      -2.560  -3.071  -7.826  0.00  0.00    +0.001 A 
ATOM     28  C   UNL     1      -1.274  -2.711  -7.467  0.00  0.00    +0.006 A 
ATOM     29  C   UNL     1      -0.904  -2.699  -6.136  0.00  0.00    -0.023 A 
BRANCH  29  30
ATOM     30  C   UNL     1       0.496  -2.300  -5.746  0.00  0.00    +0.015 C 
ATOM     31  C   UNL     1       1.502  -3.197  -6.470  0.00  0.00    +0.012 C 
ATOM     32  C   UNL     1       0.739  -0.841  -6.139  0.00  0.00    +0.012 C 
ENDBRANCH  29  30
BRANCH  25  33
ATOM     33  C   UNL     1      -4.114  -3.807  -4.464  0.00  0.00    +0.015 C 
ATOM     34  C   UNL     1      -5.351  -2.914  -4.582  0.00  0.00    +0.012 C 
ATOM     35  C   UNL     1      -4.520  -5.270  -4.657  0.00  0.00    +0.012 C 
ENDBRANCH  25  33
ENDBRANCH  21  24
ENDBRANCH   1  18
BRANCH   1  36
ATOM     36  C   UNL     1      -1.804  -0.087  -0.617  0.00  0.00    +0.015 C 
ATOM     37  C   UNL     1      -2.378  -1.137   0.336  0.00  0.00    +0.010 C 
BRANCH  36  39
ATOM     38  C   UNL     1      -4.067   0.839  -1.130  0.00  0.00    +0.004 C 
ATOM     39  C   UNL     1      -2.813   0.199  -1.730  0.00  0.00    +0.002 C 
ENDBRANCH  36  39
ENDBRANCH   1  36
TORSDOF 8
