REMARK  Name = ZINC40936222
REMARK  11 active torsions:
REMARK  status: ('A' for Active; 'I' for Inactive)
REMARK    1  A    between atoms: C_1  and  C_2
REMARK    2  A    between atoms: C_11  and  N_12
REMARK    3  A    between atoms: N_12  and  C_13
REMARK    4  A    between atoms: C_16  and  C_24
REMARK    5  A    between atoms: C_21  and  C_22
REMARK    6  A    between atoms: C_26  and  C_32
REMARK    7  A    between atoms: C_29  and  O_30
REMARK    8  A    between atoms: O_30  and  C_31
REMARK    9  A    between atoms: C_32  and  N_33
REMARK   10  A    between atoms: N_33  and  C_34
REMARK   11  A    between atoms: N_33  and  C_35
REMARK                            x       y       z     vdW  Elec       q    Type
REMARK                         _______ _______ _______ _____ _____    ______ ____
ROOT
ATOM      1  C   UNL     1      -0.117  -0.785   3.562  0.00  0.00    +0.060 A 
ATOM      2  C   UNL     1      -0.301  -0.128   4.811  0.00  0.00    +0.031 A 
ATOM      3  C   UNL     1      -0.793   1.214   5.066  0.00  0.00    +0.028 A 
ATOM      4  C   UNL     1      -0.889   1.645   6.346  0.00  0.00    +0.025 A 
ATOM      5  S   UNL     1      -0.316   0.250   7.297  0.00  0.00    -0.069 S 
ATOM      6  C   UNL     1       0.037  -0.869   5.963  0.00  0.00    +0.111 A 
ATOM      7  N   UNL     1       0.499  -2.103   5.911  0.00  0.00    -0.246 NA
ATOM      8  C   UNL     1       0.677  -2.732   4.768  0.00  0.00    +0.132 A 
ATOM      9  C   UNL     1       0.370  -2.098   3.558  0.00  0.00    +0.092 A 
ENDROOT
BRANCH   4  10
ATOM     10  C   UNL     1      -1.358   2.957   6.838  0.00  0.00    +0.031 A 
ATOM     11  C   UNL     1      -2.364   3.026   7.803  0.00  0.00    +0.014 A 
ATOM     12  C   UNL     1      -2.797   4.255   8.258  0.00  0.00    -0.063 A 
ATOM     13  C   UNL     1      -2.238   5.419   7.761  0.00  0.00    +0.005 A 
ATOM     14  C   UNL     1      -1.242   5.363   6.805  0.00  0.00    +0.046 A 
ATOM     15  C   UNL     1      -0.791   4.138   6.343  0.00  0.00    +0.128 A 
BRANCH  15  16
ATOM     16  O   UNL     1       0.193   4.081   5.407  0.00  0.00    -0.494 OA
ATOM     17  C   UNL     1       0.639   5.323   4.860  0.00  0.00    +0.277 C 
ENDBRANCH  15  16
BRANCH  12  18
ATOM     18  C   UNL     1      -3.883   4.329   9.300  0.00  0.00    -0.044 C 
BRANCH  18  19
ATOM     19  N   UNL     1      -3.279   4.319  10.639  0.00  0.00    +0.379 N 
ATOM     20  C   UNL     1      -4.327   4.512  11.650  0.00  0.00    -0.096 C 
ATOM     21  C   UNL     1      -2.610   3.031  10.865  0.00  0.00    -0.096 C 
ATOM     22  H   UNL     1      -2.604   5.066  10.708  0.00  0.00    -0.082 HD
ENDBRANCH  18  19
ENDBRANCH  12  18
ENDBRANCH   4  10
BRANCH   1  23
ATOM     23  N   UNL     1      -0.420  -0.141   2.375  0.00  0.00    -0.313 N 
ATOM     24  H   UNL     1      -1.314  -0.204   2.003  0.00  0.00    +0.152 HD
BRANCH  23  35
ATOM     25  C   UNL     1      -1.052   0.936  -0.175  0.00  0.00    +0.046 C 
ATOM     26  C   UNL     1       0.295   1.141   0.467  0.00  0.00    -0.020 A 
ATOM     27  C   UNL     1       1.280   1.885  -0.189  0.00  0.00    +0.004 A 
ATOM     28  C   UNL     1       1.337   2.586  -1.474  0.00  0.00    +0.028 A 
ATOM     29  C   UNL     1       2.560   3.130  -1.570  0.00  0.00    +0.083 A 
ATOM     30  N   UNL     1       3.291   2.836  -0.452  0.00  0.00    -0.361 N 
ATOM     31  H   UNL     1       4.204   3.121  -0.293  0.00  0.00    +0.165 HD
ATOM     32  C   UNL     1       2.536   2.074   0.414  0.00  0.00    +0.047 A 
ATOM     33  C   UNL     1       2.788   1.517   1.664  0.00  0.00    +0.028 A 
ATOM     34  C   UNL     1       1.812   0.786   2.302  0.00  0.00    +0.025 A 
ATOM     35  C   UNL     1       0.564   0.600   1.710  0.00  0.00    +0.035 A 
ENDBRANCH  23  35
ENDBRANCH   1  23
BRANCH   9  36
ATOM     36  C   UNL     1       0.559  -2.789   2.318  0.00  0.00    +0.103 C 
ATOM     37  N   UNL     1       0.710  -3.338   1.335  0.00  0.00    -0.191 NA
ENDBRANCH   9  36
TORSDOF 7
