REMARK  Name = ZINC02809823
REMARK  9 active torsions:
REMARK  status: ('A' for Active; 'I' for Inactive)
REMARK    1  A    between atoms: C_1  and  C_2
REMARK    2  A    between atoms: C_5  and  N_8
REMARK    3  A    between atoms: C_12  and  C_15
REMARK    4  A    between atoms: N_17  and  C_18
REMARK    5  A    between atoms: C_18  and  C_19
REMARK    6  A    between atoms: C_19  and  C_20
REMARK    7  A    between atoms: C_20  and  O_21
REMARK    8  A    between atoms: C_25  and  C_27
REMARK    9  A    between atoms: C_25  and  C_28
REMARK                            x       y       z     vdW  Elec       q    Type
REMARK                         _______ _______ _______ _____ _____    ______ ____
ROOT
ATOM      1  N   UNL     1       0.223  -4.239   0.136  0.00  0.00    -0.280 N 
ATOM      2  C   UNL     1       0.715  -4.911  -0.927  0.00  0.00    +0.038 A 
ATOM      3  C   UNL     1       1.291  -4.228  -1.984  0.00  0.00    +0.038 A 
ATOM      4  C   UNL     1       1.382  -2.819  -1.967  0.00  0.00    +0.031 A 
ATOM      5  C   UNL     1       0.886  -2.128  -0.870  0.00  0.00    +0.102 A 
ATOM      6  C   UNL     1       0.279  -2.900   0.217  0.00  0.00    +0.268 A 
ATOM      7  O   UNL     1      -0.175  -2.328   1.192  0.00  0.00    -0.266 OA
ATOM      8  C   UNL     1       1.814  -4.962  -3.149  0.00  0.00    +0.165 C 
ATOM      9  O   UNL     1       2.130  -4.381  -4.165  0.00  0.00    -0.292 OA
ATOM     10  C   UNL     1       1.944  -6.467  -3.037  0.00  0.00    +0.086 C 
ATOM     11  C   UNL     1       0.680  -6.982  -2.336  0.00  0.00    -0.023 C 
ATOM     12  C   UNL     1       0.623  -6.416  -0.920  0.00  0.00    +0.061 C 
ATOM     13  C   UNL     1      -0.557  -6.530  -3.116  0.00  0.00    +0.011 C 
ATOM     14  C   UNL     1       0.716  -8.510  -2.275  0.00  0.00    +0.011 C 
ENDROOT
BRANCH   1  19
ATOM     15  C   UNL     1      -2.150  -7.159   4.383  0.00  0.00    +0.044 C 
ATOM     16  C   UNL     1      -1.520  -6.383   3.255  0.00  0.00    -0.050 A 
ATOM     17  C   UNL     1      -2.318  -5.691   2.364  0.00  0.00    +0.005 A 
ATOM     18  C   UNL     1      -1.744  -4.979   1.329  0.00  0.00    +0.026 A 
ATOM     19  C   UNL     1      -0.363  -4.960   1.184  0.00  0.00    +0.050 A 
ATOM     20  C   UNL     1       0.436  -5.662   2.077  0.00  0.00    +0.026 A 
ATOM     21  C   UNL     1      -0.144  -6.367   3.114  0.00  0.00    +0.005 A 
ENDBRANCH   1  19
BRANCH   5  22
ATOM     22  C   UNL     1       0.963  -0.660  -0.804  0.00  0.00    +0.249 C 
ATOM     23  O   UNL     1       1.396  -0.030  -1.750  0.00  0.00    -0.270 OA
ATOM     24  N   UNL     1       0.554  -0.013   0.306  0.00  0.00    -0.311 N 
ATOM     25  H   UNL     1       0.156  -0.510   1.038  0.00  0.00    +0.149 HD
BRANCH  24  26
ATOM     26  C   UNL     1       0.712   1.440   0.406  0.00  0.00    +0.107 C 
BRANCH  26  27
ATOM     27  C   UNL     1       0.172   1.919   1.755  0.00  0.00    +0.046 C 
BRANCH  27  28
ATOM     28  C   UNL     1       0.336   3.437   1.860  0.00  0.00    +0.157 C 
BRANCH  28  29
ATOM     29  O   UNL     1      -0.168   3.884   3.120  0.00  0.00    -0.395 OA
ATOM     30  H   UNL     1      -0.096   4.839   3.256  0.00  0.00    +0.209 HD
ENDBRANCH  28  29
ENDBRANCH  27  28
ENDBRANCH  26  27
ENDBRANCH  24  26
ENDBRANCH   5  22
TORSDOF 6
