REMARK  Name = ZINC06300888
REMARK  7 active torsions:
REMARK  status: ('A' for Active; 'I' for Inactive)
REMARK    1  A    between atoms: C_1  and  C_2
REMARK    2  A    between atoms: C_4  and  C_37
REMARK    3  A    between atoms: C_9  and  C_14
REMARK    4  A    between atoms: C_14  and  C_16
REMARK    5  A    between atoms: C_14  and  N_64
REMARK    6  A    between atoms: N_20  and  C_21
REMARK    7  A    between atoms: C_21  and  C_22
REMARK                            x       y       z     vdW  Elec       q    Type
REMARK                         _______ _______ _______ _____ _____    ______ ____
ROOT
ATOM      1  C   UNL     1       1.036   3.609  -0.020  0.00  0.00    +0.039 C 
ENDROOT
BRANCH   1  10
ATOM      2  C   UNL     1       7.315  -0.406   0.214  0.00  0.00    +0.044 C 
ATOM      3  C   UNL     1       5.840  -0.289  -0.071  0.00  0.00    -0.050 A 
ATOM      4  C   UNL     1       5.138  -1.395  -0.530  0.00  0.00    +0.008 A 
ATOM      5  C   UNL     1       3.789  -1.311  -0.798  0.00  0.00    -0.026 A 
ATOM      6  C   UNL     1       3.121  -0.106  -0.606  0.00  0.00    +0.052 A 
ATOM      7  C   UNL     1       3.837   1.014  -0.140  0.00  0.00    -0.001 A 
ATOM      8  C   UNL     1       5.206   0.904   0.125  0.00  0.00    +0.013 A 
ATOM      9  C   UNL     1       3.125   2.278   0.059  0.00  0.00    +0.017 A 
ATOM     10  C   UNL     1       1.798   2.324  -0.214  0.00  0.00    +0.011 A 
ATOM     11  C   UNL     1       1.127   1.172  -0.679  0.00  0.00    +0.251 A 
ATOM     12  O   UNL     1      -0.065   1.237  -0.923  0.00  0.00    -0.268 OA
ATOM     13  N   UNL     1       1.772   0.007  -0.865  0.00  0.00    -0.322 N 
ATOM     14  H   UNL     1       1.281  -0.765  -1.186  0.00  0.00    +0.169 HD
ATOM     15  C   UNL     1       3.039  -2.520  -1.296  0.00  0.00    +0.046 C 
ENDBRANCH   1  10
BRANCH   1  25
ATOM     16  C   UNL     1      -0.816   4.626   1.169  0.00  0.00    -0.072 C 
ATOM     17  C   UNL     1      -2.182   4.287   1.764  0.00  0.00    +0.017 C 
ATOM     18  C   UNL     1      -2.023   3.288   2.882  0.00  0.00    -0.048 A 
ATOM     19  C   UNL     1      -3.074   3.119   3.771  0.00  0.00    +0.004 A 
ATOM     20  C   UNL     1      -2.971   2.212   4.807  0.00  0.00    +0.000 A 
ATOM     21  C   UNL     1      -1.815   1.469   4.959  0.00  0.00    +0.000 A 
ATOM     22  C   UNL     1      -0.768   1.639   4.075  0.00  0.00    +0.002 A 
ATOM     23  C   UNL     1      -0.869   2.551   3.035  0.00  0.00    -0.061 A 
ATOM     24  C   UNL     1       0.301   2.703   2.099  0.00  0.00    -0.041 C 
ATOM     25  N   UNL     1      -0.133   3.355   0.852  0.00  0.00    +0.392 N 
ATOM     26  H   UNL     1      -0.788   2.736   0.361  0.00  0.00    -0.080 HD
ENDBRANCH   1  25
BRANCH   1  27
ATOM     27  C   UNL     1       0.550   4.111  -1.355  0.00  0.00    +0.143 A 
ATOM     28  N   UNL     1      -0.339   3.539  -2.130  0.00  0.00    -0.115 NA
ATOM     29  N   UNL     1      -0.485   4.274  -3.179  0.00  0.00    -0.023 NA
ATOM     30  N   UNL     1       0.295   5.295  -3.097  0.00  0.00    -0.044 NA
ATOM     31  N   UNL     1       0.949   5.231  -1.987  0.00  0.00    -0.226 N 
BRANCH  31  32
ATOM     32  C   UNL     1       1.941   6.196  -1.504  0.00  0.00    +0.182 C 
BRANCH  32  33
ATOM     33  C   UNL     1       3.283   5.883  -2.113  0.00  0.00    -0.026 A 
ATOM     34  C   UNL     1       4.204   5.130  -1.408  0.00  0.00    +0.005 A 
ATOM     35  C   UNL     1       5.433   4.839  -1.969  0.00  0.00    +0.000 A 
ATOM     36  C   UNL     1       5.747   5.310  -3.230  0.00  0.00    +0.000 A 
ATOM     37  C   UNL     1       4.828   6.067  -3.933  0.00  0.00    +0.000 A 
ATOM     38  C   UNL     1       3.596   6.353  -3.375  0.00  0.00    +0.005 A 
ENDBRANCH  32  33
ENDBRANCH  31  32
ENDBRANCH   1  27
TORSDOF 5
