REMARK  Name = ZINC45829922
REMARK  9 active torsions:
REMARK  status: ('A' for Active; 'I' for Inactive)
REMARK    1  A    between atoms: C_1  and  C_2
REMARK    2  A    between atoms: C_2  and  C_3
REMARK    3  A    between atoms: C_2  and  C_4
REMARK    4  A    between atoms: C_4  and  C_6
REMARK    5  A    between atoms: C_4  and  N_13
REMARK    6  A    between atoms: C_14  and  C_16
REMARK    7  A    between atoms: C_16  and  N_17
REMARK    8  A    between atoms: C_20  and  C_24
REMARK    9  A    between atoms: C_20  and  C_25
REMARK                            x       y       z     vdW  Elec       q    Type
REMARK                         _______ _______ _______ _____ _____    ______ ____
ROOT
ATOM      1  C   UNL     1       3.801   1.741   1.718  0.00  0.00    +0.213 C 
ENDROOT
BRANCH   1   2
ATOM      2  N   UNL     1       3.832   3.081   2.308  0.00  0.00    -0.215 N 
ATOM      3  C   UNL     1       3.669   4.221   1.608  0.00  0.00    +0.251 C 
ATOM      4  O   UNL     1       3.478   4.327   0.415  0.00  0.00    -0.272 OA
ATOM      5  C   UNL     1       3.775   5.343   2.621  0.00  0.00    +0.135 C 
ATOM      6  N   UNL     1       4.006   4.639   3.895  0.00  0.00    -0.281 N 
ATOM      7  C   UNL     1       4.018   3.325   3.611  0.00  0.00    +0.310 C 
ATOM      8  O   UNL     1       4.183   2.455   4.444  0.00  0.00    -0.252 OA
ATOM      9  C   UNL     1       2.472   6.143   2.677  0.00  0.00    +0.047 C 
ATOM     10  H   UNL     1       4.124   5.045   4.768  0.00  0.00    +0.152 HD
BRANCH   5  11
ATOM     11  C   UNL     1       4.938   6.245   2.295  0.00  0.00    -0.015 A 
ATOM     12  C   UNL     1       5.332   6.415   0.981  0.00  0.00    +0.009 A 
ATOM     13  C   UNL     1       6.398   7.241   0.680  0.00  0.00    +0.039 A 
ATOM     14  C   UNL     1       7.071   7.899   1.696  0.00  0.00    +0.123 A 
ATOM     15  C   UNL     1       6.675   7.728   3.012  0.00  0.00    +0.039 A 
ATOM     16  C   UNL     1       5.606   6.905   3.309  0.00  0.00    +0.009 A 
ATOM     17  F   UNL     1       8.114   8.707   1.403  0.00  0.00    -0.205 F 
ENDBRANCH   5  11
ENDBRANCH   1   2
BRANCH   1  19
ATOM     18  N   UNL     1       2.116  -0.004   1.231  0.00  0.00    -0.307 N 
ATOM     19  C   UNL     1       2.387   1.219   1.728  0.00  0.00    +0.231 C 
ATOM     20  O   UNL     1       1.493   1.900   2.184  0.00  0.00    -0.274 OA
ATOM     21  H   UNL     1       2.832  -0.548   0.866  0.00  0.00    +0.149 HD
BRANCH  18  22
ATOM     22  C   UNL     1       0.742  -0.511   1.242  0.00  0.00    +0.106 C 
BRANCH  22  23
ATOM     23  C   UNL     1       0.762  -2.018   1.233  0.00  0.00    -0.027 A 
ATOM     24  C   UNL     1       1.685  -2.692   0.456  0.00  0.00    +0.007 A 
ATOM     25  C   UNL     1       1.705  -4.074   0.448  0.00  0.00    +0.020 A 
ATOM     26  C   UNL     1       0.800  -4.783   1.218  0.00  0.00    +0.041 A 
ATOM     27  C   UNL     1      -0.123  -4.107   1.996  0.00  0.00    +0.020 A 
ATOM     28  C   UNL     1      -0.138  -2.725   2.008  0.00  0.00    +0.007 A 
ATOM     29 CL   UNL     1       0.823  -6.518   1.208  0.00  0.00    -0.084 Cl
ENDBRANCH  22  23
BRANCH  22  31
ATOM     30  C   UNL     1      -0.019   1.526   0.010  0.00  0.00    +0.009 C 
ATOM     31  C   UNL     1       0.002  -0.004   0.002  0.00  0.00    +0.008 C 
ATOM     32  C   UNL     1       0.718  -0.497  -1.257  0.00  0.00    +0.009 C 
ENDBRANCH  22  31
ENDBRANCH  18  22
ENDBRANCH   1  19
TORSDOF 6
