REMARK  Name = ZINC63205826
REMARK  5 active torsions:
REMARK  status: ('A' for Active; 'I' for Inactive)
REMARK    1  A    between atoms: C_1  and  N_2
REMARK    2  A    between atoms: N_12  and  C_21
REMARK    3  A    between atoms: C_21  and  C_22
REMARK    4  A    between atoms: C_22  and  S_23
REMARK    5  A    between atoms: S_23  and  C_24
REMARK                            x       y       z     vdW  Elec       q    Type
REMARK                         _______ _______ _______ _____ _____    ______ ____
ROOT
ATOM      1  C   UNL     1       0.820   0.896   0.197  0.00  0.00    +0.136 C 
ATOM      2  N   UNL     1       0.379  -0.470  -0.096  0.00  0.00    -0.264 N 
ATOM      3  C   UNL     1      -1.022  -0.833   0.072  0.00  0.00    +0.203 C 
ATOM      4  C   UNL     1      -1.496  -1.680  -1.136  0.00  0.00    +0.205 C 
ATOM      5  C   UNL     1      -0.385  -2.590  -1.586  0.00  0.00    +0.264 C 
ATOM      6  N   UNL     1       0.885  -2.388  -1.280  0.00  0.00    -0.126 NA
ATOM      7  C   UNL     1       1.279  -1.393  -0.530  0.00  0.00    +0.330 C 
ATOM      8  O   UNL     1       2.581  -1.265  -0.214  0.00  0.00    -0.250 OA
ATOM      9  O   UNL     1      -0.670  -3.557  -2.264  0.00  0.00    -0.271 OA
ATOM     10  N   UNL     1      -2.524  -2.513  -0.450  0.00  0.00    -0.289 N 
ATOM     11  C   UNL     1      -2.045  -2.696   0.831  0.00  0.00    +0.161 C 
ATOM     12  N   UNL     1      -1.202  -1.758   1.202  0.00  0.00    -0.340 N 
ATOM     13  N   UNL     1      -2.419  -3.743   1.641  0.00  0.00    -0.305 N 
ATOM     14  C   UNL     1      -1.411  -4.514   2.381  0.00  0.00    +0.107 C 
ATOM     15  C   UNL     1      -1.795  -4.532   3.864  0.00  0.00    +0.019 C 
ATOM     16  C   UNL     1      -3.224  -5.062   4.010  0.00  0.00    +0.003 C 
ATOM     17  C   UNL     1      -4.191  -4.134   3.272  0.00  0.00    +0.019 C 
ATOM     18  C   UNL     1      -3.835  -4.107   1.787  0.00  0.00    +0.107 C 
ATOM     19  H   UNL     1      -0.766  -1.688   2.066  0.00  0.00    +0.164 HD
ENDROOT
BRANCH  10  20
ATOM     20  C   UNL     1      -3.776  -3.025  -1.013  0.00  0.00    +0.119 C 
BRANCH  20  21
ATOM     21  C   UNL     1      -3.498  -4.322  -1.775  0.00  0.00    +0.092 C 
BRANCH  21  22
ATOM     22  S   UNL     1      -5.006  -4.854  -2.632  0.00  0.00    -0.113 S 
BRANCH  22  23
ATOM     23  C   UNL     1      -4.515  -6.383  -3.475  0.00  0.00    +0.235 C 
ATOM     24  N   UNL     1      -3.372  -6.127  -4.360  0.00  0.00    -0.355 N 
ATOM     25  C   UNL     1      -2.386  -6.871  -3.950  0.00  0.00    +0.061 A 
ATOM     26  C   UNL     1      -1.006  -7.050  -4.422  0.00  0.00    +0.027 A 
ATOM     27  C   UNL     1      -0.191  -7.913  -3.783  0.00  0.00    +0.002 A 
ATOM     28  C   UNL     1      -0.605  -8.662  -2.667  0.00  0.00    +0.002 A 
ATOM     29  C   UNL     1      -1.848  -8.573  -2.153  0.00  0.00    +0.027 A 
ATOM     30  C   UNL     1      -2.824  -7.663  -2.768  0.00  0.00    +0.061 A 
ATOM     31  N   UNL     1      -4.064  -7.378  -2.494  0.00  0.00    -0.355 N 
ATOM     32  H   UNL     1      -3.354  -5.515  -5.112  0.00  0.00    +0.162 HD
ATOM     33  H   UNL     1      -4.593  -7.753  -1.772  0.00  0.00    +0.162 HD
ENDBRANCH  22  23
ENDBRANCH  21  22
ENDBRANCH  20  21
ENDBRANCH  10  20
TORSDOF 4
