REMARK  Name = ZINC15101529
REMARK  12 active torsions:
REMARK  status: ('A' for Active; 'I' for Inactive)
REMARK    1  A    between atoms: C_1  and  C_2
REMARK    2  A    between atoms: C_5  and  N_9
REMARK    3  A    between atoms: C_6  and  C_8
REMARK    4  A    between atoms: C_10  and  C_12
REMARK    5  A    between atoms: C_13  and  C_36
REMARK    6  A    between atoms: C_19  and  C_23
REMARK    7  A    between atoms: C_23  and  N_24
REMARK    8  A    between atoms: N_24  and  C_25
REMARK    9  A    between atoms: N_24  and  C_26
REMARK   10  A    between atoms: C_26  and  C_27
REMARK   11  A    between atoms: C_27  and  O_28
REMARK   12  A    between atoms: O_28  and  C_29
REMARK                            x       y       z     vdW  Elec       q    Type
REMARK                         _______ _______ _______ _____ _____    ______ ____
ROOT
ATOM      1  C   UNL     1       0.309  -6.161  -0.522  0.00  0.00    +0.080 A 
ATOM      2  C   UNL     1       0.091  -6.900  -1.648  0.00  0.00    -0.017 A 
ATOM      3  C   UNL     1      -0.075  -8.283  -1.550  0.00  0.00    +0.076 A 
ATOM      4  C   UNL     1      -0.320  -9.274  -2.623  0.00  0.00    +0.260 A 
ATOM      5  O   UNL     1      -0.404  -8.927  -3.787  0.00  0.00    -0.267 OA
ATOM      6  N   UNL     1      -0.447 -10.570  -2.277  0.00  0.00    -0.312 N 
ATOM      7  H   UNL     1      -0.608 -11.232  -2.968  0.00  0.00    +0.170 HD
ATOM      8  C   UNL     1      -0.355 -10.969  -0.985  0.00  0.00    +0.094 A 
ATOM      9  N   UNL     1      -0.140 -10.121  -0.015  0.00  0.00    -0.229 NA
ATOM     10  C   UNL     1       0.001  -8.822  -0.245  0.00  0.00    +0.116 A 
ATOM     11  S   UNL     1       0.302  -7.396   0.767  0.00  0.00    -0.064 S 
ATOM     12  C   UNL     1       0.027  -6.224  -2.994  0.00  0.00    +0.046 C 
ENDROOT
BRANCH   1  14
ATOM     13  N   UNL     1       0.718  -4.161   0.810  0.00  0.00    -0.281 N 
ATOM     14  C   UNL     1       0.507  -4.714  -0.401  0.00  0.00    +0.255 C 
ATOM     15  O   UNL     1       0.482  -4.011  -1.395  0.00  0.00    -0.269 OA
ATOM     16  H   UNL     1       0.806  -4.727   1.593  0.00  0.00    +0.155 HD
BRANCH  13  21
ATOM     17  C   UNL     1       1.086   1.476   1.328  0.00  0.00    +0.044 C 
ATOM     18  C   UNL     1       0.989  -0.022   1.190  0.00  0.00    -0.050 A 
ATOM     19  C   UNL     1       1.469  -0.643   0.052  0.00  0.00    +0.005 A 
ATOM     20  C   UNL     1       1.381  -2.015  -0.077  0.00  0.00    +0.024 A 
ATOM     21  C   UNL     1       0.809  -2.771   0.938  0.00  0.00    +0.037 A 
ATOM     22  C   UNL     1       0.328  -2.145   2.080  0.00  0.00    -0.029 A 
ATOM     23  C   UNL     1       0.424  -0.772   2.205  0.00  0.00    +0.008 A 
ATOM     24  C   UNL     1      -0.293  -2.961   3.184  0.00  0.00    +0.045 C 
ENDBRANCH  13  21
ENDBRANCH   1  14
BRANCH   8  25
ATOM     25  C   UNL     1      -0.505 -12.432  -0.657  0.00  0.00    -0.003 C 
BRANCH  25  26
ATOM     26  N   UNL     1      -0.369 -12.626   0.792  0.00  0.00    +0.385 N 
ATOM     27  C   UNL     1      -1.480 -11.957   1.482  0.00  0.00    -0.095 C 
ATOM     28  H   UNL     1       0.506 -12.232   1.104  0.00  0.00    -0.081 HD
BRANCH  26  29
ATOM     29  C   UNL     1      -0.395 -14.062   1.099  0.00  0.00    -0.037 C 
BRANCH  29  30
ATOM     30  C   UNL     1       0.847 -14.732   0.510  0.00  0.00    +0.210 C 
BRANCH  30  31
ATOM     31  O   UNL     1       2.017 -14.205   1.140  0.00  0.00    -0.494 OA
BRANCH  31  32
ATOM     32  C   UNL     1       3.215 -14.699   0.728  0.00  0.00    +0.121 A 
ATOM     33  C   UNL     1       3.263 -15.665  -0.265  0.00  0.00    +0.048 A 
ATOM     34  C   UNL     1       4.482 -16.166  -0.682  0.00  0.00    +0.042 A 
ATOM     35  C   UNL     1       5.654 -15.703  -0.109  0.00  0.00    +0.124 A 
ATOM     36  C   UNL     1       5.607 -14.738   0.883  0.00  0.00    +0.042 A 
ATOM     37  C   UNL     1       4.390 -14.231   1.298  0.00  0.00    +0.048 A 
ATOM     38  F   UNL     1       6.845 -16.194  -0.517  0.00  0.00    -0.205 F 
ENDBRANCH  31  32
ENDBRANCH  30  31
ENDBRANCH  29  30
ENDBRANCH  26  29
ENDBRANCH  25  26
ENDBRANCH   8  25
TORSDOF 8
