REMARK  Name = ZINC02474547
REMARK  5 active torsions:
REMARK  status: ('A' for Active; 'I' for Inactive)
REMARK    1  A    between atoms: C_1  and  O_2
REMARK    2  A    between atoms: O_2  and  C_3
REMARK    3  A    between atoms: C_6  and  C_11
REMARK    4  A    between atoms: C_8  and  O_9
REMARK    5  A    between atoms: O_9  and  C_10
REMARK                            x       y       z     vdW  Elec       q    Type
REMARK                         _______ _______ _______ _____ _____    ______ ____
ROOT
ATOM      1  C   UNL     1       2.590  -2.548   4.315  0.00  0.00    +0.190 C 
ATOM      2  N   UNL     1       2.487  -1.691   5.510  0.00  0.00    -0.316 N 
ATOM      3  C   UNL     1       1.315  -1.765   6.223  0.00  0.00    +0.080 A 
ATOM      4  C   UNL     1       0.486  -2.896   6.190  0.00  0.00    +0.068 A 
ATOM      5  C   UNL     1      -0.724  -2.811   6.990  0.00  0.00    -0.023 A 
ATOM      6  C   UNL     1      -0.873  -1.648   7.662  0.00  0.00    -0.005 A 
ATOM      7  S   UNL     1       0.559  -0.694   7.239  0.00  0.00    -0.078 S 
ATOM      8  C   UNL     1      -2.007  -1.265   8.561  0.00  0.00    +0.043 C 
ATOM      9  C   UNL     1      -3.167  -2.241   8.318  0.00  0.00    +0.005 C 
ATOM     10  C   UNL     1      -2.622  -3.672   8.335  0.00  0.00    +0.005 C 
ATOM     11  C   UNL     1      -1.764  -3.918   7.093  0.00  0.00    +0.037 C 
ATOM     12  C   UNL     1       0.921  -4.045   5.364  0.00  0.00    +0.248 C 
ATOM     13  O   UNL     1       0.353  -5.120   5.423  0.00  0.00    -0.270 OA
ATOM     14  N   UNL     1       1.974  -3.850   4.543  0.00  0.00    -0.289 N 
ATOM     15  H   UNL     1       3.210  -1.103   5.779  0.00  0.00    +0.149 HD
ATOM     16  H   UNL     1       2.341  -4.619   4.079  0.00  0.00    +0.151 HD
ENDROOT
BRANCH   1  20
ATOM     17  C   UNL     1       0.626  -0.619   1.042  0.00  0.00    +0.162 A 
ATOM     18  C   UNL     1       1.202   0.137   2.051  0.00  0.00    +0.050 A 
ATOM     19  C   UNL     1       1.836  -0.490   3.108  0.00  0.00    +0.011 A 
ATOM     20  C   UNL     1       1.897  -1.870   3.161  0.00  0.00    -0.006 A 
ATOM     21  C   UNL     1       1.325  -2.630   2.158  0.00  0.00    +0.056 A 
ATOM     22  C   UNL     1       0.683  -2.008   1.099  0.00  0.00    +0.162 A 
BRANCH  17  24
ATOM     23  C   UNL     1      -0.017   1.425   0.010  0.00  0.00    +0.277 C 
ATOM     24  O   UNL     1       0.002  -0.004   0.002  0.00  0.00    -0.491 OA
ENDBRANCH  17  24
BRANCH  22  25
ATOM     25  O   UNL     1       0.115  -2.754   0.114  0.00  0.00    -0.491 OA
ATOM     26  C   UNL     1       0.211  -4.174   0.238  0.00  0.00    +0.277 C 
ENDBRANCH  22  25
ENDBRANCH   1  20
TORSDOF 3
