REMARK  Name = ZINC54413942
REMARK  3 active torsions:
REMARK  status: ('A' for Active; 'I' for Inactive)
REMARK    1  A    between atoms: C_3  and  N_8
REMARK    2  A    between atoms: C_9  and  C_13
REMARK    3  A    between atoms: C_16  and  N_20
REMARK                            x       y       z     vdW  Elec       q    Type
REMARK                         _______ _______ _______ _____ _____    ______ ____
ROOT
ATOM      1  N   UNL     1       3.538   2.247   0.144  0.00  0.00    -0.193 N 
ATOM      2  C   UNL     1       4.731   1.831   0.658  0.00  0.00    +0.187 A 
ATOM      3  N   UNL     1       5.653   2.653   0.199  0.00  0.00    -0.108 NA
ATOM      4  N   UNL     1       5.123   3.544  -0.559  0.00  0.00    -0.022 NA
ATOM      5  N   UNL     1       3.850   3.365  -0.648  0.00  0.00    -0.039 NA
ENDROOT
BRANCH   1   8
ATOM      6  C   UNL     1       0.648   0.725   1.838  0.00  0.00    +0.003 A 
ATOM      7  C   UNL     1       1.894   1.284   1.632  0.00  0.00    +0.028 A 
ATOM      8  C   UNL     1       2.274   1.678   0.356  0.00  0.00    +0.070 A 
ATOM      9  C   UNL     1       1.401   1.508  -0.709  0.00  0.00    +0.043 A 
ATOM     10  C   UNL     1       0.155   0.947  -0.497  0.00  0.00    +0.020 A 
ATOM     11  C   UNL     1      -0.221   0.556   0.776  0.00  0.00    +0.015 A 
ATOM     12 BR   UNL     1      -1.036   0.715  -1.947  0.00  0.00    -0.050 Br
ENDBRANCH   1   8
BRANCH   2  13
ATOM     13  C   UNL     1       4.950   0.678   1.558  0.00  0.00    +0.024 A 
ATOM     14  C   UNL     1       4.125  -0.445   1.469  0.00  0.00    +0.013 A 
ATOM     15  C   UNL     1       4.330  -1.518   2.308  0.00  0.00    +0.026 A 
ATOM     16  C   UNL     1       5.357  -1.484   3.245  0.00  0.00    +0.060 A 
ATOM     17  C   UNL     1       6.181  -0.365   3.338  0.00  0.00    +0.145 A 
ATOM     18  C   UNL     1       5.984   0.709   2.496  0.00  0.00    +0.052 A 
ATOM     19  F   UNL     1       7.178  -0.335   4.250  0.00  0.00    -0.204 F 
BRANCH  16  20
ATOM     20  N   UNL     1       5.561  -2.572   4.094  0.00  0.00    -0.356 N 
ATOM     21  H   UNL     1       4.988  -3.352   4.031  0.00  0.00    +0.142 HD
ATOM     22  H   UNL     1       6.278  -2.550   4.748  0.00  0.00    +0.142 HD
ENDBRANCH  16  20
ENDBRANCH   2  13
TORSDOF 3
