REMARK  Name = ZINC65182091
REMARK  8 active torsions:
REMARK  status: ('A' for Active; 'I' for Inactive)
REMARK    1  A    between atoms: C_1  and  C_2
REMARK    2  A    between atoms: C_7  and  C_12
REMARK    3  A    between atoms: C_15  and  C_18
REMARK    4  A    between atoms: C_18  and  C_19
REMARK    5  A    between atoms: C_19  and  N_20
REMARK    6  A    between atoms: N_20  and  C_21
REMARK    7  A    between atoms: C_22  and  C_24
REMARK    8  A    between atoms: C_24  and  C_25
REMARK                            x       y       z     vdW  Elec       q    Type
REMARK                         _______ _______ _______ _____ _____    ______ ____
ROOT
ATOM      1  C   UNL     1       1.333  -5.180   1.847  0.00  0.00    +0.318 C 
ATOM      2  N   UNL     1       1.414  -6.438   1.087  0.00  0.00    -0.291 N 
ATOM      3  C   UNL     1       1.400  -7.460   2.007  0.00  0.00    +0.139 C 
ATOM      4  N   UNL     1       1.323  -7.013   3.207  0.00  0.00    -0.072 NA
ATOM      5  O   UNL     1       1.277  -5.596   3.221  0.00  0.00    -0.367 OA
ATOM      6  H   UNL     1       1.467  -6.528   0.123  0.00  0.00    +0.151 HD
ENDROOT
BRANCH   1  13
ATOM      7  C   UNL     1      -0.018   1.503   0.010  0.00  0.00    +0.044 C 
ATOM      8  C   UNL     1       0.002  -0.004   0.002  0.00  0.00    -0.050 A 
ATOM      9  C   UNL     1       0.005  -0.680  -1.226  0.00  0.00    +0.005 A 
ATOM     10  C   UNL     1       0.023  -2.026  -1.317  0.00  0.00    +0.026 A 
ATOM     11  C   UNL     1       0.039  -2.826  -0.141  0.00  0.00    +0.043 A 
ATOM     12  N   UNL     1       0.057  -4.126   0.030  0.00  0.00    -0.373 N 
ATOM     13  C   UNL     1       0.067  -4.408   1.470  0.00  0.00    +0.165 C 
ATOM     14  C   UNL     1       0.052  -3.060   2.156  0.00  0.00    +0.012 C 
ATOM     15  C   UNL     1       0.036  -2.137   1.168  0.00  0.00    -0.004 A 
ATOM     16  C   UNL     1       0.022  -0.669   1.180  0.00  0.00    +0.013 A 
ATOM     17  H   UNL     1       0.062  -4.790  -0.677  0.00  0.00    +0.160 HD
ENDBRANCH   1  13
BRANCH   3  18
ATOM     18  C   UNL     1       1.467  -8.923   1.649  0.00  0.00    +0.094 C 
BRANCH  18  19
ATOM     19  C   UNL     1       1.429  -9.762   2.928  0.00  0.00    +0.115 C 
BRANCH  19  20
ATOM     20  N   UNL     1       1.493 -11.184   2.581  0.00  0.00    -0.304 N 
ATOM     21  C   UNL     1       2.792 -11.853   2.472  0.00  0.00    +0.132 C 
ATOM     22  C   UNL     1       0.358 -11.876   2.361  0.00  0.00    +0.220 C 
ATOM     23  O   UNL     1      -0.717 -11.322   2.450  0.00  0.00    -0.275 OA
BRANCH  22  24
ATOM     24  C   UNL     1       0.425 -13.339   2.003  0.00  0.00    +0.138 C 
BRANCH  24  25
ATOM     25  C   UNL     1      -0.971 -13.873   1.811  0.00  0.00    -0.001 A 
ATOM     26  C   UNL     1      -1.715 -13.929   0.679  0.00  0.00    +0.011 A 
ATOM     27  C   UNL     1      -2.986 -14.469   0.739  0.00  0.00    +0.008 A 
ATOM     28  C   UNL     1      -3.451 -14.926   1.927  0.00  0.00    +0.045 A 
ATOM     29  S   UNL     1      -2.071 -14.604   3.013  0.00  0.00    -0.101 S 
ENDBRANCH  24  25
ENDBRANCH  22  24
ENDBRANCH  19  20
ENDBRANCH  18  19
ENDBRANCH   3  18
TORSDOF 6
