REMARK  Name = ZINC04203114
REMARK  14 active torsions:
REMARK  status: ('A' for Active; 'I' for Inactive)
REMARK    1  A    between atoms: C_1  and  C_2
REMARK    2  A    between atoms: C_2  and  O_3
REMARK    3  A    between atoms: O_3  and  C_4
REMARK    4  A    between atoms: C_4  and  C_6
REMARK    5  A    between atoms: C_9  and  C_12
REMARK    6  A    between atoms: C_14  and  C_32
REMARK    7  A    between atoms: C_16  and  C_25
REMARK    8  A    between atoms: C_18  and  C_20
REMARK    9  A    between atoms: C_20  and  O_22
REMARK   10  A    between atoms: O_22  and  C_23
REMARK   11  A    between atoms: C_23  and  C_24
REMARK   12  A    between atoms: C_32  and  O_34
REMARK   13  A    between atoms: O_34  and  C_35
REMARK   14  A    between atoms: C_35  and  C_36
REMARK                            x       y       z     vdW  Elec       q    Type
REMARK                         _______ _______ _______ _____ _____    ______ ____
ROOT
ATOM      1  C   UNL     1      -0.019   1.538   0.011  0.00  0.00    +0.028 C 
ATOM      2  C   UNL     1       0.002  -0.004   0.002  0.00  0.00    +0.094 C 
ATOM      3  C   UNL     1       1.498  -0.385  -0.014  0.00  0.00    -0.025 C 
ATOM      4  C   UNL     1       1.466   1.960  -0.001  0.00  0.00    +0.048 C 
ATOM      5  N   UNL     1       2.163   0.794   0.544  0.00  0.00    +0.393 N 
ATOM      6  H   UNL     1       3.151   0.809   0.266  0.00  0.00    -0.084 HD
ATOM      7  H   UNL     1       2.095   0.787   1.568  0.00  0.00    -0.084 HD
ENDROOT
BRANCH   3   8
ATOM      8  C   UNL     1       1.739  -1.607   0.834  0.00  0.00    -0.061 A 
ATOM      9  C   UNL     1       1.837  -1.486   2.208  0.00  0.00    +0.003 A 
ATOM     10  C   UNL     1       2.053  -2.607   2.987  0.00  0.00    +0.015 A 
ATOM     11  C   UNL     1       2.181  -3.849   2.391  0.00  0.00    +0.018 A 
ATOM     12  C   UNL     1       2.087  -3.969   1.016  0.00  0.00    +0.015 A 
ATOM     13  C   UNL     1       1.866  -2.848   0.238  0.00  0.00    +0.003 A 
ATOM     14 BR   UNL     1       2.484  -5.382   3.455  0.00  0.00    -0.050 Br
ENDBRANCH   3   8
BRANCH   1  18
ATOM     15  C   UNL     1      -2.010   3.016  -3.474  0.00  0.00    +0.059 A 
ATOM     16  C   UNL     1      -2.499   3.325  -2.203  0.00  0.00    +0.015 A 
ATOM     17  C   UNL     1      -1.851   2.845  -1.083  0.00  0.00    +0.004 A 
ATOM     18  C   UNL     1      -0.721   2.059  -1.217  0.00  0.00    -0.045 A 
ATOM     19  C   UNL     1      -0.228   1.754  -2.474  0.00  0.00    +0.004 A 
ATOM     20  C   UNL     1      -0.868   2.222  -3.602  0.00  0.00    +0.015 A 
BRANCH  15  21
ATOM     21  C   UNL     1      -2.698   3.527  -4.677  0.00  0.00    +0.339 C 
ATOM     22  O   UNL     1      -3.690   4.217  -4.562  0.00  0.00    -0.245 OA
BRANCH  21  23
ATOM     23  O   UNL     1      -2.224   3.227  -5.902  0.00  0.00    -0.461 OA
BRANCH  23  25
ATOM     24  C   UNL     1      -2.268   3.320  -8.335  0.00  0.00    +0.048 C 
ATOM     25  C   UNL     1      -2.950   3.763  -7.039  0.00  0.00    +0.229 C 
ENDBRANCH  23  25
ENDBRANCH  21  23
ENDBRANCH  15  21
ENDBRANCH   1  18
BRANCH   4  26
ATOM     26  C   UNL     1       1.674   3.179   0.860  0.00  0.00    +0.294 C 
ATOM     27  O   UNL     1       2.113   3.059   1.980  0.00  0.00    -0.253 OA
BRANCH  26  28
ATOM     28  O   UNL     1       1.371   4.396   0.385  0.00  0.00    -0.466 OA
BRANCH  28  29
ATOM     29  C   UNL     1       1.596   5.525   1.270  0.00  0.00    +0.228 C 
ATOM     30  C   UNL     1       1.196   6.819   0.559  0.00  0.00    +0.048 C 
ENDBRANCH  28  29
ENDBRANCH  26  28
ENDBRANCH   4  26
BRANCH   2  31
ATOM     31  C   UNL     1      -0.664  -0.543   1.242  0.00  0.00    +0.309 C 
ATOM     32  O   UNL     1      -1.117   0.217   2.063  0.00  0.00    -0.251 OA
BRANCH  31  33
ATOM     33  O   UNL     1      -0.753  -1.869   1.433  0.00  0.00    -0.465 OA
BRANCH  33  34
ATOM     34  C   UNL     1      -1.408  -2.317   2.649  0.00  0.00    +0.229 C 
ATOM     35  C   UNL     1      -1.415  -3.846   2.691  0.00  0.00    +0.048 C 
ENDBRANCH  33  34
ENDBRANCH  31  33
ENDBRANCH   2  31
TORSDOF 11
