REMARK  Name = ZINC35778277
REMARK  17 active torsions:
REMARK  status: ('A' for Active; 'I' for Inactive)
REMARK    1  A    between atoms: C_1  and  C_2
REMARK    2  A    between atoms: C_2  and  C_3
REMARK    3  A    between atoms: C_2  and  C_4
REMARK    4  A    between atoms: C_4  and  N_5
REMARK    5  A    between atoms: N_5  and  C_6
REMARK    6  A    between atoms: N_5  and  C_27
REMARK    7  A    between atoms: C_6  and  C_7
REMARK    8  A    between atoms: C_8  and  C_21
REMARK    9  A    between atoms: N_10  and  C_20
REMARK   10  A    between atoms: C_11  and  O_12
REMARK   11  A    between atoms: O_12  and  C_13
REMARK   12  A    between atoms: C_27  and  C_28
REMARK   13  A    between atoms: C_28  and  C_30
REMARK   14  A    between atoms: C_28  and  O_38
REMARK   15  A    between atoms: C_30  and  O_31
REMARK   16  A    between atoms: O_31  and  C_32
REMARK   17  A    between atoms: C_32  and  C_33
REMARK                            x       y       z     vdW  Elec       q    Type
REMARK                         _______ _______ _______ _____ _____    ______ ____
ROOT
ATOM      1  C   UNL     1       1.800   1.488  -3.072  0.00  0.00    +0.025 A 
ATOM      2  C   UNL     1       0.631   1.207  -3.804  0.00  0.00    +0.098 A 
ATOM      3  N   UNL     1       0.288   2.295  -4.460  0.00  0.00    -0.168 NA
ATOM      4  N   UNL     1       1.222   3.297  -4.168  0.00  0.00    -0.235 N 
ATOM      5  C   UNL     1       2.139   2.781  -3.310  0.00  0.00    +0.221 A 
ATOM      6  C   UNL     1       1.209   4.665  -4.693  0.00  0.00    +0.176 C 
ENDROOT
BRANCH   2   7
ATOM      7  C   UNL     1      -0.089  -0.090  -3.831  0.00  0.00    +0.002 A 
ATOM      8  C   UNL     1      -1.480  -0.119  -3.756  0.00  0.00    +0.010 A 
ATOM      9  C   UNL     1      -2.145  -1.328  -3.783  0.00  0.00    +0.001 A 
ATOM     10  C   UNL     1      -1.433  -2.510  -3.882  0.00  0.00    +0.000 A 
ATOM     11  C   UNL     1      -0.052  -2.487  -3.957  0.00  0.00    +0.001 A 
ATOM     12  C   UNL     1       0.622  -1.283  -3.937  0.00  0.00    +0.010 A 
ENDBRANCH   2   7
BRANCH   1  13
ATOM     13  C   UNL     1       2.541   0.526  -2.179  0.00  0.00    -0.035 C 
BRANCH  13  14
ATOM     14  N   UNL     1       2.128   0.736  -0.785  0.00  0.00    +0.384 N 
ATOM     15  H   UNL     1       2.304   1.694  -0.522  0.00  0.00    -0.081 HD
BRANCH  14  16
ATOM     16  C   UNL     1       0.694   0.446  -0.650  0.00  0.00    -0.075 C 
BRANCH  16  18
ATOM     17  C   UNL     1       0.371   2.320   0.971  0.00  0.00    +0.005 C 
ATOM     18  C   UNL     1       0.231   0.811   0.762  0.00  0.00    -0.034 C 
ATOM     19  C   UNL     1      -1.233   0.405   0.939  0.00  0.00    +0.005 C 
ENDBRANCH  16  18
ENDBRANCH  14  16
BRANCH  14  20
ATOM     20  C   UNL     1       2.893  -0.160   0.092  0.00  0.00    -0.044 C 
BRANCH  20  21
ATOM     21  C   UNL     1       4.366   0.254   0.085  0.00  0.00    +0.124 C 
BRANCH  21  22
ATOM     22  O   UNL     1       4.931  -0.018  -1.200  0.00  0.00    -0.391 OA
ATOM     23  H   UNL     1       4.895  -0.949  -1.456  0.00  0.00    +0.210 HD
ENDBRANCH  21  22
BRANCH  21  24
ATOM     24  C   UNL     1       5.124  -0.538   1.153  0.00  0.00    +0.189 C 
BRANCH  24  25
ATOM     25  O   UNL     1       6.472  -0.069   1.226  0.00  0.00    -0.370 OA
BRANCH  25  26
ATOM     26  C   UNL     1       7.271  -0.746   2.198  0.00  0.00    +0.234 C 
BRANCH  26  27
ATOM     27  C   UNL     1       8.665  -0.175   2.189  0.00  0.00    +0.130 A 
ATOM     28  C   UNL     1       9.099   0.853   2.941  0.00  0.00    +0.047 A 
ATOM     29  C   UNL     1      10.460   1.053   2.614  0.00  0.00    +0.041 A 
ATOM     30  C   UNL     1      10.777   0.136   1.682  0.00  0.00    +0.195 A 
ATOM     31  O   UNL     1       9.687  -0.609   1.433  0.00  0.00    -0.465 OA
ENDBRANCH  26  27
ENDBRANCH  25  26
ENDBRANCH  24  25
ENDBRANCH  21  24
ENDBRANCH  20  21
ENDBRANCH  14  20
ENDBRANCH  13  14
ENDBRANCH   1  13
BRANCH   5  32
ATOM     32  O   UNL     1       3.204   3.439  -2.785  0.00  0.00    -0.435 OA
BRANCH  32  33
ATOM     33  C   UNL     1       4.355   3.467  -3.507  0.00  0.00    +0.165 A 
ATOM     34  C   UNL     1       4.387   2.929  -4.785  0.00  0.00    +0.049 A 
ATOM     35  C   UNL     1       5.559   2.959  -5.517  0.00  0.00    +0.004 A 
ATOM     36  C   UNL     1       6.699   3.525  -4.978  0.00  0.00    +0.003 A 
ATOM     37  C   UNL     1       6.671   4.063  -3.705  0.00  0.00    +0.042 A 
ATOM     38  C   UNL     1       5.500   4.041  -2.969  0.00  0.00    +0.165 A 
ATOM     39  F   UNL     1       5.472   4.571  -1.727  0.00  0.00    -0.202 F 
ENDBRANCH  32  33
ENDBRANCH   5  32
TORSDOF 14
