REMARK  Name = ZINC13230144
REMARK  6 active torsions:
REMARK  status: ('A' for Active; 'I' for Inactive)
REMARK    1  A    between atoms: C_4  and  C_7
REMARK    2  A    between atoms: C_7  and  C_9
REMARK    3  A    between atoms: C_10  and  C_11
REMARK    4  A    between atoms: C_11  and  C_13
REMARK    5  A    between atoms: C_11  and  N_21
REMARK    6  A    between atoms: C_13  and  C_15
REMARK                            x       y       z     vdW  Elec       q    Type
REMARK                         _______ _______ _______ _____ _____    ______ ____
ROOT
ATOM      1  C   UNL     1      -3.501  -2.091   0.024  0.00  0.00    +0.232 C 
ENDROOT
BRANCH   1   2
ATOM      2  N   UNL     1      -3.214  -3.527   0.014  0.00  0.00    -0.223 N 
ATOM      3  C   UNL     1      -3.579  -4.446   0.969  0.00  0.00    +0.091 A 
ATOM      4  C   UNL     1      -4.279  -4.367   2.168  0.00  0.00    +0.030 A 
ATOM      5  C   UNL     1      -4.482  -5.496   2.912  0.00  0.00    +0.002 A 
ATOM      6  C   UNL     1      -3.996  -6.724   2.480  0.00  0.00    +0.002 A 
ATOM      7  C   UNL     1      -3.313  -6.829   1.304  0.00  0.00    +0.032 A 
ATOM      8  C   UNL     1      -3.087  -5.686   0.525  0.00  0.00    +0.113 A 
ATOM      9  N   UNL     1      -2.452  -5.479  -0.645  0.00  0.00    -0.129 NA
ATOM     10  N   UNL     1      -2.507  -4.235  -0.970  0.00  0.00    -0.063 NA
ENDBRANCH   1   2
BRANCH   1  11
ATOM     11  C   UNL     1      -4.308  -1.731  -1.197  0.00  0.00    +0.076 C 
ATOM     12  N   UNL     1      -3.806  -0.949  -2.096  0.00  0.00    -0.300 NA
ATOM     13  H   UNL     1      -4.325  -0.718  -2.882  0.00  0.00    +0.186 HD
BRANCH  11  14
ATOM     14  C   UNL     1      -5.672  -2.271  -1.366  0.00  0.00    -0.001 A 
ATOM     15  C   UNL     1      -6.215  -3.120  -0.399  0.00  0.00    +0.010 A 
ATOM     16  C   UNL     1      -7.492  -3.616  -0.561  0.00  0.00    +0.001 A 
ATOM     17  C   UNL     1      -8.230  -3.284  -1.683  0.00  0.00    +0.000 A 
ATOM     18  C   UNL     1      -7.696  -2.448  -2.647  0.00  0.00    +0.001 A 
ATOM     19  C   UNL     1      -6.422  -1.940  -2.496  0.00  0.00    +0.010 A 
ENDBRANCH  11  14
ENDBRANCH   1  11
BRANCH   1  21
ATOM     20  C   UNL     1      -1.228  -0.737   0.010  0.00  0.00    -0.044 C 
ATOM     21  C   UNL     1      -2.237  -1.338   0.016  0.00  0.00    -0.062 C 
BRANCH  20  22
ATOM     22  C   UNL     1       0.002  -0.004   0.002  0.00  0.00    +0.112 C 
ATOM     23  N   UNL     1      -0.016   1.300   0.009  0.00  0.00    -0.290 NA
ATOM     24  H   UNL     1       0.818   1.797   0.004  0.00  0.00    +0.187 HD
BRANCH  22  28
ATOM     25  C   UNL     1       3.712  -2.079  -0.044  0.00  0.00    +0.000 A 
ATOM     26  C   UNL     1       3.696  -0.696  -0.036  0.00  0.00    +0.001 A 
ATOM     27  C   UNL     1       2.495  -0.017  -0.022  0.00  0.00    +0.010 A 
ATOM     28  C   UNL     1       1.295  -0.728  -0.014  0.00  0.00    +0.008 A 
ATOM     29  C   UNL     1       1.318  -2.122  -0.016  0.00  0.00    +0.010 A 
ATOM     30  C   UNL     1       2.525  -2.790  -0.036  0.00  0.00    +0.001 A 
ENDBRANCH  22  28
ENDBRANCH  20  22
ENDBRANCH   1  21
TORSDOF 6
