REMARK  Name = ZINC63139658
REMARK  12 active torsions:
REMARK  status: ('A' for Active; 'I' for Inactive)
REMARK    1  A    between atoms: C_1  and  C_2
REMARK    2  A    between atoms: C_2  and  N_3
REMARK    3  A    between atoms: N_3  and  C_4
REMARK    4  A    between atoms: N_3  and  C_6
REMARK    5  A    between atoms: C_4  and  C_5
REMARK    6  A    between atoms: C_6  and  C_7
REMARK    7  A    between atoms: C_7  and  C_8
REMARK    8  A    between atoms: C_8  and  N_9
REMARK    9  A    between atoms: C_29  and  C_31
REMARK   10  A    between atoms: C_34  and  C_37
REMARK   11  A    between atoms: C_37  and  O_39
REMARK   12  A    between atoms: O_39  and  C_40
REMARK                            x       y       z     vdW  Elec       q    Type
REMARK                         _______ _______ _______ _____ _____    ______ ____
ROOT
ATOM      1  N   UNL     1       3.163  -3.820  -1.556  0.00  0.00    -0.291 N 
ATOM      2  C   UNL     1       2.549  -4.120  -2.863  0.00  0.00    +0.203 C 
ATOM      3  C   UNL     1       3.216  -3.261  -3.916  0.00  0.00    +0.234 C 
ATOM      4  O   UNL     1       2.571  -2.687  -4.769  0.00  0.00    -0.274 OA
ATOM      5  N   UNL     1       4.585  -3.161  -3.861  0.00  0.00    -0.279 N 
ATOM      6  C   UNL     1       5.226  -3.962  -2.840  0.00  0.00    +0.167 C 
ATOM      7  C   UNL     1       4.527  -3.751  -1.521  0.00  0.00    +0.237 C 
ATOM      8  O   UNL     1       5.136  -3.536  -0.494  0.00  0.00    -0.274 OA
ATOM      9  C   UNL     1       6.725  -3.891  -2.711  0.00  0.00    +0.065 C 
ATOM     10  C   UNL     1       7.260  -2.778  -3.571  0.00  0.00    -0.034 C 
ATOM     11  C   UNL     1       8.206  -1.872  -3.366  0.00  0.00    -0.001 A 
ATOM     12  C   UNL     1       9.118  -1.646  -2.233  0.00  0.00    +0.010 A 
ATOM     13  C   UNL     1       9.975  -0.597  -2.352  0.00  0.00    +0.001 A 
ATOM     14  C   UNL     1      10.016   0.239  -3.472  0.00  0.00    +0.002 A 
ATOM     15  C   UNL     1       9.217   0.102  -4.561  0.00  0.00    +0.026 A 
ATOM     16  C   UNL     1       8.276  -0.969  -4.554  0.00  0.00    +0.043 A 
ATOM     17  N   UNL     1       7.412  -1.332  -5.453  0.00  0.00    -0.375 N 
ATOM     18  C   UNL     1       6.701  -2.522  -4.968  0.00  0.00    +0.131 C 
ATOM     19  C   UNL     1       5.218  -2.235  -4.789  0.00  0.00    +0.133 C 
ATOM     20  H   UNL     1       7.260  -0.890  -6.303  0.00  0.00    +0.160 HD
ENDROOT
BRANCH  19  21
ATOM     21  C   UNL     1       5.091  -0.834  -4.248  0.00  0.00    -0.025 A 
ATOM     22  C   UNL     1       5.259  -0.601  -2.895  0.00  0.00    +0.006 A 
ATOM     23  C   UNL     1       5.144   0.679  -2.393  0.00  0.00    +0.015 A 
ATOM     24  C   UNL     1       4.857   1.740  -3.255  0.00  0.00    +0.059 A 
ATOM     25  C   UNL     1       4.689   1.497  -4.620  0.00  0.00    +0.015 A 
ATOM     26  C   UNL     1       4.812   0.213  -5.109  0.00  0.00    +0.006 A 
BRANCH  24  27
ATOM     27  C   UNL     1       4.732   3.114  -2.725  0.00  0.00    +0.339 C 
ATOM     28  O   UNL     1       4.879   3.322  -1.537  0.00  0.00    -0.245 OA
BRANCH  27  29
ATOM     29  O   UNL     1       4.456   4.135  -3.559  0.00  0.00    -0.464 OA
ATOM     30  C   UNL     1       4.349   5.436  -2.978  0.00  0.00    +0.280 C 
ENDBRANCH  27  29
ENDBRANCH  24  27
ENDBRANCH  19  21
BRANCH   1  31
ATOM     31  C   UNL     1       2.351  -3.601  -0.357  0.00  0.00    +0.106 C 
BRANCH  31  32
ATOM     32  C   UNL     1       2.004  -2.115  -0.240  0.00  0.00    +0.000 C 
BRANCH  32  33
ATOM     33  C   UNL     1       1.156  -1.887   1.013  0.00  0.00    -0.077 C 
BRANCH  33  34
ATOM     34  N   UNL     1       0.823  -0.461   1.126  0.00  0.00    +0.379 N 
ATOM     35  H   UNL     1       1.671   0.085   1.109  0.00  0.00    -0.082 HD
BRANCH  34  37
ATOM     36  C   UNL     1      -0.264   1.445   0.037  0.00  0.00    -0.017 C 
ATOM     37  C   UNL     1      -0.034  -0.067  -0.001  0.00  0.00    -0.082 C 
ENDBRANCH  34  37
BRANCH  34  38
ATOM     38  C   UNL     1       0.111  -0.222   2.389  0.00  0.00    -0.082 C 
ATOM     39  C   UNL     1       1.053  -0.495   3.563  0.00  0.00    -0.017 C 
ENDBRANCH  34  38
ENDBRANCH  33  34
ENDBRANCH  32  33
ENDBRANCH  31  32
ENDBRANCH   1  31
TORSDOF 9
