REMARK  Name = ZINC49547704
REMARK  6 active torsions:
REMARK  status: ('A' for Active; 'I' for Inactive)
REMARK    1  A    between atoms: C_1  and  C_2
REMARK    2  A    between atoms: C_2  and  O_3
REMARK    3  A    between atoms: O_3  and  C_4
REMARK    4  A    between atoms: C_9  and  C_10
REMARK    5  A    between atoms: N_15  and  C_22
REMARK    6  A    between atoms: C_24  and  C_27
REMARK                            x       y       z     vdW  Elec       q    Type
REMARK                         _______ _______ _______ _____ _____    ______ ____
ROOT
ATOM      1  C   UNL     1      -1.498  -1.849   0.006  0.00  0.00    +0.126 A 
ATOM      2  C   UNL     1      -0.389  -2.683  -0.003  0.00  0.00    +0.053 A 
ATOM      3  C   UNL     1      -0.556  -4.050  -0.007  0.00  0.00    +0.001 A 
ATOM      4  C   UNL     1      -1.827  -4.611   0.005  0.00  0.00    +0.125 A 
ATOM      5  C   UNL     1      -2.936  -3.770   0.009  0.00  0.00    +0.054 A 
ATOM      6  C   UNL     1      -2.771  -2.400   0.016  0.00  0.00    +0.015 A 
ATOM      7  O   UNL     1      -1.764  -5.972   0.021  0.00  0.00    -0.488 OA
ATOM      8  C   UNL     1      -0.462  -6.391  -0.424  0.00  0.00    +0.175 C 
ATOM      9  C   UNL     1       0.436  -5.196  -0.028  0.00  0.00    +0.083 C 
ATOM     10  C   UNL     1      -0.451  -6.603  -1.940  0.00  0.00    +0.052 C 
ENDROOT
BRANCH   6  11
ATOM     11  C   UNL     1      -3.979  -1.499   0.027  0.00  0.00    +0.115 C 
ATOM     12  C   UNL     1      -4.252  -1.080   1.438  0.00  0.00    +0.029 A 
ATOM     13  C   UNL     1      -3.237  -1.049   2.418  0.00  0.00    +0.141 A 
ATOM     14  N   UNL     1      -3.757  -0.652   3.544  0.00  0.00    -0.178 NA
ATOM     15  N   UNL     1      -5.115  -0.414   3.335  0.00  0.00    -0.253 N 
ATOM     16  C   UNL     1      -5.402  -0.682   2.023  0.00  0.00    +0.127 A 
ATOM     17  N   UNL     1      -6.676  -0.525   1.530  0.00  0.00    -0.270 N 
ATOM     18  C   UNL     1      -7.248  -0.738   0.383  0.00  0.00    +0.228 C 
ATOM     19  O   UNL     1      -8.449  -0.567   0.373  0.00  0.00    -0.275 OA
ATOM     20  C   UNL     1      -6.669  -1.156  -0.911  0.00  0.00    +0.166 C 
ATOM     21  S   UNL     1      -5.354  -2.369  -0.730  0.00  0.00    -0.138 S 
ATOM     22  C   UNL     1      -6.071   0.045   4.346  0.00  0.00    +0.174 C 
ATOM     23  H   UNL     1      -7.290  -0.173   2.192  0.00  0.00    +0.156 HD
ENDBRANCH   6  11
BRANCH   1  24
ATOM     24  O   UNL     1      -1.339  -0.499   0.012  0.00  0.00    -0.492 OA
BRANCH  24  26
ATOM     25  C   UNL     1      -0.019   1.526   0.010  0.00  0.00    +0.048 C 
ATOM     26  C   UNL     1       0.002  -0.004   0.002  0.00  0.00    +0.225 C 
ENDBRANCH  24  26
ENDBRANCH   1  24
TORSDOF 3
