REMARK  Name = ZINC08789943
REMARK  8 active torsions:
REMARK  status: ('A' for Active; 'I' for Inactive)
REMARK    1  A    between atoms: C_1  and  C_2
REMARK    2  A    between atoms: C_2  and  C_4
REMARK    3  A    between atoms: C_2  and  N_10
REMARK    4  A    between atoms: C_11  and  C_13
REMARK    5  A    between atoms: C_13  and  C_15
REMARK    6  A    between atoms: C_13  and  N_26
REMARK    7  A    between atoms: C_15  and  C_16
REMARK    8  A    between atoms: C_27  and  C_29
REMARK                            x       y       z     vdW  Elec       q    Type
REMARK                         _______ _______ _______ _____ _____    ______ ____
ROOT
ATOM      1  C   UNL     1      -6.664  -0.546  -0.755  0.00  0.00    +0.163 C 
ENDROOT
BRANCH   1   3
ATOM      2  N   UNL     1      -7.696  -2.694  -1.415  0.00  0.00    -0.307 N 
ATOM      3  C   UNL     1      -6.642  -1.859  -1.494  0.00  0.00    +0.234 C 
ATOM      4  O   UNL     1      -5.675  -2.164  -2.160  0.00  0.00    -0.274 OA
ATOM      5  H   UNL     1      -8.470  -2.450  -0.883  0.00  0.00    +0.149 HD
BRANCH   2   7
ATOM      6  C   UNL     1      -8.141  -3.754  -3.575  0.00  0.00    +0.033 C 
ATOM      7  C   UNL     1      -7.675  -3.971  -2.134  0.00  0.00    +0.100 C 
BRANCH   7   8
ATOM      8  C   UNL     1      -8.596  -4.948  -1.449  0.00  0.00    -0.027 A 
ATOM      9  C   UNL     1      -9.811  -4.518  -0.949  0.00  0.00    +0.005 A 
ATOM     10  C   UNL     1     -10.658  -5.415  -0.325  0.00  0.00    +0.000 A 
ATOM     11  C   UNL     1     -10.285  -6.740  -0.193  0.00  0.00    +0.000 A 
ATOM     12  C   UNL     1      -9.068  -7.169  -0.689  0.00  0.00    +0.000 A 
ATOM     13  C   UNL     1      -8.223  -6.273  -1.317  0.00  0.00    +0.005 A 
ENDBRANCH   7   8
ENDBRANCH   2   7
ENDBRANCH   1   3
BRANCH   1  14
ATOM     14  N   UNL     1      -5.411   0.173  -1.000  0.00  0.00    -0.305 N 
ATOM     15  C   UNL     1      -4.969   1.081  -0.107  0.00  0.00    +0.200 C 
ATOM     16  O   UNL     1      -5.609   1.301   0.900  0.00  0.00    -0.278 OA
ATOM     17  H   UNL     1      -4.900  -0.003  -1.805  0.00  0.00    +0.149 HD
BRANCH  15  18
ATOM     18  C   UNL     1      -3.681   1.820  -0.358  0.00  0.00    +0.021 C 
ATOM     19  C   UNL     1      -2.496   0.940   0.042  0.00  0.00    +0.028 C 
ATOM     20  C   UNL     1      -1.225   1.749   0.017  0.00  0.00    -0.047 A 
ATOM     21  C   UNL     1      -0.013   1.076   0.008  0.00  0.00    +0.004 A 
ATOM     22  C   UNL     1       1.175   1.779   0.000  0.00  0.00    +0.000 A 
ATOM     23  C   UNL     1       1.157   3.161   0.007  0.00  0.00    +0.000 A 
ATOM     24  C   UNL     1      -0.049   3.832   0.020  0.00  0.00    +0.002 A 
ATOM     25  C   UNL     1      -1.244   3.127   0.027  0.00  0.00    -0.061 A 
ATOM     26  C   UNL     1      -2.535   3.904   0.035  0.00  0.00    -0.045 C 
ATOM     27  N   UNL     1      -3.651   3.047   0.459  0.00  0.00    +0.389 N 
ATOM     28  H   UNL     1      -3.531   2.796   1.447  0.00  0.00    -0.084 HD
ATOM     29  H   UNL     1      -4.535   3.557   0.341  0.00  0.00    -0.084 HD
ENDBRANCH  15  18
ENDBRANCH   1  14
BRANCH   1  30
ATOM     30  C   UNL     1      -7.841   0.297  -1.250  0.00  0.00    +0.069 C 
BRANCH  30  31
ATOM     31  C   UNL     1      -7.937   1.557  -0.427  0.00  0.00    -0.020 A 
ATOM     32  C   UNL     1      -8.717   1.751   0.647  0.00  0.00    +0.087 A 
ATOM     33  N   UNL     1      -8.535   3.017   1.134  0.00  0.00    -0.360 N 
ATOM     34  H   UNL     1      -8.988   3.387   1.907  0.00  0.00    +0.165 HD
ATOM     35  C   UNL     1      -7.616   3.688   0.359  0.00  0.00    +0.047 A 
ATOM     36  C   UNL     1      -7.201   2.803  -0.653  0.00  0.00    +0.003 A 
ATOM     37  C   UNL     1      -6.261   3.217  -1.598  0.00  0.00    +0.010 A 
ATOM     38  C   UNL     1      -5.748   4.482  -1.536  0.00  0.00    +0.001 A 
ATOM     39  C   UNL     1      -6.154   5.359  -0.540  0.00  0.00    +0.002 A 
ATOM     40  C   UNL     1      -7.081   4.971   0.403  0.00  0.00    +0.026 A 
ENDBRANCH  30  31
ENDBRANCH   1  30
TORSDOF 7
