REMARK  Name = ZINC15919315
REMARK  12 active torsions:
REMARK  status: ('A' for Active; 'I' for Inactive)
REMARK    1  A    between atoms: C_1  and  C_2
REMARK    2  A    between atoms: C_3  and  C_25
REMARK    3  A    between atoms: C_4  and  N_12
REMARK    4  A    between atoms: C_6  and  C_7
REMARK    5  A    between atoms: N_9  and  C_10
REMARK    6  A    between atoms: N_9  and  C_11
REMARK    7  A    between atoms: N_12  and  C_13
REMARK    8  A    between atoms: C_13  and  N_15
REMARK    9  A    between atoms: N_15  and  N_16
REMARK   10  A    between atoms: C_17  and  C_19
REMARK   11  A    between atoms: C_25  and  O_27
REMARK   12  A    between atoms: O_27  and  C_28
REMARK                            x       y       z     vdW  Elec       q    Type
REMARK                         _______ _______ _______ _____ _____    ______ ____
ROOT
ATOM      1  N   UNL     1       1.409  -3.072  -1.914  0.00  0.00    -0.290 N 
ATOM      2  H   UNL     1       1.578  -2.779  -2.823  0.00  0.00    +0.154 HD
ENDROOT
BRANCH   1   6
ATOM      3  C   UNL     1       0.644   1.478   0.065  0.00  0.00    +0.046 C 
ATOM      4  C   UNL     1       0.754  -0.025   0.089  0.00  0.00    -0.015 A 
ATOM      5  C   UNL     1       1.051  -0.756  -1.054  0.00  0.00    +0.091 A 
ATOM      6  C   UNL     1       1.131  -2.145  -0.930  0.00  0.00    +0.086 A 
ATOM      7  S   UNL     1       0.810  -2.423   0.695  0.00  0.00    -0.068 S 
ATOM      8  C   UNL     1       0.572  -0.744   1.239  0.00  0.00    +0.079 A 
BRANCH   8   9
ATOM      9  C   UNL     1       0.257  -0.255   2.583  0.00  0.00    +0.253 C 
ATOM     10  O   UNL     1       0.273   0.940   2.814  0.00  0.00    -0.269 OA
ATOM     11  N   UNL     1      -0.049  -1.127   3.563  0.00  0.00    -0.303 N 
ATOM     12  C   UNL     1      -0.399  -0.636   4.898  0.00  0.00    +0.132 C 
ATOM     13  C   UNL     1      -0.032  -2.567   3.294  0.00  0.00    +0.132 C 
ENDBRANCH   8   9
BRANCH   5  14
ATOM     14  C   UNL     1       1.272  -0.094  -2.344  0.00  0.00    +0.342 C 
ATOM     15  O   UNL     1       2.391   0.260  -2.662  0.00  0.00    -0.245 OA
BRANCH  14  16
ATOM     16  O   UNL     1       0.234   0.123  -3.177  0.00  0.00    -0.464 OA
ATOM     17  C   UNL     1       0.522   0.773  -4.416  0.00  0.00    +0.280 C 
ENDBRANCH  14  16
ENDBRANCH   5  14
ENDBRANCH   1   6
BRANCH   1  18
ATOM     18  C   UNL     1       1.446  -4.385  -1.611  0.00  0.00    +0.151 C 
ATOM     19  S   UNL     1       1.148  -4.902  -0.006  0.00  0.00    -0.017 S 
BRANCH  18  20
ATOM     20  N   UNL     1       1.718  -5.291  -2.572  0.00  0.00    -0.245 N 
ATOM     21  H   UNL     1       1.744  -6.235  -2.354  0.00  0.00    +0.172 HD
BRANCH  20  22
ATOM     22  N   UNL     1       1.962  -4.867  -3.885  0.00  0.00    -0.231 N 
ATOM     23  C   UNL     1       2.233  -5.773  -4.845  0.00  0.00    +0.267 C 
ATOM     24  O   UNL     1       2.267  -6.958  -4.572  0.00  0.00    -0.268 OA
ATOM     25  H   UNL     1       1.935  -3.922  -4.102  0.00  0.00    +0.173 HD
BRANCH  23  26
ATOM     26  C   UNL     1       2.488  -5.330  -6.218  0.00  0.00    +0.077 A 
ATOM     27  C   UNL     1       2.777  -6.090  -7.342  0.00  0.00    +0.022 A 
ATOM     28  C   UNL     1       2.970  -5.386  -8.505  0.00  0.00    +0.028 A 
ATOM     29  C   UNL     1       2.868  -4.032  -8.481  0.00  0.00    +0.079 A 
ATOM     30  S   UNL     1       2.500  -3.675  -6.881  0.00  0.00    -0.072 S 
ATOM     31 CL   UNL     1       3.065  -2.923  -9.802  0.00  0.00    -0.076 Cl
ENDBRANCH  23  26
ENDBRANCH  20  22
ENDBRANCH  18  20
ENDBRANCH   1  18
TORSDOF 8
