REMARK  Name = ZINC20154694
REMARK  10 active torsions:
REMARK  status: ('A' for Active; 'I' for Inactive)
REMARK    1  A    between atoms: C_1  and  O_2
REMARK    2  A    between atoms: O_2  and  C_3
REMARK    3  A    between atoms: C_5  and  C_20
REMARK    4  A    between atoms: C_8  and  O_9
REMARK    5  A    between atoms: O_9  and  C_10
REMARK    6  A    between atoms: C_10  and  C_11
REMARK    7  A    between atoms: C_11  and  O_12
REMARK    8  A    between atoms: O_12  and  C_13
REMARK    9  A    between atoms: C_31  and  S_32
REMARK   10  A    between atoms: S_32  and  C_33
REMARK                            x       y       z     vdW  Elec       q    Type
REMARK                         _______ _______ _______ _____ _____    ______ ____
ROOT
ATOM      1  C   UNL     1       1.095  -0.993   0.938  0.00  0.00    +0.164 A 
ATOM      2  C   UNL     1       1.405  -0.136   1.973  0.00  0.00    +0.057 A 
ATOM      3  C   UNL     1       2.119  -0.611   3.083  0.00  0.00    -0.019 A 
ATOM      4  C   UNL     1       2.513  -1.956   3.133  0.00  0.00    +0.032 A 
ATOM      5  C   UNL     1       2.198  -2.804   2.094  0.00  0.00    +0.087 A 
ATOM      6  C   UNL     1       1.486  -2.331   0.997  0.00  0.00    +0.180 A 
ATOM      7 CL   UNL     1       2.687  -4.468   2.156  0.00  0.00    -0.080 Cl
ENDROOT
BRANCH   3   8
ATOM      8  C   UNL     1       2.452   0.294   4.185  0.00  0.00    +0.024 C 
ATOM      9  C   UNL     1       2.430  -0.165   5.483  0.00  0.00    +0.079 C 
ATOM     10  C   UNL     1       2.935   0.660   6.619  0.00  0.00    +0.137 C 
ATOM     11  N   UNL     1       2.855   1.962   6.652  0.00  0.00    -0.284 NA
ATOM     12  N   UNL     1       3.508  -0.110   7.651  0.00  0.00    -0.211 N 
ATOM     13  C   UNL     1       3.130  -1.432   7.772  0.00  0.00    +0.183 C 
ATOM     14  N   UNL     1       2.351  -2.102   6.952  0.00  0.00    -0.152 NA
ATOM     15  C   UNL     1       1.898  -1.506   5.831  0.00  0.00    +0.273 C 
ATOM     16  O   UNL     1       1.075  -2.056   5.117  0.00  0.00    -0.268 OA
ATOM     17  S   UNL     1       3.908  -1.929   9.160  0.00  0.00    +0.048 S 
ATOM     18  N   UNL     1       4.769  -0.534   9.508  0.00  0.00    -0.185 NA
ATOM     19  C   UNL     1       4.408   0.307   8.577  0.00  0.00    +0.175 C 
ATOM     20  H   UNL     1       2.450   2.443   5.913  0.00  0.00    +0.188 HD
BRANCH  19  21
ATOM     21  S   UNL     1       5.072   1.938   8.525  0.00  0.00    -0.093 S 
ATOM     22  C   UNL     1       6.201   1.999   9.943  0.00  0.00    +0.093 C 
ENDBRANCH  19  21
ENDBRANCH   3   8
BRANCH   1  24
ATOM     23  C   UNL     1       0.035   0.846  -0.135  0.00  0.00    +0.277 C 
ATOM     24  O   UNL     1       0.403  -0.535  -0.140  0.00  0.00    -0.491 OA
ENDBRANCH   1  24
BRANCH   6  25
ATOM     25  O   UNL     1       1.174  -3.173  -0.021  0.00  0.00    -0.483 OA
BRANCH  25  26
ATOM     26  C   UNL     1       2.121  -3.281  -1.087  0.00  0.00    +0.270 C 
BRANCH  26  27
ATOM     27  C   UNL     1       1.600  -4.268  -2.133  0.00  0.00    +0.270 C 
BRANCH  27  28
ATOM     28  O   UNL     1       0.414  -3.744  -2.734  0.00  0.00    -0.489 OA
BRANCH  28  29
ATOM     29  C   UNL     1      -0.180  -4.503  -3.692  0.00  0.00    +0.121 A 
ATOM     30  C   UNL     1       0.365  -5.730  -4.043  0.00  0.00    +0.045 A 
ATOM     31  C   UNL     1      -0.241  -6.500  -5.017  0.00  0.00    +0.004 A 
ATOM     32  C   UNL     1      -1.389  -6.049  -5.642  0.00  0.00    +0.000 A 
ATOM     33  C   UNL     1      -1.933  -4.826  -5.294  0.00  0.00    +0.004 A 
ATOM     34  C   UNL     1      -1.335  -4.055  -4.316  0.00  0.00    +0.045 A 
ENDBRANCH  28  29
ENDBRANCH  27  28
ENDBRANCH  26  27
ENDBRANCH  25  26
ENDBRANCH   6  25
TORSDOF 8
