REMARK  Name = ZINC12292227
REMARK  9 active torsions:
REMARK  status: ('A' for Active; 'I' for Inactive)
REMARK    1  A    between atoms: C_1  and  C_2
REMARK    2  A    between atoms: C_6  and  C_8
REMARK    3  A    between atoms: C_8  and  O_25
REMARK    4  A    between atoms: C_13  and  C_14
REMARK    5  A    between atoms: C_13  and  N_54
REMARK    6  A    between atoms: C_14  and  C_16
REMARK    7  A    between atoms: C_14  and  O_24
REMARK    8  A    between atoms: C_19  and  C_23
REMARK    9  A    between atoms: C_20  and  C_22
REMARK                            x       y       z     vdW  Elec       q    Type
REMARK                         _______ _______ _______ _____ _____    ______ ____
ROOT
ATOM      1  C   UNL     1      -1.398   2.554  -1.332  0.00  0.00    +0.088 C 
ATOM      2  C   UNL     1      -1.350   1.037  -1.126  0.00  0.00    +0.021 C 
ATOM      3  C   UNL     1      -0.411   0.715   0.039  0.00  0.00    -0.076 C 
ATOM      4  C   UNL     1      -0.906   2.837   1.099  0.00  0.00    -0.076 C 
ATOM      5  C   UNL     1      -1.859   3.223  -0.034  0.00  0.00    +0.021 C 
ATOM      6  N   UNL     1      -0.924   1.368   1.262  0.00  0.00    +0.382 N 
ATOM      7  H   UNL     1      -1.891   1.062   1.423  0.00  0.00    -0.082 HD
ENDROOT
BRANCH   1  13
ATOM      8  C   UNL     1      -2.831   5.523  -5.097  0.00  0.00    +0.044 C 
ATOM      9  C   UNL     1      -3.051   4.302  -4.241  0.00  0.00    -0.050 A 
ATOM     10  C   UNL     1      -4.140   3.482  -4.473  0.00  0.00    +0.003 A 
ATOM     11  C   UNL     1      -4.341   2.362  -3.689  0.00  0.00    +0.001 A 
ATOM     12  C   UNL     1      -3.451   2.059  -2.675  0.00  0.00    +0.006 A 
ATOM     13  C   UNL     1      -2.365   2.881  -2.440  0.00  0.00    -0.016 A 
ATOM     14  C   UNL     1      -2.164   4.001  -3.225  0.00  0.00    +0.009 A 
ENDBRANCH   1  13
BRANCH   1  15
ATOM     15  O   UNL     1      -0.096   3.030  -1.678  0.00  0.00    -0.384 OA
ATOM     16  H   UNL     1      -0.052   3.985  -1.823  0.00  0.00    +0.211 HD
ENDBRANCH   1  15
BRANCH   6  17
ATOM     17  C   UNL     1      -0.099   0.979   2.425  0.00  0.00    -0.042 C 
BRANCH  17  18
ATOM     18  C   UNL     1      -0.571   1.758   3.654  0.00  0.00    +0.128 C 
BRANCH  18  19
ATOM     19  C   UNL     1       0.226   1.328   4.858  0.00  0.00    -0.021 A 
ATOM     20  C   UNL     1      -0.098   0.157   5.519  0.00  0.00    +0.006 A 
ATOM     21  C   UNL     1       0.634  -0.238   6.624  0.00  0.00    +0.004 A 
ATOM     22  C   UNL     1       1.688   0.538   7.067  0.00  0.00    -0.048 A 
ATOM     23  C   UNL     1       2.012   1.708   6.407  0.00  0.00    -0.047 A 
ATOM     24  C   UNL     1       1.284   2.100   5.299  0.00  0.00    +0.009 A 
ATOM     25  C   UNL     1       3.161   2.554   6.891  0.00  0.00    +0.044 C 
ATOM     26  C   UNL     1       2.486   0.107   8.272  0.00  0.00    +0.044 C 
ENDBRANCH  18  19
BRANCH  18  27
ATOM     27  O   UNL     1      -1.957   1.495   3.881  0.00  0.00    -0.389 OA
ATOM     28  H   UNL     1      -2.160   0.563   4.039  0.00  0.00    +0.210 HD
ENDBRANCH  18  27
ENDBRANCH  17  18
ENDBRANCH   6  17
TORSDOF 6
