REMARK  Name = ZINC39664044
REMARK  11 active torsions:
REMARK  status: ('A' for Active; 'I' for Inactive)
REMARK    1  A    between atoms: C_1  and  C_2
REMARK    2  A    between atoms: C_2  and  O_3
REMARK    3  A    between atoms: O_3  and  C_4
REMARK    4  A    between atoms: C_7  and  C_10
REMARK    5  A    between atoms: C_14  and  C_23
REMARK    6  A    between atoms: N_25  and  C_26
REMARK    7  A    between atoms: C_26  and  C_27
REMARK    8  A    between atoms: C_27  and  C_29
REMARK    9  A    between atoms: C_27  and  N_37
REMARK   10  A    between atoms: C_32  and  O_35
REMARK   11  A    between atoms: O_35  and  C_36
REMARK                            x       y       z     vdW  Elec       q    Type
REMARK                         _______ _______ _______ _____ _____    ______ ____
ROOT
ATOM      1  C   UNL     1       1.160  -6.164  -1.734  0.00  0.00    +0.247 C 
ATOM      2  O   UNL     1       0.785  -7.025  -0.962  0.00  0.00    -0.270 OA
ATOM      3  N   UNL     1       1.649  -6.508  -2.942  0.00  0.00    -0.296 N 
ATOM      4  C   UNL     1       2.265  -5.623  -3.959  0.00  0.00    +0.121 C 
ATOM      5  C   UNL     1       3.438  -6.447  -4.535  0.00  0.00    +0.100 C 
ATOM      6  C   UNL     1       3.056  -7.913  -4.268  0.00  0.00    -0.004 C 
ATOM      7  C   UNL     1       1.699  -7.859  -3.551  0.00  0.00    +0.115 C 
ATOM      8  C   UNL     1       4.095  -8.574  -3.369  0.00  0.00    -0.010 C 
ATOM      9  C   UNL     1       3.724 -10.046  -3.164  0.00  0.00    -0.082 C 
ATOM     10  N   UNL     1       3.670 -10.724  -4.464  0.00  0.00    +0.379 N 
ATOM     11  C   UNL     1       2.605 -10.142  -5.289  0.00  0.00    -0.082 C 
ATOM     12  C   UNL     1       2.929  -8.675  -5.584  0.00  0.00    -0.010 C 
ATOM     13  H   UNL     1       4.556 -10.616  -4.936  0.00  0.00    -0.086 HD
ATOM     14  H   UNL     1       3.486 -11.706  -4.322  0.00  0.00    -0.086 HD
ENDROOT
BRANCH   1  18
ATOM     15  C   UNL     1       0.931  -2.071  -0.625  0.00  0.00    +0.121 A 
ATOM     16  C   UNL     1       0.863  -3.058   0.351  0.00  0.00    +0.046 A 
ATOM     17  C   UNL     1       0.937  -4.387  -0.005  0.00  0.00    +0.016 A 
ATOM     18  C   UNL     1       1.080  -4.741  -1.349  0.00  0.00    +0.037 A 
ATOM     19  C   UNL     1       1.147  -3.746  -2.327  0.00  0.00    +0.016 A 
ATOM     20  C   UNL     1       1.068  -2.420  -1.964  0.00  0.00    +0.046 A 
BRANCH  15  21
ATOM     21  O   UNL     1       0.857  -0.763  -0.271  0.00  0.00    -0.492 OA
BRANCH  21  23
ATOM     22  C   UNL     1       0.652   1.040   1.326  0.00  0.00    +0.048 C 
ATOM     23  C   UNL     1       0.717  -0.475   1.122  0.00  0.00    +0.225 C 
ENDBRANCH  21  23
ENDBRANCH  15  21
ENDBRANCH   1  18
BRANCH   5  24
ATOM     24  C   UNL     1       4.722  -6.100  -3.828  0.00  0.00    +0.218 C 
ATOM     25  O   UNL     1       4.704  -5.800  -2.653  0.00  0.00    -0.275 OA
ATOM     26  N   UNL     1       5.889  -6.123  -4.500  0.00  0.00    -0.316 N 
ATOM     27  H   UNL     1       5.914  -6.431  -5.420  0.00  0.00    +0.149 HD
BRANCH  26  28
ATOM     28  C   UNL     1       7.122  -5.682  -3.842  0.00  0.00    +0.093 C 
BRANCH  28  29
ATOM     29  C   UNL     1       8.272  -5.696  -4.852  0.00  0.00    -0.020 C 
BRANCH  29  30
ATOM     30  C   UNL     1       8.555  -7.116  -5.271  0.00  0.00    -0.059 A 
ATOM     31  C   UNL     1       9.302  -7.941  -4.452  0.00  0.00    +0.005 A 
ATOM     32  C   UNL     1       9.563  -9.243  -4.834  0.00  0.00    +0.046 A 
ATOM     33  C   UNL     1       9.074  -9.722  -6.041  0.00  0.00    +0.120 A 
ATOM     34  C   UNL     1       8.324  -8.891  -6.861  0.00  0.00    +0.046 A 
ATOM     35  C   UNL     1       8.062  -7.592  -6.472  0.00  0.00    +0.005 A 
BRANCH  33  36
ATOM     36  O   UNL     1       9.330 -11.001  -6.420  0.00  0.00    -0.495 OA
ATOM     37  C   UNL     1       8.795 -11.426  -7.675  0.00  0.00    +0.277 C 
ENDBRANCH  33  36
ENDBRANCH  29  30
BRANCH  29  38
ATOM     38  N   UNL     1       9.473  -5.119  -4.234  0.00  0.00    +0.385 N 
ATOM     39  C   UNL     1      10.558  -4.997  -5.241  0.00  0.00    -0.078 C 
ATOM     40  C   UNL     1      11.483  -3.912  -4.635  0.00  0.00    -0.020 C 
ATOM     41  C   UNL     1      10.483  -2.925  -3.991  0.00  0.00    -0.020 C 
ATOM     42  C   UNL     1       9.197  -3.743  -3.769  0.00  0.00    -0.078 C 
ATOM     43  H   UNL     1       9.777  -5.693  -3.462  0.00  0.00    -0.081 HD
ENDBRANCH  29  38
ENDBRANCH  28  29
ENDBRANCH  26  28
ENDBRANCH   5  24
TORSDOF 9
