REMARK  Name = ZINC15961651
REMARK  4 active torsions:
REMARK  status: ('A' for Active; 'I' for Inactive)
REMARK    1  A    between atoms: C_1  and  C_2
REMARK    2  A    between atoms: C_5  and  C_7
REMARK    3  A    between atoms: C_7  and  N_8
REMARK    4  A    between atoms: C_21  and  C_23
REMARK                            x       y       z     vdW  Elec       q    Type
REMARK                         _______ _______ _______ _____ _____    ______ ____
ROOT
ATOM      1  N   UNL     1      -0.503  -4.453   0.763  0.00  0.00    -0.286 NA
ATOM      2  C   UNL     1       0.397  -4.872  -0.321  0.00  0.00    +0.090 C 
ATOM      3  C   UNL     1      -0.380  -5.735  -1.325  0.00  0.00    +0.053 C 
ATOM      4  C   UNL     1      -1.133  -6.787  -0.550  0.00  0.00    -0.016 A 
ATOM      5  C   UNL     1      -1.749  -8.007  -1.022  0.00  0.00    +0.003 A 
ATOM      6  C   UNL     1      -1.850  -8.593  -2.288  0.00  0.00    +0.010 A 
ATOM      7  C   UNL     1      -2.523  -9.787  -2.368  0.00  0.00    +0.001 A 
ATOM      8  C   UNL     1      -3.081 -10.393  -1.254  0.00  0.00    +0.002 A 
ATOM      9  C   UNL     1      -2.996  -9.835   0.010  0.00  0.00    +0.026 A 
ATOM     10  C   UNL     1      -2.318  -8.624   0.122  0.00  0.00    +0.047 A 
ATOM     11  N   UNL     1      -2.053  -7.819   1.193  0.00  0.00    -0.356 N 
ATOM     12  H   UNL     1      -2.326  -7.997   2.107  0.00  0.00    +0.166 HD
ATOM     13  C   UNL     1      -1.344  -6.722   0.784  0.00  0.00    +0.038 A 
ATOM     14  C   UNL     1      -0.848  -5.582   1.641  0.00  0.00    +0.107 C 
ENDROOT
BRANCH  14  15
ATOM     15  C   UNL     1      -1.948  -5.157   2.617  0.00  0.00    +0.012 C 
ATOM     16  C   UNL     1      -3.266  -4.992   1.859  0.00  0.00    +0.005 C 
ATOM     17  C   UNL     1      -4.365  -4.567   2.834  0.00  0.00    +0.000 C 
ATOM     18  C   UNL     1      -4.529  -5.636   3.916  0.00  0.00    +0.000 C 
ATOM     19  C   UNL     1      -3.211  -5.801   4.674  0.00  0.00    +0.000 C 
ATOM     20  C   UNL     1      -2.111  -6.226   3.699  0.00  0.00    +0.005 C 
ENDBRANCH  14  15
BRANCH   1  21
ATOM     21  C   UNL     1       0.080  -3.346   1.532  0.00  0.00    +0.157 C 
BRANCH  21  26
ATOM     22  C   UNL     1       0.195   1.527   0.162  0.00  0.00    +0.065 C 
ATOM     23  C   UNL     1       0.077   0.025   0.125  0.00  0.00    +0.030 A 
ATOM     24  C   UNL     1      -0.173  -0.733  -0.959  0.00  0.00    +0.105 A 
ATOM     25  N   UNL     1      -0.198  -2.017  -0.570  0.00  0.00    -0.349 N 
ATOM     26  C   UNL     1       0.027  -2.082   0.713  0.00  0.00    +0.099 A 
ATOM     27  N   UNL     1       0.210  -0.830   1.185  0.00  0.00    -0.346 N 
ATOM     28  H   UNL     1       0.399  -0.583   2.104  0.00  0.00    +0.167 HD
ATOM     29  H   UNL     1      -0.359  -2.776  -1.152  0.00  0.00    +0.166 HD
ENDBRANCH  21  26
ENDBRANCH   1  21
TORSDOF 3
