REMARK  Name = ZINC14475919
REMARK  8 active torsions:
REMARK  status: ('A' for Active; 'I' for Inactive)
REMARK    1  A    between atoms: C_1  and  C_2
REMARK    2  A    between atoms: C_2  and  C_3
REMARK    3  A    between atoms: C_2  and  N_4
REMARK    4  A    between atoms: N_4  and  S_5
REMARK    5  A    between atoms: S_5  and  C_8
REMARK    6  A    between atoms: C_21  and  C_24
REMARK    7  A    between atoms: C_26  and  N_31
REMARK    8  A    between atoms: C_29  and  O_30
REMARK                            x       y       z     vdW  Elec       q    Type
REMARK                         _______ _______ _______ _____ _____    ______ ____
ROOT
ATOM      1  C   UNL     1       0.252   3.455   3.840  0.00  0.00    +0.106 A 
ATOM      2  C   UNL     1       0.104   4.591   3.064  0.00  0.00    +0.030 A 
ATOM      3  C   UNL     1      -0.562   5.691   3.566  0.00  0.00    +0.025 A 
ATOM      4  C   UNL     1      -1.079   5.670   4.856  0.00  0.00    +0.031 A 
ATOM      5  C   UNL     1      -0.932   4.514   5.631  0.00  0.00    -0.018 A 
ATOM      6  C   UNL     1      -0.264   3.422   5.122  0.00  0.00    +0.034 A 
ATOM      7  C   UNL     1      -1.534   4.518   6.982  0.00  0.00    +0.049 C 
ATOM      8  C   UNL     1      -1.036   3.659   8.099  0.00  0.00    -0.023 C 
ATOM      9  C   UNL     1      -1.213   4.295   9.251  0.00  0.00    -0.030 C 
ATOM     10  C   UNL     1      -1.847   5.664   9.001  0.00  0.00    +0.033 C 
ATOM     11  C   UNL     1      -1.394   5.957   7.564  0.00  0.00    +0.029 C 
ATOM     12  C   UNL     1      -2.302   6.828   6.715  0.00  0.00    +0.108 C 
ATOM     13  N   UNL     1      -1.716   6.811   5.357  0.00  0.00    -0.336 N 
ATOM     14  H   UNL     1      -1.776   7.707   4.721  0.00  0.00    +0.147 HD
ENDROOT
BRANCH  12  15
ATOM     15  C   UNL     1      -3.696   6.255   6.688  0.00  0.00    +0.017 A 
ATOM     16  C   UNL     1      -4.060   5.371   5.690  0.00  0.00    +0.041 A 
ATOM     17  C   UNL     1      -5.337   4.840   5.668  0.00  0.00    +0.127 A 
ATOM     18  C   UNL     1      -6.255   5.202   6.636  0.00  0.00    +0.036 A 
ATOM     19  C   UNL     1      -5.898   6.090   7.632  0.00  0.00    +0.048 A 
ATOM     20  C   UNL     1      -4.615   6.620   7.660  0.00  0.00    +0.122 A 
BRANCH  17  21
ATOM     21  N   UNL     1      -5.722   3.888   4.602  0.00  0.00    +0.056 N 
ATOM     22  O   UNL     1      -6.848   3.424   4.579  0.00  0.00    -0.126 OA
ATOM     23  O   UNL     1      -4.914   3.569   3.749  0.00  0.00    -0.126 OA
ENDBRANCH  17  21
BRANCH  20  24
ATOM     24  O   UNL     1      -4.261   7.493   8.639  0.00  0.00    -0.506 OA
ATOM     25  H   UNL     1      -4.991   7.782   9.409  0.00  0.00    +0.292 HD
ENDBRANCH  20  24
ENDBRANCH  12  15
BRANCH   1  26
ATOM     26  S   UNL     1       1.106   2.055   3.196  0.00  0.00    +0.059 S 
ATOM     27  O   UNL     1       1.588   1.324   4.315  0.00  0.00    -0.153 OA
ATOM     28  O   UNL     1       1.966   2.538   2.173  0.00  0.00    -0.153 OA
BRANCH  26  29
ATOM     29  N   UNL     1      -0.020   1.094   2.454  0.00  0.00    -0.187 NA
ATOM     30  H   UNL     1      -0.347   0.168   2.949  0.00  0.00    +0.148 HD
BRANCH  29  32
ATOM     31  C   UNL     1      -0.013   1.086   0.008  0.00  0.00    +0.025 C 
ATOM     32  C   UNL     1      -0.729   1.579   1.267  0.00  0.00    +0.070 C 
ATOM     33  C   UNL     1      -2.164   1.050   1.278  0.00  0.00    +0.025 C 
ENDBRANCH  29  32
ENDBRANCH  26  29
ENDBRANCH   1  26
TORSDOF 6
