REMARK  Name = ZINC34698369
REMARK  8 active torsions:
REMARK  status: ('A' for Active; 'I' for Inactive)
REMARK    1  A    between atoms: C_1  and  C_2
REMARK    2  A    between atoms: C_2  and  C_3
REMARK    3  A    between atoms: C_3  and  C_5
REMARK    4  A    between atoms: C_3  and  C_11
REMARK    5  A    between atoms: C_15  and  C_27
REMARK    6  A    between atoms: C_17  and  C_20
REMARK    7  A    between atoms: C_27  and  N_28
REMARK    8  A    between atoms: N_31  and  C_34
REMARK                            x       y       z     vdW  Elec       q    Type
REMARK                         _______ _______ _______ _____ _____    ______ ____
ROOT
ATOM      1  C   UNL     1       0.334  -1.358  -1.427  0.00  0.00    +0.223 C 
ATOM      2  O   UNL     1       1.437  -1.804  -1.667  0.00  0.00    -0.275 OA
ATOM      3  N   UNL     1      -0.758  -2.125  -1.617  0.00  0.00    -0.300 N 
ATOM      4  C   UNL     1      -0.809  -3.556  -1.998  0.00  0.00    +0.110 C 
ATOM      5  C   UNL     1      -1.960  -4.143  -1.153  0.00  0.00    -0.001 C 
ATOM      6  C   UNL     1      -2.864  -2.938  -0.819  0.00  0.00    +0.039 C 
ATOM      7  C   UNL     1      -2.180  -1.730  -1.485  0.00  0.00    +0.116 C 
ENDROOT
BRANCH   6   8
ATOM      8  C   UNL     1      -4.244  -3.145  -1.388  0.00  0.00    -0.040 A 
ATOM      9  C   UNL     1      -5.303  -3.429  -0.546  0.00  0.00    +0.004 A 
ATOM     10  C   UNL     1      -6.570  -3.619  -1.066  0.00  0.00    +0.003 A 
ATOM     11  C   UNL     1      -6.779  -3.525  -2.429  0.00  0.00    +0.038 A 
ATOM     12  C   UNL     1      -5.719  -3.240  -3.273  0.00  0.00    +0.124 A 
ATOM     13  C   UNL     1      -4.452  -3.044  -2.750  0.00  0.00    +0.042 A 
ATOM     14  F   UNL     1      -5.922  -3.149  -4.606  0.00  0.00    -0.205 F 
ENDBRANCH   6   8
BRANCH   1  15
ATOM     15  C   UNL     1       0.186   0.052  -0.918  0.00  0.00    +0.105 C 
BRANCH  15  16
ATOM     16  C   UNL     1      -0.062   0.982  -2.078  0.00  0.00    -0.036 A 
ATOM     17  C   UNL     1       0.871   1.085  -3.093  0.00  0.00    +0.004 A 
ATOM     18  C   UNL     1       0.644   1.937  -4.157  0.00  0.00    +0.000 A 
ATOM     19  C   UNL     1      -0.516   2.686  -4.207  0.00  0.00    +0.000 A 
ATOM     20  C   UNL     1      -1.450   2.583  -3.193  0.00  0.00    +0.000 A 
ATOM     21  C   UNL     1      -1.225   1.727  -2.131  0.00  0.00    +0.004 A 
ENDBRANCH  15  16
BRANCH  15  23
ATOM     22  C   UNL     1       1.268   1.849   0.440  0.00  0.00    +0.005 C 
ATOM     23  C   UNL     1       1.467   0.471  -0.194  0.00  0.00    +0.014 C 
ENDBRANCH  15  23
ENDBRANCH   1  15
BRANCH   5  24
ATOM     24  C   UNL     1      -2.736  -5.184  -1.962  0.00  0.00    -0.073 C 
BRANCH  24  25
ATOM     25  N   UNL     1      -1.867  -6.337  -2.237  0.00  0.00    +0.382 N 
ATOM     26  C   UNL     1      -1.516  -6.995  -0.972  0.00  0.00    -0.060 C 
ATOM     27  C   UNL     1      -0.520  -8.127  -1.246  0.00  0.00    +0.086 C 
ATOM     28  N   UNL     1      -1.100  -9.024  -2.258  0.00  0.00    -0.333 N 
ATOM     29  C   UNL     1      -1.629  -8.426  -3.493  0.00  0.00    +0.086 C 
ATOM     30  C   UNL     1      -2.573  -7.281  -3.113  0.00  0.00    -0.060 C 
ATOM     31  H   UNL     1      -1.025  -6.021  -2.694  0.00  0.00    -0.082 HD
BRANCH  28  32
ATOM     32  C   UNL     1      -1.147 -10.406  -2.050  0.00  0.00    +0.030 A 
ATOM     33  C   UNL     1      -1.615 -11.244  -3.054  0.00  0.00    +0.026 A 
ATOM     34  C   UNL     1      -1.661 -12.609  -2.846  0.00  0.00    +0.040 A 
ATOM     35  C   UNL     1      -1.240 -13.142  -1.639  0.00  0.00    +0.124 A 
ATOM     36  C   UNL     1      -0.774 -12.308  -0.637  0.00  0.00    +0.040 A 
ATOM     37  C   UNL     1      -0.722 -10.943  -0.842  0.00  0.00    +0.026 A 
ATOM     38  F   UNL     1      -1.286 -14.477  -1.439  0.00  0.00    -0.205 F 
ENDBRANCH  28  32
ENDBRANCH  24  25
ENDBRANCH   5  24
TORSDOF 7
