REMARK  Name = ZINC06444132
REMARK  8 active torsions:
REMARK  status: ('A' for Active; 'I' for Inactive)
REMARK    1  A    between atoms: C_1  and  C_2
REMARK    2  A    between atoms: C_12  and  C_14
REMARK    3  A    between atoms: C_14  and  C_16
REMARK    4  A    between atoms: C_14  and  N_70
REMARK    5  A    between atoms: N_20  and  C_21
REMARK    6  A    between atoms: C_21  and  C_22
REMARK    7  A    between atoms: C_30  and  C_33
REMARK    8  A    between atoms: C_33  and  C_34
REMARK                            x       y       z     vdW  Elec       q    Type
REMARK                         _______ _______ _______ _____ _____    ______ ____
ROOT
ATOM      1  C   UNL     1       0.087  -2.864   4.922  0.00  0.00    +0.039 C 
ENDROOT
BRANCH   1  13
ATOM      2  C   UNL     1      -0.018   1.503   0.010  0.00  0.00    +0.046 C 
ATOM      3  C   UNL     1       0.002  -0.004   0.002  0.00  0.00    -0.026 A 
ATOM      4  C   UNL     1      -0.006  -0.690  -1.194  0.00  0.00    +0.005 A 
ATOM      5  C   UNL     1       0.019  -2.077  -1.215  0.00  0.00    +0.001 A 
ATOM      6  C   UNL     1       0.039  -2.790  -0.050  0.00  0.00    +0.010 A 
ATOM      7  C   UNL     1       0.042  -2.116   1.175  0.00  0.00    -0.001 A 
ATOM      8  C   UNL     1       0.023  -0.709   1.201  0.00  0.00    +0.052 A 
ATOM      9  N   UNL     1       0.026  -0.049   2.412  0.00  0.00    -0.322 N 
ATOM     10  H   UNL     1       0.014   0.921   2.428  0.00  0.00    +0.169 HD
ATOM     11  C   UNL     1       0.046  -0.730   3.570  0.00  0.00    +0.251 A 
ATOM     12  O   UNL     1       0.048  -0.114   4.622  0.00  0.00    -0.268 OA
ATOM     13  C   UNL     1       0.065  -2.141   3.600  0.00  0.00    +0.011 A 
ATOM     14  C   UNL     1       0.064  -2.849   2.443  0.00  0.00    +0.017 A 
ENDBRANCH   1  13
BRANCH   1  20
ATOM     15  C   UNL     1       2.486  -2.542   4.988  0.00  0.00    -0.077 C 
ATOM     16  C   UNL     1       3.624  -1.905   5.788  0.00  0.00    -0.015 C 
ATOM     17  C   UNL     1       3.721  -2.584   7.157  0.00  0.00    -0.010 C 
ATOM     18  C   UNL     1       2.379  -2.451   7.881  0.00  0.00    -0.015 C 
ATOM     19  C   UNL     1       1.276  -3.072   7.020  0.00  0.00    -0.077 C 
ATOM     20  N   UNL     1       1.218  -2.358   5.727  0.00  0.00    +0.389 N 
ATOM     21  H   UNL     1       1.079  -1.357   5.905  0.00  0.00    -0.080 HD
BRANCH  17  22
ATOM     22  C   UNL     1       4.818  -1.912   7.985  0.00  0.00    +0.038 C 
BRANCH  22  23
ATOM     23  C   UNL     1       6.156  -2.150   7.335  0.00  0.00    -0.047 A 
ATOM     24  C   UNL     1       6.905  -3.260   7.679  0.00  0.00    +0.003 A 
ATOM     25  C   UNL     1       8.131  -3.481   7.079  0.00  0.00    +0.000 A 
ATOM     26  C   UNL     1       8.612  -2.586   6.141  0.00  0.00    +0.000 A 
ATOM     27  C   UNL     1       7.865  -1.474   5.800  0.00  0.00    +0.000 A 
ATOM     28  C   UNL     1       6.638  -1.256   6.397  0.00  0.00    +0.003 A 
ENDBRANCH  22  23
ENDBRANCH  17  22
ENDBRANCH   1  20
BRANCH   1  29
ATOM     29  C   UNL     1      -1.197  -2.595   5.663  0.00  0.00    +0.143 A 
ATOM     30  N   UNL     1      -1.525  -1.489   6.284  0.00  0.00    -0.115 NA
ATOM     31  N   UNL     1      -2.699  -1.649   6.790  0.00  0.00    -0.023 NA
ATOM     32  N   UNL     1      -3.126  -2.832   6.514  0.00  0.00    -0.044 NA
ATOM     33  N   UNL     1      -2.228  -3.446   5.820  0.00  0.00    -0.226 N 
BRANCH  33  34
ATOM     34  C   UNL     1      -2.314  -4.814   5.301  0.00  0.00    +0.182 C 
BRANCH  34  35
ATOM     35  C   UNL     1      -1.755  -5.774   6.320  0.00  0.00    -0.026 A 
ATOM     36  C   UNL     1      -0.413  -6.102   6.297  0.00  0.00    +0.005 A 
ATOM     37  C   UNL     1       0.101  -6.979   7.234  0.00  0.00    +0.000 A 
ATOM     38  C   UNL     1      -0.731  -7.535   8.188  0.00  0.00    +0.000 A 
ATOM     39  C   UNL     1      -2.075  -7.211   8.208  0.00  0.00    +0.000 A 
ATOM     40  C   UNL     1      -2.587  -6.330   7.274  0.00  0.00    +0.005 A 
ENDBRANCH  34  35
ENDBRANCH  33  34
ENDBRANCH   1  29
TORSDOF 7
