REMARK  Name = ZINC63375133
REMARK  13 active torsions:
REMARK  status: ('A' for Active; 'I' for Inactive)
REMARK    1  A    between atoms: C_1  and  C_2
REMARK    2  A    between atoms: C_2  and  C_3
REMARK    3  A    between atoms: C_2  and  C_4
REMARK    4  A    between atoms: C_4  and  C_5
REMARK    5  A    between atoms: C_5  and  N_6
REMARK    6  A    between atoms: C_12  and  C_28
REMARK    7  A    between atoms: C_24  and  C_27
REMARK    8  A    between atoms: C_31  and  O_36
REMARK    9  A    between atoms: C_32  and  O_34
REMARK   10  A    between atoms: O_34  and  C_35
REMARK   11  A    between atoms: O_36  and  C_37
REMARK   12  A    between atoms: C_37  and  C_38
REMARK   13  A    between atoms: C_37  and  C_39
REMARK                            x       y       z     vdW  Elec       q    Type
REMARK                         _______ _______ _______ _____ _____    ______ ____
ROOT
ATOM      1  N   UNL     1       0.651   1.101   4.761  0.00  0.00    -0.291 N 
ATOM      2  C   UNL     1       0.289  -0.234   5.271  0.00  0.00    +0.203 C 
ATOM      3  C   UNL     1       1.540  -1.086   5.330  0.00  0.00    +0.234 C 
ATOM      4  O   UNL     1       1.539  -2.242   4.964  0.00  0.00    -0.274 OA
ATOM      5  N   UNL     1       2.676  -0.485   5.818  0.00  0.00    -0.283 N 
ATOM      6  C   UNL     1       3.922  -1.219   5.682  0.00  0.00    +0.121 C 
ATOM      7  C   UNL     1       5.048  -0.675   6.565  0.00  0.00    +0.065 C 
ATOM      8  C   UNL     1       4.938   0.828   6.506  0.00  0.00    -0.027 C 
ATOM      9  C   UNL     1       5.771   1.775   6.102  0.00  0.00    -0.000 A 
ATOM     10  C   UNL     1       7.179   1.732   5.675  0.00  0.00    +0.010 A 
ATOM     11  C   UNL     1       7.728   2.916   5.297  0.00  0.00    +0.001 A 
ATOM     12  C   UNL     1       7.027   4.126   5.301  0.00  0.00    +0.002 A 
ATOM     13  C   UNL     1       5.734   4.261   5.690  0.00  0.00    +0.026 A 
ATOM     14  C   UNL     1       5.051   3.086   6.120  0.00  0.00    +0.043 A 
ATOM     15  N   UNL     1       3.839   2.934   6.568  0.00  0.00    -0.375 N 
ATOM     16  C   UNL     1       3.666   1.533   6.950  0.00  0.00    +0.139 C 
ATOM     17  C   UNL     1       2.481   0.856   6.339  0.00  0.00    +0.135 C 
ATOM     18  C   UNL     1       1.757   1.687   5.312  0.00  0.00    +0.242 C 
ATOM     19  O   UNL     1       2.127   2.799   4.998  0.00  0.00    -0.273 OA
ATOM     20  C   UNL     1       1.471   0.700   7.478  0.00  0.00    +0.044 C 
ATOM     21  H   UNL     1       3.166   3.630   6.637  0.00  0.00    +0.160 HD
ENDROOT
BRANCH   7  22
ATOM     22  C   UNL     1       4.872  -1.154   7.983  0.00  0.00    -0.035 A 
ATOM     23  C   UNL     1       3.623  -1.542   8.430  0.00  0.00    +0.008 A 
ATOM     24  C   UNL     1       3.456  -1.982   9.730  0.00  0.00    +0.050 A 
ATOM     25  C   UNL     1       4.543  -2.036  10.588  0.00  0.00    +0.162 A 
ATOM     26  C   UNL     1       5.801  -1.646  10.138  0.00  0.00    +0.162 A 
ATOM     27  C   UNL     1       5.961  -1.210   8.832  0.00  0.00    +0.053 A 
BRANCH  26  28
ATOM     28  O   UNL     1       6.870  -1.697  10.976  0.00  0.00    -0.491 OA
ATOM     29  C   UNL     1       8.130  -1.281  10.445  0.00  0.00    +0.277 C 
ENDBRANCH  26  28
BRANCH  25  30
ATOM     30  O   UNL     1       4.381  -2.468  11.867  0.00  0.00    -0.486 OA
BRANCH  30  31
ATOM     31  C   UNL     1       3.092  -2.971  12.223  0.00  0.00    +0.167 C 
ATOM     32  C   UNL     1       3.232  -3.959  13.383  0.00  0.00    +0.051 C 
ATOM     33  C   UNL     1       2.191  -1.810  12.649  0.00  0.00    +0.051 C 
ENDBRANCH  30  31
ENDBRANCH  25  30
ENDBRANCH   7  22
BRANCH   1  34
ATOM     34  C   UNL     1      -0.131   1.764   3.714  0.00  0.00    +0.108 C 
BRANCH  34  35
ATOM     35  C   UNL     1       0.425   1.379   2.341  0.00  0.00    +0.022 C 
BRANCH  35  37
ATOM     36  C   UNL     1      -0.201   3.585   1.351  0.00  0.00    +0.007 C 
ATOM     37  C   UNL     1      -0.391   2.071   1.248  0.00  0.00    -0.016 C 
ATOM     38  C   UNL     1       0.084   1.589  -0.125  0.00  0.00    +0.007 C 
ENDBRANCH  35  37
ENDBRANCH  34  35
ENDBRANCH   1  34
TORSDOF 7
