REMARK  Name = ZINC36783720
REMARK  9 active torsions:
REMARK  status: ('A' for Active; 'I' for Inactive)
REMARK    1  A    between atoms: C_1  and  C_2
REMARK    2  A    between atoms: C_2  and  N_3
REMARK    3  A    between atoms: C_12  and  S_13
REMARK    4  A    between atoms: S_13  and  C_14
REMARK    5  A    between atoms: C_14  and  C_15
REMARK    6  A    between atoms: N_17  and  C_18
REMARK    7  A    between atoms: C_21  and  C_27
REMARK    8  A    between atoms: C_23  and  N_24
REMARK    9  A    between atoms: C_29  and  C_33
REMARK                            x       y       z     vdW  Elec       q    Type
REMARK                         _______ _______ _______ _____ _____    ______ ____
ROOT
ATOM      1  N   UNL     1      -1.377  -0.577   0.011  0.00  0.00    -0.288 N 
ATOM      2  C   UNL     1      -1.984  -0.824   1.186  0.00  0.00    +0.263 A 
ATOM      3  O   UNL     1      -1.403  -0.616   2.238  0.00  0.00    -0.267 OA
ATOM      4  C   UNL     1      -3.321  -1.333   1.185  0.00  0.00    +0.076 A 
ATOM      5  C   UNL     1      -4.165  -1.672   2.333  0.00  0.00    -0.023 A 
ATOM      6  C   UNL     1      -5.401  -2.139   2.067  0.00  0.00    -0.004 A 
ATOM      7  S   UNL     1      -5.517  -2.156   0.298  0.00  0.00    -0.073 S 
ATOM      8  C   UNL     1      -3.898  -1.535  -0.081  0.00  0.00    +0.117 A 
ATOM      9  N   UNL     1      -3.244  -1.270  -1.206  0.00  0.00    -0.216 NA
ATOM     10  C   UNL     1      -2.014  -0.797  -1.176  0.00  0.00    +0.173 A 
ATOM     11  C   UNL     1      -6.447  -2.554   3.056  0.00  0.00    +0.046 C 
ATOM     12  C   UNL     1      -5.777  -2.723   4.427  0.00  0.00    -0.009 C 
ATOM     13  C   UNL     1      -4.901  -1.496   4.699  0.00  0.00    +0.008 C 
ATOM     14  C   UNL     1      -3.685  -1.511   3.772  0.00  0.00    +0.037 C 
ATOM     15  C   UNL     1      -6.850  -2.842   5.512  0.00  0.00    +0.008 C 
ENDROOT
BRANCH   1  17
ATOM     16  C   UNL     1      -0.044   1.474   0.028  0.00  0.00    +0.027 C 
ATOM     17  C   UNL     1      -0.008  -0.055   0.005  0.00  0.00    +0.124 C 
ENDBRANCH   1  17
BRANCH  10  18
ATOM     18  S   UNL     1      -1.179  -0.451  -2.688  0.00  0.00    -0.078 S 
BRANCH  18  19
ATOM     19  C   UNL     1      -2.389  -0.888  -3.967  0.00  0.00    +0.173 C 
BRANCH  19  20
ATOM     20  C   UNL     1      -1.794  -0.636  -5.329  0.00  0.00    +0.228 C 
ATOM     21  O   UNL     1      -0.664  -0.204  -5.426  0.00  0.00    -0.275 OA
ATOM     22  N   UNL     1      -2.516  -0.890  -6.438  0.00  0.00    -0.283 N 
ATOM     23  H   UNL     1      -3.394  -1.296  -6.362  0.00  0.00    +0.155 HD
BRANCH  22  24
ATOM     24  C   UNL     1      -2.000  -0.569  -7.698  0.00  0.00    +0.064 A 
ATOM     25  C   UNL     1      -0.639  -0.695  -7.945  0.00  0.00    +0.026 A 
ATOM     26  C   UNL     1      -0.133  -0.378  -9.190  0.00  0.00    +0.005 A 
ATOM     27  C   UNL     1      -0.979   0.066 -10.190  0.00  0.00    -0.048 A 
ATOM     28  C   UNL     1      -2.334   0.193  -9.947  0.00  0.00    +0.038 A 
ATOM     29  C   UNL     1      -2.848  -0.129  -8.706  0.00  0.00    +0.148 A 
ATOM     30  C   UNL     1      -0.423   0.412 -11.547  0.00  0.00    +0.044 C 
BRANCH  29  31
ATOM     31  N   UNL     1      -4.299   0.001  -8.448  0.00  0.00    +0.058 N 
ATOM     32  O   UNL     1      -5.050   0.290  -9.351  0.00  0.00    -0.126 OA
ATOM     33  O   UNL     1      -4.735  -0.182  -7.335  0.00  0.00    -0.126 OA
ENDBRANCH  29  31
ENDBRANCH  22  24
ENDBRANCH  19  20
ENDBRANCH  18  19
ENDBRANCH  10  18
TORSDOF 6
