REMARK  Name = ZINC04239574
REMARK  5 active torsions:
REMARK  status: ('A' for Active; 'I' for Inactive)
REMARK    1  A    between atoms: C_1  and  N_2
REMARK    2  A    between atoms: C_5  and  C_10
REMARK    3  A    between atoms: N_19  and  C_21
REMARK    4  A    between atoms: C_24  and  O_27
REMARK    5  A    between atoms: O_27  and  C_28
REMARK                            x       y       z     vdW  Elec       q    Type
REMARK                         _______ _______ _______ _____ _____    ______ ____
ROOT
ATOM      1  C   UNL     1      -6.866   1.532   0.043  0.00  0.00    +0.139 C 
ATOM      2  N   UNL     1      -6.070   0.302   0.032  0.00  0.00    -0.260 N 
ATOM      3  C   UNL     1      -4.709   0.413   0.026  0.00  0.00    +0.042 C 
ATOM      4  C   UNL     1      -3.918  -0.679   0.016  0.00  0.00    +0.058 C 
ATOM      5  C   UNL     1      -4.591  -2.036   0.011  0.00  0.00    +0.142 C 
ATOM      6  N   UNL     1      -6.064  -2.050   0.019  0.00  0.00    -0.288 N 
ATOM      7  C   UNL     1      -6.717  -0.871   0.029  0.00  0.00    +0.307 C 
ATOM      8  O   UNL     1      -7.933  -0.872   0.035  0.00  0.00    -0.252 OA
ATOM      9  C   UNL     1      -2.560  -0.301   0.007  0.00  0.00    +0.251 C 
ATOM     10  O   UNL     1      -1.628  -1.084  -0.009  0.00  0.00    -0.270 OA
ATOM     11  N   UNL     1      -2.428   1.038   0.019  0.00  0.00    -0.262 N 
ATOM     12  C   UNL     1      -3.783   1.609   0.029  0.00  0.00    +0.165 C 
ATOM     13  H   UNL     1      -6.553  -2.888   0.016  0.00  0.00    +0.151 HD
ENDROOT
BRANCH   5  14
ATOM     14  C   UNL     1      -4.126  -2.781  -1.213  0.00  0.00    -0.022 A 
ATOM     15  C   UNL     1      -4.797  -2.627  -2.412  0.00  0.00    +0.008 A 
ATOM     16  C   UNL     1      -4.368  -3.305  -3.537  0.00  0.00    +0.038 A 
ATOM     17  C   UNL     1      -3.273  -4.149  -3.460  0.00  0.00    +0.123 A 
ATOM     18  C   UNL     1      -2.605  -4.307  -2.258  0.00  0.00    +0.038 A 
ATOM     19  C   UNL     1      -3.032  -3.623  -1.136  0.00  0.00    +0.008 A 
ATOM     20  F   UNL     1      -2.856  -4.817  -4.558  0.00  0.00    -0.205 F 
ENDBRANCH   5  14
BRANCH  11  21
ATOM     21  C   UNL     1      -1.224   1.754   0.017  0.00  0.00    +0.037 A 
ATOM     22  C   UNL     1      -0.013   1.076   0.008  0.00  0.00    +0.027 A 
ATOM     23  C   UNL     1       1.174   1.783   0.000  0.00  0.00    +0.047 A 
ATOM     24  C   UNL     1       1.155   3.170   0.008  0.00  0.00    +0.120 A 
ATOM     25  C   UNL     1      -0.055   3.848   0.023  0.00  0.00    +0.047 A 
ATOM     26  C   UNL     1      -1.242   3.142   0.030  0.00  0.00    +0.027 A 
BRANCH  24  27
ATOM     27  O   UNL     1       2.324   3.865   0.000  0.00  0.00    -0.495 OA
ATOM     28  C   UNL     1       2.230   5.291   0.008  0.00  0.00    +0.277 C 
ENDBRANCH  24  27
ENDBRANCH  11  21
TORSDOF 3
