REMARK  Name = ZINC00781091
REMARK  8 active torsions:
REMARK  status: ('A' for Active; 'I' for Inactive)
REMARK    1  A    between atoms: C_1  and  C_2
REMARK    2  A    between atoms: C_2  and  C_3
REMARK    3  A    between atoms: C_2  and  O_4
REMARK    4  A    between atoms: O_4  and  C_5
REMARK    5  A    between atoms: C_10  and  C_11
REMARK    6  A    between atoms: C_16  and  C_21
REMARK    7  A    between atoms: C_24  and  O_27
REMARK    8  A    between atoms: O_27  and  C_28
REMARK                            x       y       z     vdW  Elec       q    Type
REMARK                         _______ _______ _______ _____ _____    ______ ____
ROOT
ATOM      1  C   UNL     1      -0.044   5.351   0.047  0.00  0.00    +0.139 C 
ATOM      2  C   UNL     1      -0.240   5.844  -1.366  0.00  0.00    +0.037 C 
ATOM      3  C   UNL     1       0.687   6.457  -2.123  0.00  0.00    +0.017 C 
ATOM      4  C   UNL     1       0.353   6.917  -3.531  0.00  0.00    +0.059 C 
ATOM      5  C   UNL     1      -0.673   5.975  -4.158  0.00  0.00    +0.032 C 
ATOM      6  C   UNL     1      -1.927   5.997  -3.276  0.00  0.00    +0.088 C 
ATOM      7  C   UNL     1      -1.536   5.607  -1.882  0.00  0.00    +0.163 C 
ATOM      8  O   UNL     1      -2.361   5.067  -1.171  0.00  0.00    -0.292 OA
ATOM      9  N   UNL     1       1.954   6.732  -1.719  0.00  0.00    -0.316 N 
ATOM     10  C   UNL     1       2.795   5.835  -1.071  0.00  0.00    +0.052 A 
ATOM     11  C   UNL     1       3.965   5.369  -1.646  0.00  0.00    +0.025 A 
ATOM     12  C   UNL     1       4.780   4.513  -0.925  0.00  0.00    +0.002 A 
ATOM     13  C   UNL     1       4.431   4.132   0.358  0.00  0.00    +0.002 A 
ATOM     14  C   UNL     1       3.252   4.583   0.926  0.00  0.00    +0.025 A 
ATOM     15  C   UNL     1       2.423   5.420   0.199  0.00  0.00    +0.049 A 
ATOM     16  N   UNL     1       1.175   5.808   0.679  0.00  0.00    -0.331 N 
ATOM     17  H   UNL     1       2.298   7.621  -1.897  0.00  0.00    +0.152 HD
ATOM     18  H   UNL     1       1.123   6.391   1.452  0.00  0.00    +0.147 HD
ENDROOT
BRANCH   1  24
ATOM     19  C   UNL     1      -0.229   3.135   1.206  0.00  0.00    +0.126 A 
ATOM     20  C   UNL     1      -0.226   1.747   1.185  0.00  0.00    +0.046 A 
ATOM     21  C   UNL     1      -0.021   1.076  -0.004  0.00  0.00    +0.004 A 
ATOM     22  C   UNL     1       0.170   1.785  -1.176  0.00  0.00    +0.001 A 
ATOM     23  C   UNL     1       0.163   3.167  -1.159  0.00  0.00    +0.009 A 
ATOM     24  C   UNL     1      -0.037   3.844   0.029  0.00  0.00    +0.019 A 
BRANCH  19  25
ATOM     25  O   UNL     1      -0.426   3.797   2.376  0.00  0.00    -0.489 OA
BRANCH  25  27
ATOM     26  C   UNL     1      -0.106   3.860   4.770  0.00  0.00    +0.051 C 
ATOM     27  C   UNL     1      -0.504   3.007   3.564  0.00  0.00    +0.167 C 
ATOM     28  C   UNL     1      -1.936   2.501   3.747  0.00  0.00    +0.051 C 
ENDBRANCH  25  27
ENDBRANCH  19  25
ENDBRANCH   1  24
BRANCH   5  29
ATOM     29  C   UNL     1      -1.018   6.447  -5.548  0.00  0.00    -0.043 A 
ATOM     30  C   UNL     1      -1.572   7.700  -5.733  0.00  0.00    +0.007 A 
ATOM     31  C   UNL     1      -1.883   8.137  -7.006  0.00  0.00    +0.046 A 
ATOM     32  C   UNL     1      -1.651   7.313  -8.097  0.00  0.00    +0.120 A 
ATOM     33  C   UNL     1      -1.101   6.054  -7.908  0.00  0.00    +0.046 A 
ATOM     34  C   UNL     1      -0.786   5.623  -6.634  0.00  0.00    +0.007 A 
BRANCH  32  35
ATOM     35  O   UNL     1      -1.962   7.739  -9.350  0.00  0.00    -0.495 OA
ATOM     36  C   UNL     1      -2.525   9.046  -9.470  0.00  0.00    +0.277 C 
ENDBRANCH  32  35
ENDBRANCH   5  29
TORSDOF 5
