REMARK  Name = ZINC20984101
REMARK  10 active torsions:
REMARK  status: ('A' for Active; 'I' for Inactive)
REMARK    1  A    between atoms: C_1  and  C_2
REMARK    2  A    between atoms: C_2  and  C_3
REMARK    3  A    between atoms: C_3  and  C_5
REMARK    4  A    between atoms: C_3  and  C_6
REMARK    5  A    between atoms: C_9  and  N_12
REMARK    6  A    between atoms: C_22  and  S_23
REMARK    7  A    between atoms: S_23  and  C_24
REMARK    8  A    between atoms: C_24  and  C_26
REMARK    9  A    between atoms: C_24  and  C_27
REMARK   10  A    between atoms: N_32  and  C_33
REMARK                            x       y       z     vdW  Elec       q    Type
REMARK                         _______ _______ _______ _____ _____    ______ ____
ROOT
ATOM      1  N   UNL     1      -3.388   1.017  -2.218  0.00  0.00    -0.255 N 
ATOM      2  C   UNL     1      -4.658   0.777  -1.816  0.00  0.00    +0.267 A 
ATOM      3  O   UNL     1      -5.606   1.298  -2.376  0.00  0.00    -0.267 OA
ATOM      4  C   UNL     1      -4.851  -0.135  -0.681  0.00  0.00    +0.065 A 
ATOM      5  C   UNL     1      -6.121  -0.444  -0.195  0.00  0.00    +0.017 A 
ATOM      6  C   UNL     1      -6.251  -1.297   0.865  0.00  0.00    +0.021 A 
ATOM      7  C   UNL     1      -5.130  -1.862   1.463  0.00  0.00    +0.043 A 
ATOM      8  C   UNL     1      -3.864  -1.574   1.003  0.00  0.00    +0.048 A 
ATOM      9  C   UNL     1      -3.706  -0.704  -0.079  0.00  0.00    +0.080 A 
ATOM     10  N   UNL     1      -2.482  -0.395  -0.568  0.00  0.00    -0.223 NA
ATOM     11  C   UNL     1      -2.334   0.425  -1.579  0.00  0.00    +0.177 A 
ATOM     12 CL   UNL     1      -5.329  -2.943   2.807  0.00  0.00    -0.083 Cl
ENDROOT
BRANCH   1  16
ATOM     13  C   UNL     1      -2.685   3.583  -5.426  0.00  0.00    -0.044 A 
ATOM     14  C   UNL     1      -2.868   2.231  -5.651  0.00  0.00    +0.006 A 
ATOM     15  C   UNL     1      -3.101   1.378  -4.590  0.00  0.00    +0.026 A 
ATOM     16  C   UNL     1      -3.152   1.879  -3.296  0.00  0.00    +0.052 A 
ATOM     17  C   UNL     1      -2.974   3.239  -3.074  0.00  0.00    +0.026 A 
ATOM     18  C   UNL     1      -2.736   4.086  -4.138  0.00  0.00    +0.006 A 
BRANCH  13  19
ATOM     19  C   UNL     1      -2.431   4.511  -6.586  0.00  0.00    +0.016 C 
ATOM     20  C   UNL     1      -3.535   5.569  -6.644  0.00  0.00    +0.012 C 
BRANCH  19  22
ATOM     21  C   UNL     1      -0.761   6.043  -7.637  0.00  0.00    +0.004 C 
ATOM     22  C   UNL     1      -1.076   5.197  -6.402  0.00  0.00    +0.004 C 
ENDBRANCH  19  22
ENDBRANCH  13  19
ENDBRANCH   1  16
BRANCH  11  23
ATOM     23  S   UNL     1      -0.703   0.775  -2.146  0.00  0.00    -0.075 S 
BRANCH  23  24
ATOM     24  C   UNL     1       0.256  -0.233  -0.988  0.00  0.00    +0.137 C 
ATOM     25  C   UNL     1       0.079   0.312   0.431  0.00  0.00    +0.029 C 
BRANCH  24  26
ATOM     26  C   UNL     1       1.714  -0.184  -1.367  0.00  0.00    +0.233 C 
ATOM     27  O   UNL     1       2.147   0.763  -1.988  0.00  0.00    -0.274 OA
ATOM     28  N   UNL     1       2.535  -1.192  -1.016  0.00  0.00    -0.239 N 
ATOM     29  C   UNL     1       3.839  -1.148  -1.355  0.00  0.00    +0.306 C 
ATOM     30  O   UNL     1       4.274  -0.199  -1.977  0.00  0.00    -0.252 OA
ATOM     31  N   UNL     1       4.661  -2.157  -1.003  0.00  0.00    -0.302 N 
ATOM     32  C   UNL     1       6.078  -2.109  -1.371  0.00  0.00    +0.129 C 
ATOM     33  H   UNL     1       2.142  -2.051  -0.452  0.00  0.00    +0.159 HD
ATOM     34  H   UNL     1       4.268  -3.016  -0.440  0.00  0.00    +0.150 HD
ENDBRANCH  24  26
ENDBRANCH  23  24
ENDBRANCH  11  23
TORSDOF 6
