REMARK  Name = ZINC19770289
REMARK  6 active torsions:
REMARK  status: ('A' for Active; 'I' for Inactive)
REMARK    1  A    between atoms: C_1  and  C_2
REMARK    2  A    between atoms: C_3  and  C_28
REMARK    3  A    between atoms: C_4  and  C_22
REMARK    4  A    between atoms: C_10  and  C_15
REMARK    5  A    between atoms: C_28  and  O_30
REMARK    6  A    between atoms: O_30  and  C_31
REMARK                            x       y       z     vdW  Elec       q    Type
REMARK                         _______ _______ _______ _____ _____    ______ ____
ROOT
ATOM      1  C   UNL     1       3.753  -0.358  -0.801  0.00  0.00    +0.061 C 
ATOM      2  C   UNL     1       2.428   0.233  -0.397  0.00  0.00    +0.016 C 
ATOM      3  C   UNL     1       1.292  -0.444  -0.642  0.00  0.00    +0.067 C 
ATOM      4  C   UNL     1      -0.045   0.111  -0.248  0.00  0.00    +0.111 C 
ATOM      5  C   UNL     1       0.040   1.594   0.013  0.00  0.00    +0.025 C 
ATOM      6  C   UNL     1       1.231   2.187   0.236  0.00  0.00    +0.016 C 
ATOM      7  N   UNL     1       2.387   1.454   0.216  0.00  0.00    -0.321 N 
ATOM      8  C   UNL     1       1.321   3.667   0.518  0.00  0.00    +0.059 C 
ATOM      9  C   UNL     1       0.194   4.398  -0.214  0.00  0.00    +0.032 C 
ATOM     10  C   UNL     1      -1.145   3.822   0.258  0.00  0.00    +0.088 C 
ATOM     11  C   UNL     1      -1.153   2.338   0.011  0.00  0.00    +0.162 C 
ATOM     12  O   UNL     1      -2.209   1.772  -0.191  0.00  0.00    -0.292 OA
ATOM     13  H   UNL     1       3.289   1.856   0.701  0.00  0.00    +0.152 HD
ENDROOT
BRANCH   9  14
ATOM     14  C   UNL     1       0.253   5.870   0.107  0.00  0.00    -0.043 A 
ATOM     15  C   UNL     1       0.126   6.297   1.415  0.00  0.00    +0.005 A 
ATOM     16  C   UNL     1       0.186   7.646   1.710  0.00  0.00    +0.020 A 
ATOM     17  C   UNL     1       0.362   8.569   0.695  0.00  0.00    +0.041 A 
ATOM     18  C   UNL     1       0.484   8.141  -0.615  0.00  0.00    +0.020 A 
ATOM     19  C   UNL     1       0.429   6.791  -0.908  0.00  0.00    +0.005 A 
ATOM     20 CL   UNL     1       0.430  10.264   1.064  0.00  0.00    -0.084 Cl
ENDBRANCH   9  14
BRANCH   4  21
ATOM     21  C   UNL     1      -0.520  -0.585   1.002  0.00  0.00    +0.053 A 
ATOM     22  C   UNL     1       0.395  -0.941   1.975  0.00  0.00    +0.024 A 
ATOM     23  C   UNL     1      -0.053  -1.575   3.124  0.00  0.00    +0.003 A 
ATOM     24  C   UNL     1      -1.409  -1.839   3.246  0.00  0.00    +0.020 A 
ATOM     25  C   UNL     1      -2.264  -1.458   2.228  0.00  0.00    +0.111 A 
ATOM     26  N   UNL     1      -1.803  -0.852   1.152  0.00  0.00    -0.259 NA
ENDBRANCH   4  21
BRANCH   3  27
ATOM     27  C   UNL     1       1.360  -1.702  -1.285  0.00  0.00    +0.338 C 
ATOM     28  O   UNL     1       2.421  -2.107  -1.719  0.00  0.00    -0.245 OA
BRANCH  27  29
ATOM     29  O   UNL     1       0.246  -2.453  -1.415  0.00  0.00    -0.458 OA
BRANCH  29  30
ATOM     30  C   UNL     1       0.388  -3.713  -2.075  0.00  0.00    +0.177 C 
ATOM     31  C   UNL     1       0.091  -3.558  -3.581  0.00  0.00    +0.044 C 
ATOM     32  C   UNL     1      -0.646  -4.865  -3.960  0.00  0.00    +0.004 C 
ATOM     33  C   UNL     1      -1.530  -5.132  -2.716  0.00  0.00    +0.004 C 
ATOM     34  C   UNL     1      -0.644  -4.714  -1.525  0.00  0.00    +0.044 C 
ENDBRANCH  29  30
ENDBRANCH  27  29
ENDBRANCH   3  27
TORSDOF 5
