REMARK  Name = ZINC49415244
REMARK  7 active torsions:
REMARK  status: ('A' for Active; 'I' for Inactive)
REMARK    1  A    between atoms: C_1  and  C_2
REMARK    2  A    between atoms: C_2  and  C_3
REMARK    3  A    between atoms: C_2  and  N_4
REMARK    4  A    between atoms: C_7  and  C_10
REMARK    5  A    between atoms: C_10  and  N_11
REMARK    6  A    between atoms: N_14  and  C_15
REMARK    7  A    between atoms: C_15  and  C_16
REMARK                            x       y       z     vdW  Elec       q    Type
REMARK                         _______ _______ _______ _____ _____    ______ ____
ROOT
ATOM      1  N   UNL     1       3.113  -3.581  -3.706  0.00  0.00    -0.299 N 
ATOM      2  C   UNL     1       3.152  -4.287  -4.853  0.00  0.00    +0.300 C 
ATOM      3  O   UNL     1       2.119  -4.567  -5.430  0.00  0.00    -0.253 OA
ATOM      4  N   UNL     1       4.336  -4.683  -5.361  0.00  0.00    -0.295 N 
ATOM      5  H   UNL     1       3.938  -3.357  -3.246  0.00  0.00    +0.150 HD
ATOM      6  H   UNL     1       5.161  -4.460  -4.901  0.00  0.00    +0.151 HD
ENDROOT
BRANCH   1   7
ATOM      7  C   UNL     1       1.826  -3.150  -3.155  0.00  0.00    +0.107 C 
BRANCH   7  11
ATOM      8  N   UNL     1       0.690  -0.478  -1.207  0.00  0.00    +0.381 N 
ATOM      9  C   UNL     1       2.111  -0.045  -1.190  0.00  0.00    -0.078 C 
ATOM     10  C   UNL     1       2.796  -1.044  -2.156  0.00  0.00    -0.015 C 
ATOM     11  C   UNL     1       2.062  -2.372  -1.859  0.00  0.00    -0.012 C 
ATOM     12  C   UNL     1       0.719  -1.956  -1.230  0.00  0.00    -0.074 C 
ATOM     13  H   UNL     1       0.227  -0.126  -2.031  0.00  0.00    -0.081 HD
BRANCH   8  15
ATOM     14  C   UNL     1      -0.019   1.526   0.010  0.00  0.00    -0.014 C 
ATOM     15  C   UNL     1       0.002  -0.004   0.002  0.00  0.00    -0.075 C 
ATOM     16  C   UNL     1      -1.433  -0.534   0.013  0.00  0.00    -0.014 C 
ENDBRANCH   8  15
ENDBRANCH   7  11
ENDBRANCH   1   7
BRANCH   4  17
ATOM     17  C   UNL     1       4.379  -5.451  -6.608  0.00  0.00    +0.148 C 
BRANCH  17  18
ATOM     18  C   UNL     1       5.811  -5.766  -6.955  0.00  0.00    +0.008 A 
ATOM     19  C   UNL     1       6.556  -6.844  -6.607  0.00  0.00    +0.028 A 
ATOM     20  C   UNL     1       7.865  -6.923  -7.045  0.00  0.00    +0.025 A 
ATOM     21  C   UNL     1       8.364  -5.921  -7.811  0.00  0.00    +0.060 A 
ATOM     22  S   UNL     1       6.963  -4.822  -7.939  0.00  0.00    -0.099 S 
ATOM     23 BR   UNL     1       8.944  -8.406  -6.584  0.00  0.00    -0.050 Br
ENDBRANCH  17  18
ENDBRANCH   4  17
TORSDOF 5
