REMARK  Name = ZINC59249426
REMARK  12 active torsions:
REMARK  status: ('A' for Active; 'I' for Inactive)
REMARK    1  A    between atoms: C_1  and  C_2
REMARK    2  A    between atoms: C_2  and  O_3
REMARK    3  A    between atoms: O_3  and  C_4
REMARK    4  A    between atoms: C_6  and  C_14
REMARK    5  A    between atoms: C_8  and  C_11
REMARK    6  A    between atoms: C_9  and  O_10
REMARK    7  A    between atoms: C_11  and  C_12
REMARK    8  A    between atoms: C_15  and  C_16
REMARK    9  A    between atoms: C_15  and  C_18
REMARK   10  A    between atoms: N_20  and  C_28
REMARK   11  A    between atoms: C_21  and  N_27
REMARK   12  A    between atoms: C_23  and  C_25
REMARK                            x       y       z     vdW  Elec       q    Type
REMARK                         _______ _______ _______ _____ _____    ______ ____
ROOT
ATOM      1  C   UNL     1      -0.196  -4.957  -0.496  0.00  0.00    +0.028 C 
ATOM      2  C   UNL     1      -0.929  -4.449  -1.531  0.00  0.00    +0.076 C 
ENDROOT
BRANCH   1   5
ATOM      3  C   UNL     1       1.478  -3.466   2.509  0.00  0.00    +0.162 A 
ATOM      4  C   UNL     1       0.726  -4.314   1.720  0.00  0.00    +0.057 A 
ATOM      5  C   UNL     1       0.601  -4.061   0.347  0.00  0.00    -0.020 A 
ATOM      6  C   UNL     1       1.239  -2.948  -0.216  0.00  0.00    +0.015 A 
ATOM      7  C   UNL     1       1.987  -2.108   0.580  0.00  0.00    +0.002 A 
ATOM      8  C   UNL     1       2.105  -2.358   1.941  0.00  0.00    +0.162 A 
BRANCH   8   9
ATOM      9  O   UNL     1       2.840  -1.522   2.721  0.00  0.00    -0.503 OA
ATOM     10  H   UNL     1       3.772  -1.768   2.791  0.00  0.00    +0.292 HD
ENDBRANCH   8   9
BRANCH   3  11
ATOM     11  O   UNL     1       1.602  -3.709   3.841  0.00  0.00    -0.489 OA
BRANCH  11  13
ATOM     12  C   UNL     1       1.185  -4.969   5.861  0.00  0.00    +0.048 C 
ATOM     13  C   UNL     1       0.932  -4.862   4.355  0.00  0.00    +0.226 C 
ENDBRANCH  11  13
ENDBRANCH   3  11
BRANCH   7  14
ATOM     14  C   UNL     1       2.673  -0.912  -0.027  0.00  0.00    +0.065 C 
BRANCH  14  15
ATOM     15  C   UNL     1       4.097  -1.269  -0.368  0.00  0.00    -0.030 C 
ATOM     16  C   UNL     1       4.541  -1.095  -1.588  0.00  0.00    +0.004 C 
ENDBRANCH  14  15
ENDBRANCH   7  14
ENDBRANCH   1   5
BRANCH   2  17
ATOM     17  C   UNL     1      -1.593  -5.358  -2.477  0.00  0.00    +0.097 C 
ATOM     18  N   UNL     1      -2.304  -4.990  -3.490  0.00  0.00    -0.180 NA
ATOM     19  N   UNL     1      -2.826  -6.047  -4.232  0.00  0.00    -0.206 N 
ATOM     20  C   UNL     1      -2.399  -7.315  -3.620  0.00  0.00    +0.185 C 
ATOM     21  C   UNL     1      -1.546  -6.868  -2.416  0.00  0.00    +0.179 C 
BRANCH  19  22
ATOM     22  C   UNL     1      -3.624  -5.923  -5.369  0.00  0.00    +0.053 A 
ATOM     23  C   UNL     1      -4.090  -7.060  -6.020  0.00  0.00    +0.025 A 
ATOM     24  C   UNL     1      -4.880  -6.934  -7.145  0.00  0.00    +0.002 A 
ATOM     25  C   UNL     1      -5.208  -5.678  -7.625  0.00  0.00    +0.000 A 
ATOM     26  C   UNL     1      -4.746  -4.545  -6.980  0.00  0.00    +0.002 A 
ATOM     27  C   UNL     1      -3.960  -4.664  -5.851  0.00  0.00    +0.025 A 
ENDBRANCH  19  22
BRANCH  20  28
ATOM     28  N   UNL     1      -3.563  -8.094  -3.178  0.00  0.00    -0.310 NA
ATOM     29  H   UNL     1      -4.158  -8.329  -3.958  0.00  0.00    +0.120 HD
ATOM     30  H   UNL     1      -3.276  -8.922  -2.679  0.00  0.00    +0.120 HD
ENDBRANCH  20  28
BRANCH  21  31
ATOM     31  C   UNL     1      -0.161  -7.347  -2.556  0.00  0.00    +0.076 C 
ATOM     32  N   UNL     1       0.908  -7.716  -2.663  0.00  0.00    -0.196 NA
ENDBRANCH  21  31
ENDBRANCH   2  17
BRANCH   2  33
ATOM     33  C   UNL     1      -1.049  -3.032  -1.695  0.00  0.00    +0.101 C 
ATOM     34  N   UNL     1      -1.145  -1.907  -1.825  0.00  0.00    -0.191 NA
ENDBRANCH   2  33
TORSDOF 11
