REMARK  Name = ZINC49517896
REMARK  4 active torsions:
REMARK  status: ('A' for Active; 'I' for Inactive)
REMARK    1  A    between atoms: C_2  and  C_3
REMARK    2  A    between atoms: C_3  and  N_4
REMARK    3  A    between atoms: C_13  and  C_15
REMARK    4  A    between atoms: C_15  and  C_16
REMARK                            x       y       z     vdW  Elec       q    Type
REMARK                         _______ _______ _______ _____ _____    ______ ____
ROOT
ATOM      1  N   UNL     1       1.356   1.975   0.004  0.00  0.00    -0.288 N 
ATOM      2  C   UNL     1       1.585   3.303   0.005  0.00  0.00    +0.303 C 
ATOM      3  O   UNL     1       0.653   4.080  -0.078  0.00  0.00    -0.253 OA
ATOM      4  N   UNL     1       2.846   3.770   0.097  0.00  0.00    -0.283 N 
ATOM      5  C   UNL     1       3.989   2.846   0.076  0.00  0.00    +0.128 C 
ATOM      6  C   UNL     1       4.942   3.271  -1.047  0.00  0.00    +0.127 C 
ATOM      7  N   UNL     1       5.199   4.713  -0.925  0.00  0.00    -0.298 N 
ATOM      8  C   UNL     1       4.056   5.637  -0.904  0.00  0.00    +0.127 C 
ATOM      9  C   UNL     1       3.103   5.212   0.213  0.00  0.00    +0.128 C 
ATOM     10  C   UNL     1       6.460   5.180  -0.833  0.00  0.00    +0.224 C 
ATOM     11  O   UNL     1       7.395   4.407  -0.850  0.00  0.00    -0.275 OA
ATOM     12  H   UNL     1       2.102   1.354  -0.003  0.00  0.00    +0.151 HD
ENDROOT
BRANCH   1  13
ATOM     13  C   UNL     1      -0.018   1.468   0.014  0.00  0.00    +0.195 C 
BRANCH  13  15
ATOM     14  C   UNL     1       0.017  -1.177   0.010  0.00  0.00    +0.005 C 
ATOM     15  C   UNL     1       0.001  -0.004   0.012  0.00  0.00    -0.087 C 
ENDBRANCH  13  15
ENDBRANCH   1  13
BRANCH  10  16
ATOM     16  C   UNL     1       6.708   6.661  -0.708  0.00  0.00    +0.209 C 
BRANCH  16  17
ATOM     17  C   UNL     1       8.213   6.920  -0.621  0.00  0.00    +0.398 C 
ATOM     18  F   UNL     1       8.837   6.439  -1.776  0.00  0.00    -0.170 F 
ATOM     19  F   UNL     1       8.444   8.295  -0.505  0.00  0.00    -0.170 F 
ATOM     20  F   UNL     1       8.736   6.264   0.499  0.00  0.00    -0.170 F 
ENDBRANCH  16  17
ENDBRANCH  10  16
TORSDOF 4
