REMARK  Name = ZINC65167915
REMARK  4 active torsions:
REMARK  status: ('A' for Active; 'I' for Inactive)
REMARK    1  A    between atoms: C_3  and  S_6
REMARK    2  A    between atoms: S_6  and  N_9
REMARK    3  A    between atoms: C_12  and  C_15
REMARK    4  A    between atoms: C_17  and  N_20
REMARK                            x       y       z     vdW  Elec       q    Type
REMARK                         _______ _______ _______ _____ _____    ______ ____
ROOT
ATOM      1  N   UNL     1       4.477   2.089   1.552  0.00  0.00    -0.176 NA
ATOM      2  C   UNL     1       4.259   3.348   2.277  0.00  0.00    +0.110 C 
ATOM      3  C   UNL     1       5.593   3.813   2.869  0.00  0.00    +0.027 C 
ATOM      4  C   UNL     1       6.187   2.690   3.723  0.00  0.00    +0.044 C 
ATOM      5  C   UNL     1       6.449   1.464   2.846  0.00  0.00    +0.027 C 
ATOM      6  C   UNL     1       5.120   0.971   2.255  0.00  0.00    +0.110 C 
ENDROOT
BRANCH   4   7
ATOM      7  C   UNL     1       7.483   3.156   4.335  0.00  0.00    +0.089 A 
ATOM      8  C   UNL     1       8.742   3.117   3.721  0.00  0.00    +0.092 A 
ATOM      9  C   UNL     1       9.652   3.625   4.593  0.00  0.00    +0.215 A 
ATOM     10  O   UNL     1       8.996   3.973   5.714  0.00  0.00    -0.340 OA
ATOM     11  N   UNL     1       7.625   3.672   5.525  0.00  0.00    -0.081 NA
BRANCH   9  12
ATOM     12  N   UNL     1      11.009   3.761   4.368  0.00  0.00    -0.327 N 
ATOM     13  H   UNL     1      11.391   3.479   3.522  0.00  0.00    +0.145 HD
ATOM     14  H   UNL     1      11.580   4.137   5.056  0.00  0.00    +0.145 HD
ENDBRANCH   9  12
ENDBRANCH   4   7
BRANCH   1  15
ATOM     15  S   UNL     1       4.001   1.932  -0.026  0.00  0.00    +0.067 S 
ATOM     16  O   UNL     1       4.799   0.900  -0.590  0.00  0.00    -0.152 OA
ATOM     17  O   UNL     1       3.957   3.244  -0.570  0.00  0.00    -0.152 OA
BRANCH  15  20
ATOM     18  C   UNL     1      -0.016   1.351   0.009  0.00  0.00    +0.010 A 
ATOM     19  C   UNL     1       1.183   2.038   0.002  0.00  0.00    +0.036 A 
ATOM     20  C   UNL     1       2.343   1.336  -0.013  0.00  0.00    +0.143 A 
ATOM     21  S   UNL     1       1.754  -0.349  -0.017  0.00  0.00    -0.077 S 
ATOM     22  C   UNL     1       0.002  -0.004   0.002  0.00  0.00    +0.047 A 
ENDBRANCH  15  20
ENDBRANCH   1  15
TORSDOF 4
