REMARK  Name = ZINC09244170
REMARK  9 active torsions:
REMARK  status: ('A' for Active; 'I' for Inactive)
REMARK    1  A    between atoms: C_1  and  C_2
REMARK    2  A    between atoms: C_2  and  C_3
REMARK    3  A    between atoms: C_3  and  O_4
REMARK    4  A    between atoms: O_4  and  C_5
REMARK    5  A    between atoms: C_8  and  C_11
REMARK    6  A    between atoms: C_18  and  N_34
REMARK    7  A    between atoms: C_19  and  C_32
REMARK    8  A    between atoms: C_20  and  C_22
REMARK    9  A    between atoms: C_25  and  C_28
REMARK                            x       y       z     vdW  Elec       q    Type
REMARK                         _______ _______ _______ _____ _____    ______ ____
ROOT
ATOM      1  C   UNL     1      -6.679  -4.826   0.185  0.00  0.00    +0.100 A 
ATOM      2  C   UNL     1      -6.847  -5.911  -0.680  0.00  0.00    +0.054 A 
ATOM      3  C   UNL     1      -8.129  -6.361  -0.550  0.00  0.00    +0.223 A 
ATOM      4  N   UNL     1      -8.745  -5.585   0.366  0.00  0.00    -0.246 N 
ATOM      5  H   UNL     1      -9.664  -5.673   0.663  0.00  0.00    +0.192 HD
ATOM      6  N   UNL     1      -7.819  -4.632   0.819  0.00  0.00    -0.171 NA
ATOM      7  O   UNL     1      -8.613  -7.410  -1.261  0.00  0.00    -0.423 OA
ATOM      8  C   UNL     1      -7.885  -7.842  -2.311  0.00  0.00    +0.200 C 
ATOM      9  C   UNL     1      -6.604  -7.478  -2.538  0.00  0.00    +0.098 C 
ATOM     10  C   UNL     1      -5.854  -6.543  -1.621  0.00  0.00    +0.102 C 
ENDROOT
BRANCH   1  14
ATOM     11  C   UNL     1      -3.115  -2.560   0.695  0.00  0.00    +0.121 A 
ATOM     12  C   UNL     1      -3.519  -2.937  -0.578  0.00  0.00    +0.046 A 
ATOM     13  C   UNL     1      -4.674  -3.672  -0.747  0.00  0.00    +0.013 A 
ATOM     14  C   UNL     1      -5.435  -4.036   0.363  0.00  0.00    +0.003 A 
ATOM     15  C   UNL     1      -5.026  -3.656   1.639  0.00  0.00    +0.013 A 
ATOM     16  C   UNL     1      -3.868  -2.925   1.802  0.00  0.00    +0.046 A 
BRANCH  11  17
ATOM     17  O   UNL     1      -1.976  -1.836   0.858  0.00  0.00    -0.492 OA
BRANCH  17  18
ATOM     18  C   UNL     1      -1.250  -1.494  -0.325  0.00  0.00    +0.229 C 
BRANCH  18  20
ATOM     19  C   UNL     1       0.770  -0.320  -1.210  0.00  0.00    +0.007 C 
ATOM     20  C   UNL     1      -0.008  -0.685   0.056  0.00  0.00    +0.038 C 
ENDBRANCH  18  20
ENDBRANCH  17  18
ENDBRANCH  11  17
ENDBRANCH   1  14
BRANCH  10  21
ATOM     21  C   UNL     1      -4.828  -7.317  -0.834  0.00  0.00    -0.035 A 
ATOM     22  C   UNL     1      -5.232  -8.309   0.040  0.00  0.00    +0.005 A 
ATOM     23  C   UNL     1      -4.290  -9.018   0.762  0.00  0.00    +0.012 A 
ATOM     24  C   UNL     1      -2.946  -8.736   0.610  0.00  0.00    +0.055 A 
ATOM     25  C   UNL     1      -2.542  -7.745  -0.266  0.00  0.00    +0.012 A 
ATOM     26  C   UNL     1      -3.483  -7.038  -0.991  0.00  0.00    +0.005 A 
BRANCH  24  27
ATOM     27  C   UNL     1      -1.920  -9.509   1.397  0.00  0.00    +0.417 C 
ATOM     28  F   UNL     1      -1.526 -10.638   0.670  0.00  0.00    -0.166 F 
ATOM     29  F   UNL     1      -0.806  -8.697   1.636  0.00  0.00    -0.166 F 
ATOM     30  F   UNL     1      -2.474  -9.911   2.617  0.00  0.00    -0.166 F 
ENDBRANCH  24  27
ENDBRANCH  10  21
BRANCH   8  31
ATOM     31  N   UNL     1      -8.481  -8.701  -3.200  0.00  0.00    -0.328 N 
ATOM     32  H   UNL     1      -9.400  -8.980  -3.064  0.00  0.00    +0.145 HD
ATOM     33  H   UNL     1      -7.983  -9.029  -3.965  0.00  0.00    +0.145 HD
ENDBRANCH   8  31
BRANCH   9  34
ATOM     34  C   UNL     1      -5.932  -8.000  -3.690  0.00  0.00    +0.101 C 
ATOM     35  N   UNL     1      -5.400  -8.414  -4.604  0.00  0.00    -0.191 NA
ENDBRANCH   9  34
TORSDOF 8
