REMARK  Name = ZINC17157040
REMARK  6 active torsions:
REMARK  status: ('A' for Active; 'I' for Inactive)
REMARK    1  A    between atoms: C_1  and  C_2
REMARK    2  A    between atoms: C_6  and  C_12
REMARK    3  A    between atoms: C_10  and  C_11
REMARK    4  A    between atoms: C_12  and  C_13
REMARK    5  A    between atoms: N_15  and  N_16
REMARK    6  A    between atoms: C_17  and  C_19
REMARK                            x       y       z     vdW  Elec       q    Type
REMARK                         _______ _______ _______ _____ _____    ______ ____
ROOT
ATOM      1  C   UNL     1      -7.281   1.168   2.100  0.00  0.00    +0.234 C 
ATOM      2  O   UNL     1      -6.886   1.865   3.009  0.00  0.00    -0.274 OA
ATOM      3  N   UNL     1      -6.457   0.859   1.079  0.00  0.00    -0.234 N 
ATOM      4  H   UNL     1      -6.816   0.226   0.254  0.00  0.00    +0.173 HD
ENDROOT
BRANCH   3   5
ATOM      5  N   UNL     1      -5.143   1.344   1.069  0.00  0.00    -0.234 N 
ATOM      6  C   UNL     1      -4.318   1.035   0.049  0.00  0.00    +0.235 C 
ATOM      7  O   UNL     1      -4.714   0.337  -0.861  0.00  0.00    -0.274 OA
ATOM      8  H   UNL     1      -4.784   1.976   1.894  0.00  0.00    +0.173 HD
BRANCH   6   9
ATOM      9  C   UNL     1      -2.904   1.556   0.038  0.00  0.00    +0.049 C 
ATOM     10  C   UNL     1      -2.188   1.063  -1.221  0.00  0.00    +0.019 C 
ATOM     11  C   UNL     1      -0.753   1.593  -1.232  0.00  0.00    -0.009 C 
ATOM     12  C   UNL     1      -0.013   1.086   0.008  0.00  0.00    +0.007 C 
ATOM     13  C   UNL     1      -0.729   1.579   1.267  0.00  0.00    -0.009 C 
ATOM     14  C   UNL     1      -2.164   1.050   1.278  0.00  0.00    +0.019 C 
ATOM     15  C   UNL     1      -0.750   3.109   1.275  0.00  0.00    +0.007 C 
ATOM     16  C   UNL     1      -1.490   3.616   0.036  0.00  0.00    -0.009 C 
ATOM     17  C   UNL     1      -0.773   3.123  -1.223  0.00  0.00    +0.007 C 
ATOM     18  C   UNL     1      -2.925   3.086   0.047  0.00  0.00    +0.019 C 
ENDBRANCH   6   9
ENDBRANCH   3   5
BRANCH   1  19
ATOM     19  C   UNL     1      -8.695   0.646   2.110  0.00  0.00    +0.136 C 
BRANCH  19  25
ATOM     20  C   UNL     1     -12.257   5.779   5.012  0.00  0.00    +0.044 C 
ATOM     21  C   UNL     1     -11.491   4.589   4.495  0.00  0.00    -0.044 A 
ATOM     22  C   UNL     1     -11.002   4.598   3.197  0.00  0.00    +0.004 A 
ATOM     23  C   UNL     1     -10.304   3.527   2.712  0.00  0.00    +0.012 A 
ATOM     24  C   UNL     1     -10.079   2.421   3.530  0.00  0.00    +0.024 A 
ATOM     25  C   UNL     1      -9.401   1.132   3.350  0.00  0.00    +0.007 A 
ATOM     26  C   UNL     1      -9.529   0.477   4.512  0.00  0.00    +0.200 A 
ATOM     27  O   UNL     1     -10.221   1.223   5.391  0.00  0.00    -0.462 OA
ATOM     28  C   UNL     1     -10.578   2.402   4.844  0.00  0.00    +0.138 A 
ATOM     29  C   UNL     1     -11.284   3.501   5.317  0.00  0.00    -0.005 A 
ATOM     30  C   UNL     1     -11.822   3.505   6.724  0.00  0.00    +0.048 C 
ENDBRANCH  19  25
ENDBRANCH   1  19
TORSDOF 4
