REMARK  Name = ZINC20580487
REMARK  6 active torsions:
REMARK  status: ('A' for Active; 'I' for Inactive)
REMARK    1  A    between atoms: C_1  and  C_2
REMARK    2  A    between atoms: C_5  and  C_18
REMARK    3  A    between atoms: C_7  and  S_8
REMARK    4  A    between atoms: S_8  and  N_11
REMARK    5  A    between atoms: C_19  and  C_24
REMARK    6  A    between atoms: C_20  and  C_23
REMARK                            x       y       z     vdW  Elec       q    Type
REMARK                         _______ _______ _______ _____ _____    ______ ____
ROOT
ATOM      1  C   UNL     1      -1.702   4.236  -2.331  0.00  0.00    +0.046 C 
ATOM      2  C   UNL     1      -3.008   4.071  -1.598  0.00  0.00    -0.024 A 
ATOM      3  C   UNL     1      -4.165   3.798  -2.305  0.00  0.00    +0.006 A 
ATOM      4  C   UNL     1      -5.364   3.645  -1.641  0.00  0.00    +0.012 A 
ATOM      5  C   UNL     1      -5.408   3.767  -0.251  0.00  0.00    +0.022 A 
ATOM      6  C   UNL     1      -4.237   4.037   0.458  0.00  0.00    +0.040 A 
ATOM      7  C   UNL     1      -3.045   4.192  -0.220  0.00  0.00    +0.109 A 
ENDROOT
BRANCH   5   8
ATOM      8  C   UNL     1      -6.690   3.605   0.469  0.00  0.00    +0.170 A 
ATOM      9  C   UNL     1      -7.893   4.169   0.142  0.00  0.00    +0.019 A 
ATOM     10  C   UNL     1      -8.770   3.696   1.140  0.00  0.00    +0.084 A 
ATOM     11  N   UNL     1      -8.063   2.937   1.928  0.00  0.00    -0.083 NA
ATOM     12  O   UNL     1      -6.910   2.867   1.572  0.00  0.00    -0.354 OA
ATOM     13  C   UNL     1     -10.239   4.007   1.269  0.00  0.00    +0.069 C 
ATOM     14  C   UNL     1      -8.207   5.083  -1.014  0.00  0.00    +0.049 C 
ENDBRANCH   5   8
BRANCH   7  15
ATOM     15  S   UNL     1      -1.565   4.540   0.671  0.00  0.00    +0.061 S 
ATOM     16  O   UNL     1      -1.909   4.526   2.050  0.00  0.00    -0.153 OA
ATOM     17  O   UNL     1      -0.970   5.668   0.046  0.00  0.00    -0.153 OA
BRANCH  15  18
ATOM     18  N   UNL     1      -0.536   3.265   0.428  0.00  0.00    -0.177 NA
ATOM     19  C   UNL     1       0.528   3.336  -0.629  0.00  0.00    +0.109 C 
ATOM     20  C   UNL     1       1.819   3.431   0.049  0.00  0.00    +0.017 C 
ATOM     21  C   UNL     1       2.119   2.273   0.996  0.00  0.00    +0.001 C 
ATOM     22  C   UNL     1       1.557   2.685   2.325  0.00  0.00    +0.001 C 
ATOM     23  C   UNL     1       0.156   2.065   2.547  0.00  0.00    +0.017 C 
ATOM     24  C   UNL     1      -0.648   2.077   1.222  0.00  0.00    +0.109 C 
ENDBRANCH  15  18
ENDBRANCH   7  15
TORSDOF 3
