REMARK  Name = ZINC14743719
REMARK  7 active torsions:
REMARK  status: ('A' for Active; 'I' for Inactive)
REMARK    1  A    between atoms: C_1  and  C_2
REMARK    2  A    between atoms: C_5  and  C_7
REMARK    3  A    between atoms: C_7  and  N_8
REMARK    4  A    between atoms: C_9  and  C_11
REMARK    5  A    between atoms: N_14  and  C_16
REMARK    6  A    between atoms: C_19  and  N_57
REMARK    7  A    between atoms: C_22  and  N_57
REMARK                            x       y       z     vdW  Elec       q    Type
REMARK                         _______ _______ _______ _____ _____    ______ ____
ROOT
ATOM      1  C   UNL     1       0.605  -2.142  -1.026  0.00  0.00    +0.150 A 
ATOM      2  C   UNL     1       1.171  -2.968  -2.012  0.00  0.00    +0.004 A 
ATOM      3  C   UNL     1       0.954  -4.241  -1.600  0.00  0.00    +0.043 A 
ATOM      4  N   UNL     1       0.292  -4.174  -0.433  0.00  0.00    -0.270 N 
ATOM      5  N   UNL     1       0.100  -2.943  -0.104  0.00  0.00    -0.166 NA
ATOM      6  C   UNL     1      -0.142  -5.331   0.354  0.00  0.00    +0.172 C 
ATOM      7  C   UNL     1       1.403  -5.460  -2.365  0.00  0.00    +0.054 C 
ATOM      8  C   UNL     1       2.458  -5.024  -3.390  0.00  0.00    -0.009 C 
ATOM      9  C   UNL     1       1.935  -3.827  -4.189  0.00  0.00    -0.067 C 
ATOM     10  C   UNL     1       1.880  -2.590  -3.283  0.00  0.00    +0.023 C 
ENDROOT
BRANCH   1  12
ATOM     11  N   UNL     1       0.002  -0.004   0.002  0.00  0.00    -0.303 N 
ATOM     12  C   UNL     1       0.585  -0.664  -1.018  0.00  0.00    +0.265 C 
ATOM     13  O   UNL     1       1.095  -0.045  -1.931  0.00  0.00    -0.268 OA
ATOM     14  H   UNL     1      -0.404  -0.499   0.731  0.00  0.00    +0.150 HD
BRANCH  11  15
ATOM     15  C   UNL     1      -0.018   1.461   0.010  0.00  0.00    +0.179 C 
BRANCH  15  20
ATOM     16  C   UNL     1      -3.677   2.983   3.130  0.00  0.00    +0.086 C 
ATOM     17  C   UNL     1      -2.314   2.608   2.607  0.00  0.00    +0.102 A 
ATOM     18  C   UNL     1      -1.167   2.637   3.308  0.00  0.00    +0.045 A 
ATOM     19  C   UNL     1      -0.142   2.205   2.435  0.00  0.00    +0.046 A 
ATOM     20  C   UNL     1      -0.723   1.947   1.250  0.00  0.00    +0.122 A 
ATOM     21  O   UNL     1      -2.039   2.190   1.361  0.00  0.00    -0.463 OA
ENDBRANCH  15  20
ENDBRANCH  11  15
ENDBRANCH   1  12
BRANCH   9  22
ATOM     22  N   UNL     1       2.842  -3.558  -5.321  0.00  0.00    +0.383 N 
ATOM     23  H   UNL     1       3.808  -3.758  -5.037  0.00  0.00    -0.085 HD
ATOM     24  H   UNL     1       2.762  -2.570  -5.591  0.00  0.00    -0.085 HD
BRANCH  22  25
ATOM     25  C   UNL     1       2.488  -4.407  -6.474  0.00  0.00    -0.063 C 
ATOM     26  C   UNL     1       3.241  -5.753  -6.416  0.00  0.00    +0.020 C 
ATOM     27  C   UNL     1       3.555  -6.090  -7.861  0.00  0.00    -0.046 A 
ATOM     28  C   UNL     1       3.925  -7.293  -8.441  0.00  0.00    +0.004 A 
ATOM     29  C   UNL     1       4.160  -7.366  -9.800  0.00  0.00    +0.000 A 
ATOM     30  C   UNL     1       4.026  -6.236 -10.585  0.00  0.00    +0.000 A 
ATOM     31  C   UNL     1       3.658  -5.036 -10.009  0.00  0.00    +0.004 A 
ATOM     32  C   UNL     1       3.421  -4.961  -8.646  0.00  0.00    -0.046 A 
ATOM     33  C   UNL     1       3.013  -3.785  -7.785  0.00  0.00    +0.020 C 
ENDBRANCH  22  25
ENDBRANCH   9  22
TORSDOF 5
