REMARK  Name = ZINC04312122
REMARK  10 active torsions:
REMARK  status: ('A' for Active; 'I' for Inactive)
REMARK    1  A    between atoms: C_1  and  C_2
REMARK    2  A    between atoms: C_2  and  C_3
REMARK    3  A    between atoms: C_3  and  N_4
REMARK    4  A    between atoms: C_11  and  C_23
REMARK    5  A    between atoms: C_13  and  C_19
REMARK    6  A    between atoms: C_13  and  C_21
REMARK    7  A    between atoms: C_14  and  N_18
REMARK    8  A    between atoms: C_15  and  C_16
REMARK    9  A    between atoms: C_32  and  O_33
REMARK   10  A    between atoms: O_33  and  C_34
REMARK                            x       y       z     vdW  Elec       q    Type
REMARK                         _______ _______ _______ _____ _____    ______ ____
ROOT
ATOM      1  N   UNL     1       0.509  -1.876  -3.026  0.00  0.00    -0.298 NA
ATOM      2  C   UNL     1      -0.769  -2.564  -3.284  0.00  0.00    +0.112 C 
ATOM      3  C   UNL     1      -0.756  -3.856  -2.505  0.00  0.00    -0.007 C 
ATOM      4  C   UNL     1       0.380  -4.503  -2.320  0.00  0.00    -0.026 C 
ATOM      5  C   UNL     1       1.686  -4.043  -2.901  0.00  0.00    +0.044 C 
ATOM      6  C   UNL     1       1.626  -2.675  -3.539  0.00  0.00    +0.093 C 
ATOM      7  C   UNL     1       2.748  -4.120  -1.802  0.00  0.00    +0.072 C 
ATOM      8  C   UNL     1       2.913  -5.579  -1.376  0.00  0.00    +0.188 C 
ATOM      9  C   UNL     1       1.595  -6.221  -1.063  0.00  0.00    +0.054 C 
ATOM     10  C   UNL     1       0.404  -5.743  -1.504  0.00  0.00    +0.074 C 
ENDROOT
BRANCH   7  11
ATOM     11  C   UNL     1       4.058  -3.594  -2.329  0.00  0.00    +0.009 A 
ATOM     12  C   UNL     1       4.845  -2.739  -1.540  0.00  0.00    -0.011 A 
ATOM     13  C   UNL     1       4.435  -2.355  -0.251  0.00  0.00    +0.009 A 
ATOM     14  C   UNL     1       5.222  -1.526   0.487  0.00  0.00    +0.001 A 
ATOM     15  C   UNL     1       6.431  -1.048  -0.017  0.00  0.00    +0.001 A 
ATOM     16  C   UNL     1       6.860  -1.399  -1.260  0.00  0.00    +0.008 A 
ATOM     17  C   UNL     1       6.074  -2.255  -2.051  0.00  0.00    -0.017 A 
ATOM     18  C   UNL     1       6.486  -2.638  -3.339  0.00  0.00    +0.012 A 
ATOM     19  C   UNL     1       5.702  -3.467  -4.079  0.00  0.00    +0.046 A 
ATOM     20  C   UNL     1       4.491  -3.951  -3.574  0.00  0.00    +0.124 A 
BRANCH  20  21
ATOM     21  O   UNL     1       3.732  -4.783  -4.335  0.00  0.00    -0.495 OA
ATOM     22  C   UNL     1       4.174  -5.023  -5.673  0.00  0.00    +0.277 C 
ENDBRANCH  20  21
ENDBRANCH   7  11
BRANCH   9  23
ATOM     23  N   UNL     1       1.593  -7.351  -0.293  0.00  0.00    -0.358 N 
ATOM     24  H   UNL     1       2.430  -7.715   0.035  0.00  0.00    +0.142 HD
ATOM     25  H   UNL     1       0.755  -7.787  -0.075  0.00  0.00    +0.142 HD
ENDBRANCH   9  23
BRANCH  10  26
ATOM     26  C   UNL     1      -0.814  -6.425  -1.185  0.00  0.00    +0.101 C 
ATOM     27  N   UNL     1      -1.781  -6.966  -0.932  0.00  0.00    -0.191 NA
ENDBRANCH  10  26
BRANCH   8  28
ATOM     28  C   UNL     1       3.564  -6.326  -2.464  0.00  0.00    +0.091 C 
ATOM     29  N   UNL     1       4.067  -6.903  -3.304  0.00  0.00    -0.194 NA
ENDBRANCH   8  28
BRANCH   8  30
ATOM     30  C   UNL     1       3.769  -5.635  -0.180  0.00  0.00    +0.091 C 
ATOM     31  N   UNL     1       4.430  -5.678   0.744  0.00  0.00    -0.194 NA
ENDBRANCH   8  30
BRANCH   1  32
ATOM     32  C   UNL     1       0.510  -0.530  -3.615  0.00  0.00    +0.084 C 
BRANCH  32  34
ATOM     33  C   UNL     1      -0.504   1.750  -3.494  0.00  0.00    +0.005 C 
ATOM     34  C   UNL     1      -0.505   0.348  -2.881  0.00  0.00    +0.012 C 
ENDBRANCH  32  34
ENDBRANCH   1  32
TORSDOF 8
