REMARK  Name = ZINC21538063
REMARK  4 active torsions:
REMARK  status: ('A' for Active; 'I' for Inactive)
REMARK    1  A    between atoms: C_4  and  C_7
REMARK    2  A    between atoms: C_7  and  C_8
REMARK    3  A    between atoms: C_14  and  C_16
REMARK    4  A    between atoms: C_19  and  N_22
REMARK                            x       y       z     vdW  Elec       q    Type
REMARK                         _______ _______ _______ _____ _____    ______ ____
ROOT
ATOM      1  C   UNL     1       3.602  -1.705  -5.438  0.00  0.00    +0.037 A 
ATOM      2  C   UNL     1       2.279  -1.255  -5.442  0.00  0.00    +0.015 A 
ATOM      3  C   UNL     1       1.780  -0.582  -4.350  0.00  0.00    +0.024 A 
ATOM      4  C   UNL     1       2.591  -0.348  -3.244  0.00  0.00    +0.035 A 
ATOM      5  C   UNL     1       3.910  -0.789  -3.240  0.00  0.00    +0.024 A 
ATOM      6  C   UNL     1       4.414  -1.468  -4.326  0.00  0.00    +0.015 A 
ENDROOT
BRANCH   4   7
ATOM      7  N   UNL     1       2.082   0.335  -2.140  0.00  0.00    -0.269 N 
ATOM      8  C   UNL     1       2.578   0.093  -0.911  0.00  0.00    +0.311 C 
ATOM      9  O   UNL     1       3.400  -0.788  -0.750  0.00  0.00    -0.252 OA
ATOM     10  N   UNL     1       2.163   0.828   0.140  0.00  0.00    -0.255 N 
ATOM     11  C   UNL     1       2.689   0.582   1.492  0.00  0.00    +0.115 C 
ATOM     12  C   UNL     1       3.825   1.530   1.796  0.00  0.00    +0.020 C 
ATOM     13  C   UNL     1       3.404   2.993   1.839  0.00  0.00    +0.006 C 
ATOM     14  C   UNL     1       3.041   3.503   0.448  0.00  0.00    +0.037 C 
ATOM     15  C   UNL     1       1.588   3.169   0.158  0.00  0.00    -0.026 A 
ATOM     16  C   UNL     1       1.218   1.848  -0.021  0.00  0.00    +0.041 A 
ATOM     17  C   UNL     1      -0.100   1.537  -0.332  0.00  0.00    +0.024 A 
ATOM     18  C   UNL     1      -1.031   2.550  -0.456  0.00  0.00    +0.002 A 
ATOM     19  C   UNL     1      -0.660   3.866  -0.252  0.00  0.00    +0.000 A 
ATOM     20  C   UNL     1       0.654   4.177   0.056  0.00  0.00    +0.005 A 
ATOM     21  H   UNL     1       1.276   1.072  -2.273  0.00  0.00    +0.156 HD
ENDBRANCH   4   7
BRANCH   1  28
ATOM     22  C   UNL     1       5.306  -6.329  -6.065  0.00  0.00    -0.004 C 
ATOM     23  C   UNL     1       4.827  -5.795  -7.417  0.00  0.00    +0.023 C 
ATOM     24  C   UNL     1       5.302  -4.348  -7.586  0.00  0.00    +0.108 C 
ATOM     25  N   UNL     1       4.846  -3.562  -6.431  0.00  0.00    -0.298 N 
ATOM     26  C   UNL     1       5.179  -4.035  -5.080  0.00  0.00    +0.108 C 
ATOM     27  C   UNL     1       4.701  -5.488  -4.939  0.00  0.00    +0.023 C 
ATOM     28  C   UNL     1       4.141  -2.428  -6.607  0.00  0.00    +0.247 C 
ATOM     29  O   UNL     1       3.948  -2.000  -7.729  0.00  0.00    -0.270 OA
BRANCH  22  30
ATOM     30  C   UNL     1       4.863  -7.785  -5.907  0.00  0.00    +0.038 C 
BRANCH  30  34
ATOM     31  C   UNL     1       6.491  -9.386  -2.297  0.00  0.00    +0.000 A 
ATOM     32  C   UNL     1       5.255  -8.766  -2.283  0.00  0.00    +0.000 A 
ATOM     33  C   UNL     1       4.729  -8.248  -3.451  0.00  0.00    +0.003 A 
ATOM     34  C   UNL     1       5.437  -8.350  -4.634  0.00  0.00    -0.047 A 
ATOM     35  C   UNL     1       6.671  -8.974  -4.649  0.00  0.00    +0.003 A 
ATOM     36  C   UNL     1       7.199  -9.488  -3.480  0.00  0.00    +0.000 A 
ENDBRANCH  30  34
ENDBRANCH  22  30
ENDBRANCH   1  28
TORSDOF 4
