REMARK  Name = ZINC07053664
REMARK  10 active torsions:
REMARK  status: ('A' for Active; 'I' for Inactive)
REMARK    1  A    between atoms: C_1  and  C_2
REMARK    2  A    between atoms: C_3  and  C_25
REMARK    3  A    between atoms: C_4  and  C_24
REMARK    4  A    between atoms: C_5  and  S_10
REMARK    5  A    between atoms: C_6  and  C_9
REMARK    6  A    between atoms: C_7  and  C_8
REMARK    7  A    between atoms: S_10  and  N_13
REMARK    8  A    between atoms: N_13  and  C_14
REMARK    9  A    between atoms: C_18  and  S_20
REMARK   10  A    between atoms: S_20  and  N_23
REMARK                            x       y       z     vdW  Elec       q    Type
REMARK                         _______ _______ _______ _____ _____    ______ ____
ROOT
ATOM      1  S   UNL     1      -2.727   3.967   4.293  0.00  0.00    +0.073 S 
ATOM      2  O   UNL     1      -1.666   4.849   4.637  0.00  0.00    -0.150 OA
ATOM      3  O   UNL     1      -3.832   4.378   3.499  0.00  0.00    -0.150 OA
ENDROOT
BRANCH   1   8
ATOM      4  C   UNL     1      -0.215  -0.726   1.452  0.00  0.00    +0.044 C 
ATOM      5  C   UNL     1      -0.843   0.446   2.162  0.00  0.00    -0.044 A 
ATOM      6  C   UNL     1      -2.211   0.634   2.110  0.00  0.00    -0.043 A 
ATOM      7  C   UNL     1      -2.787   1.706   2.765  0.00  0.00    -0.020 A 
ATOM      8  C   UNL     1      -1.994   2.597   3.464  0.00  0.00    +0.115 A 
ATOM      9  C   UNL     1      -0.624   2.412   3.511  0.00  0.00    -0.020 A 
ATOM     10  C   UNL     1      -0.049   1.337   2.860  0.00  0.00    -0.043 A 
ATOM     11  C   UNL     1       1.444   1.136   2.911  0.00  0.00    +0.044 C 
ATOM     12  C   UNL     1       0.241   3.383   4.271  0.00  0.00    +0.046 C 
ATOM     13  C   UNL     1      -4.280   1.907   2.713  0.00  0.00    +0.046 C 
ATOM     14  C   UNL     1      -3.076  -0.334   1.344  0.00  0.00    +0.044 C 
ENDBRANCH   1   8
BRANCH   1  15
ATOM     15  N   UNL     1      -3.352   3.401   5.718  0.00  0.00    -0.216 N 
ATOM     16  H   UNL     1      -4.310   3.420   5.869  0.00  0.00    +0.174 HD
BRANCH  15  17
ATOM     17  C   UNL     1      -2.500   2.895   6.702  0.00  0.00    +0.050 A 
ATOM     18  C   UNL     1      -1.372   3.612   7.082  0.00  0.00    +0.024 A 
ATOM     19  C   UNL     1      -0.532   3.110   8.056  0.00  0.00    +0.004 A 
ATOM     20  C   UNL     1      -0.812   1.894   8.653  0.00  0.00    +0.028 A 
ATOM     21  C   UNL     1      -1.933   1.178   8.277  0.00  0.00    +0.107 A 
ATOM     22  C   UNL     1      -2.780   1.677   7.307  0.00  0.00    +0.053 A 
BRANCH  21  23
ATOM     23  S   UNL     1      -2.285  -0.370   9.041  0.00  0.00    +0.056 S 
ATOM     24  O   UNL     1      -3.094  -1.099   8.128  0.00  0.00    -0.153 OA
ATOM     25  O   UNL     1      -1.050  -0.871   9.532  0.00  0.00    -0.153 OA
BRANCH  23  26
ATOM     26  N   UNL     1      -3.230  -0.059  10.366  0.00  0.00    -0.204 NA
ATOM     27  H   UNL     1      -3.479   0.853  10.580  0.00  0.00    +0.144 HD
ATOM     28  H   UNL     1      -3.534  -0.790  10.927  0.00  0.00    +0.144 HD
ENDBRANCH  23  26
ENDBRANCH  21  23
ENDBRANCH  15  17
ENDBRANCH   1  15
TORSDOF 5
