REMARK  Name = ZINC09187131
REMARK  9 active torsions:
REMARK  status: ('A' for Active; 'I' for Inactive)
REMARK    1  A    between atoms: C_1  and  C_2
REMARK    2  A    between atoms: C_2  and  C_3
REMARK    3  A    between atoms: C_3  and  O_4
REMARK    4  A    between atoms: O_4  and  C_5
REMARK    5  A    between atoms: C_6  and  O_26
REMARK    6  A    between atoms: C_8  and  C_12
REMARK    7  A    between atoms: C_13  and  C_14
REMARK    8  A    between atoms: C_13  and  C_16
REMARK    9  A    between atoms: O_26  and  C_27
REMARK                            x       y       z     vdW  Elec       q    Type
REMARK                         _______ _______ _______ _____ _____    ______ ____
ROOT
ATOM      1  C   UNL     1      -0.013   1.076   0.008  0.00  0.00    +0.030 C 
ATOM      2  C   UNL     1       1.143   1.518   0.584  0.00  0.00    +0.094 C 
ENDROOT
BRANCH   2   3
ATOM      3  C   UNL     1       2.339   0.655   0.596  0.00  0.00    +0.150 A 
ATOM      4  N   UNL     1       3.549   0.992   1.143  0.00  0.00    -0.337 N 
ATOM      5  H   UNL     1       3.776   1.853   1.597  0.00  0.00    +0.167 HD
ATOM      6  C   UNL     1       4.397  -0.081   0.948  0.00  0.00    +0.066 A 
ATOM      7  C   UNL     1       5.723  -0.332   1.274  0.00  0.00    +0.028 A 
ATOM      8  C   UNL     1       6.295  -1.540   0.930  0.00  0.00    +0.002 A 
ATOM      9  C   UNL     1       5.554  -2.503   0.261  0.00  0.00    +0.002 A 
ATOM     10  C   UNL     1       4.249  -2.275  -0.069  0.00  0.00    +0.030 A 
ATOM     11  C   UNL     1       3.647  -1.058   0.270  0.00  0.00    +0.089 A 
ATOM     12  N   UNL     1       2.402  -0.554   0.088  0.00  0.00    -0.227 NA
ENDBRANCH   2   3
BRANCH   1  16
ATOM     13  C   UNL     1      -3.290   3.726  -0.468  0.00  0.00    +0.175 A 
ATOM     14  C   UNL     1      -3.521   2.383  -0.167  0.00  0.00    +0.163 A 
ATOM     15  C   UNL     1      -2.458   1.516  -0.017  0.00  0.00    +0.057 A 
ATOM     16  C   UNL     1      -1.147   1.990  -0.156  0.00  0.00    -0.019 A 
ATOM     17  C   UNL     1      -0.923   3.340  -0.459  0.00  0.00    +0.026 A 
ATOM     18  C   UNL     1      -1.991   4.196  -0.612  0.00  0.00    +0.059 A 
ATOM     19  I   UNL     1      -1.656   6.215  -1.064  0.00  0.00    -0.040 I 
BRANCH  14  20
ATOM     20  O   UNL     1      -4.795   1.928  -0.027  0.00  0.00    -0.491 OA
ATOM     21  C   UNL     1      -4.958   0.542   0.281  0.00  0.00    +0.277 C 
ENDBRANCH  14  20
BRANCH  13  22
ATOM     22  O   UNL     1      -4.339   4.575  -0.621  0.00  0.00    -0.487 OA
BRANCH  22  23
ATOM     23  C   UNL     1      -4.879   4.710  -1.937  0.00  0.00    +0.229 C 
BRANCH  23  25
ATOM     24  C   UNL     1      -6.623   5.845  -3.320  0.00  0.00    +0.007 C 
ATOM     25  C   UNL     1      -6.044   5.701  -1.911  0.00  0.00    +0.038 C 
ENDBRANCH  23  25
ENDBRANCH  22  23
ENDBRANCH  13  22
ENDBRANCH   1  16
BRANCH   2  26
ATOM     26  C   UNL     1       1.195   2.821   1.177  0.00  0.00    +0.103 C 
ATOM     27  N   UNL     1       1.236   3.854   1.647  0.00  0.00    -0.191 NA
ENDBRANCH   2  26
TORSDOF 7
