REMARK  Name = ZINC08728196
REMARK  11 active torsions:
REMARK  status: ('A' for Active; 'I' for Inactive)
REMARK    1  A    between atoms: C_1  and  C_2
REMARK    2  A    between atoms: C_2  and  C_3
REMARK    3  A    between atoms: C_2  and  C_4
REMARK    4  A    between atoms: C_4  and  C_6
REMARK    5  A    between atoms: C_4  and  N_17
REMARK    6  A    between atoms: C_18  and  C_20
REMARK    7  A    between atoms: C_20  and  S_21
REMARK    8  A    between atoms: S_21  and  C_22
REMARK    9  A    between atoms: C_25  and  C_28
REMARK   10  A    between atoms: N_26  and  N_27
REMARK   11  A    between atoms: C_28  and  C_29
REMARK                            x       y       z     vdW  Elec       q    Type
REMARK                         _______ _______ _______ _____ _____    ______ ____
ROOT
ATOM      1  N   UNL     1      -1.328   3.583   2.535  0.00  0.00    -0.308 N 
ATOM      2  C   UNL     1      -0.548   3.716   3.627  0.00  0.00    +0.224 C 
ATOM      3  O   UNL     1       0.632   3.444   3.565  0.00  0.00    -0.275 OA
ATOM      4  H   UNL     1      -2.272   3.800   2.584  0.00  0.00    +0.149 HD
ENDROOT
BRANCH   1   5
ATOM      5  C   UNL     1      -0.750   3.109   1.275  0.00  0.00    +0.106 C 
BRANCH   5   6
ATOM      6  C   UNL     1      -1.582   3.607   0.122  0.00  0.00    -0.023 A 
ATOM      7  C   UNL     1      -2.961   3.615   0.221  0.00  0.00    +0.009 A 
ATOM      8  C   UNL     1      -3.732   4.076  -0.831  0.00  0.00    +0.050 A 
ATOM      9  C   UNL     1      -3.117   4.518  -1.990  0.00  0.00    +0.162 A 
ATOM     10  C   UNL     1      -1.733   4.504  -2.092  0.00  0.00    +0.162 A 
ATOM     11  C   UNL     1      -0.965   4.048  -1.035  0.00  0.00    +0.055 A 
ATOM     12  O   UNL     1      -1.137   4.943  -3.238  0.00  0.00    -0.488 OA
ATOM     13  C   UNL     1      -1.335   4.130  -4.396  0.00  0.00    +0.232 C 
ATOM     14  C   UNL     1      -2.649   4.475  -5.080  0.00  0.00    +0.082 C 
ATOM     15  C   UNL     1      -3.855   4.154  -4.211  0.00  0.00    +0.232 C 
ATOM     16  O   UNL     1      -3.866   4.970  -3.038  0.00  0.00    -0.488 OA
ENDBRANCH   5   6
BRANCH   5  18
ATOM     17  C   UNL     1      -0.013   1.086   0.008  0.00  0.00    +0.009 C 
ATOM     18  C   UNL     1      -0.729   1.579   1.267  0.00  0.00    +0.008 C 
ATOM     19  C   UNL     1      -2.164   1.050   1.278  0.00  0.00    +0.009 C 
ENDBRANCH   5  18
ENDBRANCH   1   5
BRANCH   2  20
ATOM     20  C   UNL     1      -1.143   4.203   4.923  0.00  0.00    +0.173 C 
BRANCH  20  21
ATOM     21  S   UNL     1       0.147   4.275   6.190  0.00  0.00    -0.075 S 
BRANCH  21  22
ATOM     22  C   UNL     1      -0.798   4.857   7.557  0.00  0.00    +0.209 A 
ATOM     23  N   UNL     1      -2.082   5.135   7.557  0.00  0.00    -0.121 NA
ATOM     24  N   UNL     1      -2.442   5.535   8.724  0.00  0.00    -0.132 NA
ATOM     25  C   UNL     1      -1.419   5.538   9.531  0.00  0.00    +0.155 A 
ATOM     26  N   UNL     1      -0.337   5.101   8.819  0.00  0.00    -0.228 N 
BRANCH  26  27
ATOM     27  N   UNL     1       0.942   4.943   9.274  0.00  0.00    -0.295 N 
ATOM     28  H   UNL     1       1.476   5.790   9.152  0.00  0.00    +0.163 HD
ATOM     29  H   UNL     1       0.948   4.648  10.239  0.00  0.00    +0.163 HD
ENDBRANCH  26  27
BRANCH  25  30
ATOM     30  C   UNL     1      -1.428   5.942  10.983  0.00  0.00    +0.116 C 
BRANCH  30  31
ATOM     31  C   UNL     1      -1.720   4.736  11.838  0.00  0.00    -0.005 A 
ATOM     32  C   UNL     1      -0.687   4.072  12.473  0.00  0.00    +0.007 A 
ATOM     33  C   UNL     1      -0.955   2.966  13.257  0.00  0.00    +0.000 A 
ATOM     34  C   UNL     1      -2.256   2.523  13.409  0.00  0.00    +0.003 A 
ATOM     35  C   UNL     1      -3.290   3.186  12.777  0.00  0.00    +0.038 A 
ATOM     36  C   UNL     1      -3.023   4.297  11.994  0.00  0.00    +0.127 A 
ATOM     37  F   UNL     1      -4.035   4.948  11.379  0.00  0.00    -0.205 F 
ENDBRANCH  30  31
ENDBRANCH  25  30
ENDBRANCH  21  22
ENDBRANCH  20  21
ENDBRANCH   2  20
TORSDOF 9
