REMARK  Name = ZINC31167269
REMARK  7 active torsions:
REMARK  status: ('A' for Active; 'I' for Inactive)
REMARK    1  A    between atoms: C_4  and  C_7
REMARK    2  A    between atoms: C_15  and  O_28
REMARK    3  A    between atoms: C_16  and  C_19
REMARK    4  A    between atoms: C_17  and  O_18
REMARK    5  A    between atoms: C_19  and  C_20
REMARK    6  A    between atoms: C_24  and  O_27
REMARK    7  A    between atoms: C_25  and  O_26
REMARK                            x       y       z     vdW  Elec       q    Type
REMARK                         _______ _______ _______ _____ _____    ______ ____
ROOT
ATOM      1  C   UNL     1       3.510   3.569  -0.460  0.00  0.00    +0.211 C 
ATOM      2  C   UNL     1       3.709   2.223   0.252  0.00  0.00    +0.129 C 
ATOM      3  C   UNL     1       2.478   1.380  -0.028  0.00  0.00    +0.174 C 
ATOM      4  O   UNL     1       2.558   0.192  -0.265  0.00  0.00    -0.292 OA
ATOM      5  C   UNL     1       1.186   2.075   0.002  0.00  0.00    +0.101 A 
ATOM      6  C   UNL     1       1.168   3.482   0.019  0.00  0.00    +0.139 A 
ATOM      7  C   UNL     1      -0.048   4.143   0.032  0.00  0.00    +0.092 A 
ATOM      8  C   UNL     1      -1.235   3.422   0.034  0.00  0.00    +0.127 A 
ATOM      9  C   UNL     1      -1.221   2.033   0.019  0.00  0.00    +0.041 A 
ATOM     10  C   UNL     1      -0.016   1.352   0.009  0.00  0.00    +0.138 A 
ATOM     11  O   UNL     1       2.322   4.190   0.028  0.00  0.00    -0.483 OA
ENDROOT
BRANCH   1  15
ATOM     12  C   UNL     1       6.863   6.101   0.312  0.00  0.00    +0.000 A 
ATOM     13  C   UNL     1       6.775   5.417  -0.886  0.00  0.00    +0.000 A 
ATOM     14  C   UNL     1       5.690   4.598  -1.136  0.00  0.00    +0.007 A 
ATOM     15  C   UNL     1       4.693   4.462  -0.188  0.00  0.00    -0.007 A 
ATOM     16  C   UNL     1       4.779   5.149   1.009  0.00  0.00    +0.007 A 
ATOM     17  C   UNL     1       5.867   5.964   1.261  0.00  0.00    +0.000 A 
ENDBRANCH   1  15
BRANCH  10  18
ATOM     18  O   UNL     1       0.002  -0.004   0.002  0.00  0.00    -0.506 OA
ATOM     19  H   UNL     1      -0.943  -0.567   0.008  0.00  0.00    +0.292 HD
ENDBRANCH  10  18
BRANCH   8  20
ATOM     20  O   UNL     1      -2.421   4.081   0.045  0.00  0.00    -0.506 OA
ATOM     21  H   UNL     1      -3.365   3.515   0.047  0.00  0.00    +0.292 HD
ENDBRANCH   8  20
BRANCH   9  22
ATOM     22  C   UNL     1      -2.519   1.266   0.018  0.00  0.00    +0.081 C 
BRANCH  22  23
ATOM     23  C   UNL     1      -2.946   1.001   1.439  0.00  0.00    +0.002 A 
ATOM     24  C   UNL     1      -2.620  -0.198   2.047  0.00  0.00    +0.008 A 
ATOM     25  C   UNL     1      -3.010  -0.444   3.349  0.00  0.00    +0.004 A 
ATOM     26  C   UNL     1      -3.728   0.507   4.051  0.00  0.00    +0.049 A 
ATOM     27  C   UNL     1      -4.057   1.710   3.449  0.00  0.00    +0.159 A 
ATOM     28  C   UNL     1      -3.660   1.960   2.138  0.00  0.00    +0.162 A 
BRANCH  28  29
ATOM     29  O   UNL     1      -3.976   3.142   1.544  0.00  0.00    -0.503 OA
ATOM     30  H   UNL     1      -4.543   3.903   2.101  0.00  0.00    +0.292 HD
ENDBRANCH  28  29
BRANCH  27  31
ATOM     31  O   UNL     1      -4.762   2.647   4.138  0.00  0.00    -0.503 OA
ATOM     32  H   UNL     1      -5.023   3.602   3.658  0.00  0.00    +0.292 HD
ENDBRANCH  27  31
ENDBRANCH  22  23
ENDBRANCH   9  22
TORSDOF 7
