REMARK  Name = ZINC39707788
REMARK  8 active torsions:
REMARK  status: ('A' for Active; 'I' for Inactive)
REMARK    1  A    between atoms: C_7  and  C_10
REMARK    2  A    between atoms: C_10  and  C_11
REMARK    3  A    between atoms: C_11  and  N_12
REMARK    4  A    between atoms: C_13  and  C_15
REMARK    5  A    between atoms: C_15  and  C_16
REMARK    6  A    between atoms: C_20  and  N_23
REMARK    7  A    between atoms: C_24  and  C_26
REMARK    8  A    between atoms: N_31  and  C_33
REMARK                            x       y       z     vdW  Elec       q    Type
REMARK                         _______ _______ _______ _____ _____    ______ ____
ROOT
ATOM      1  C   UNL     1      -5.752   7.668  -3.932  0.00  0.00    +0.075 C 
ATOM      2  C   UNL     1      -6.450   9.059  -3.914  0.00  0.00    +0.091 C 
ATOM      3  S   UNL     1      -5.826   9.699  -5.533  0.00  0.00    -0.121 S 
ATOM      4  C   UNL     1      -4.211   8.811  -5.527  0.00  0.00    +0.202 C 
ATOM      5  N   UNL     1      -4.403   7.773  -4.492  0.00  0.00    -0.286 NA
ATOM      6  H   UNL     1      -3.713   7.858  -3.761  0.00  0.00    +0.125 HD
ENDROOT
BRANCH   4   7
ATOM      7  N   UNL     1      -3.123   9.720  -5.156  0.00  0.00    -0.291 N 
ATOM      8  C   UNL     1      -2.651  10.608  -6.053  0.00  0.00    +0.220 C 
ATOM      9  O   UNL     1      -3.128  10.656  -7.167  0.00  0.00    -0.275 OA
ATOM     10  H   UNL     1      -2.742   9.681  -4.264  0.00  0.00    +0.151 HD
BRANCH   8  11
ATOM     11  C   UNL     1      -1.532  11.543  -5.671  0.00  0.00    +0.101 C 
ATOM     12  C   UNL     1      -1.978  12.511  -4.551  0.00  0.00    +0.110 C 
ATOM     13  C   UNL     1      -1.300  13.818  -4.900  0.00  0.00    +0.221 C 
ATOM     14  O   UNL     1      -1.159  14.752  -4.139  0.00  0.00    -0.275 OA
ATOM     15  N   UNL     1      -0.875  13.793  -6.175  0.00  0.00    -0.271 N 
ATOM     16  C   UNL     1      -1.210  12.519  -6.824  0.00  0.00    +0.127 C 
BRANCH  15  17
ATOM     17  C   UNL     1      -0.201  14.846  -6.804  0.00  0.00    +0.036 A 
ATOM     18  C   UNL     1      -0.028  16.055  -6.143  0.00  0.00    +0.026 A 
ATOM     19  C   UNL     1       0.638  17.093  -6.765  0.00  0.00    +0.040 A 
ATOM     20  C   UNL     1       1.133  16.928  -8.048  0.00  0.00    +0.124 A 
ATOM     21  C   UNL     1       0.962  15.724  -8.709  0.00  0.00    +0.040 A 
ATOM     22  C   UNL     1       0.302  14.682  -8.088  0.00  0.00    +0.026 A 
ATOM     23  F   UNL     1       1.783  17.945  -8.655  0.00  0.00    -0.205 F 
ENDBRANCH  15  17
ENDBRANCH   8  11
ENDBRANCH   4   7
BRANCH   1  24
ATOM     24  C   UNL     1      -5.663   7.130  -2.502  0.00  0.00    +0.115 C 
BRANCH  24  26
ATOM     25  N   UNL     1      -4.966   5.042  -1.375  0.00  0.00    -0.315 N 
ATOM     26  C   UNL     1      -5.130   5.721  -2.528  0.00  0.00    +0.215 C 
ATOM     27  O   UNL     1      -4.849   5.198  -3.585  0.00  0.00    -0.276 OA
ATOM     28  H   UNL     1      -5.191   5.460  -0.530  0.00  0.00    +0.149 HD
BRANCH  25  29
ATOM     29  C   UNL     1      -4.448   3.671  -1.400  0.00  0.00    +0.109 C 
BRANCH  29  30
ATOM     30  C   UNL     1      -4.360   3.134   0.029  0.00  0.00    +0.056 C 
BRANCH  30  37
ATOM     31  C   UNL     1      -0.028   1.343  -0.070  0.00  0.00    +0.001 A 
ATOM     32  C   UNL     1      -0.017  -0.044  -0.086  0.00  0.00    +0.002 A 
ATOM     33  C   UNL     1      -1.196  -0.757  -0.073  0.00  0.00    +0.026 A 
ATOM     34  C   UNL     1      -2.412  -0.081  -0.043  0.00  0.00    +0.047 A 
ATOM     35  N   UNL     1      -3.725  -0.493  -0.024  0.00  0.00    -0.360 N 
ATOM     36  C   UNL     1      -4.554   0.596   0.004  0.00  0.00    +0.087 A 
ATOM     37  C   UNL     1      -3.827   1.724   0.004  0.00  0.00    -0.021 A 
ATOM     38  C   UNL     1      -2.417   1.326  -0.026  0.00  0.00    +0.003 A 
ATOM     39  C   UNL     1      -1.211   2.027  -0.035  0.00  0.00    +0.010 A 
ATOM     40  H   UNL     1      -4.020  -1.417  -0.030  0.00  0.00    +0.165 HD
ENDBRANCH  30  37
ENDBRANCH  29  30
ENDBRANCH  25  29
ENDBRANCH  24  26
ENDBRANCH   1  24
TORSDOF 8
