REMARK  Name = ZINC34837605
REMARK  4 active torsions:
REMARK  status: ('A' for Active; 'I' for Inactive)
REMARK    1  A    between atoms: C_7  and  C_24
REMARK    2  A    between atoms: C_10  and  N_11
REMARK    3  A    between atoms: N_14  and  C_17
REMARK    4  A    between atoms: C_29  and  N_32
REMARK                            x       y       z     vdW  Elec       q    Type
REMARK                         _______ _______ _______ _____ _____    ______ ____
ROOT
ATOM      1  C   UNL     1       0.104   1.270   0.892  0.00  0.00    +0.001 A 
ATOM      2  C   UNL     1       1.276   2.011   0.771  0.00  0.00    +0.001 A 
ATOM      3  C   UNL     1       2.441   1.425   0.367  0.00  0.00    +0.012 A 
ATOM      4  C   UNL     1       2.454   0.059   0.071  0.00  0.00    +0.026 A 
ATOM      5  C   UNL     1       1.259  -0.695   0.195  0.00  0.00    +0.018 A 
ATOM      6  C   UNL     1       0.084  -0.066   0.610  0.00  0.00    +0.011 A 
ATOM      7  C   UNL     1       1.326  -2.120  -0.126  0.00  0.00    +0.156 A 
ATOM      8  N   UNL     1       2.491  -2.622  -0.512  0.00  0.00    -0.142 NA
ATOM      9  N   UNL     1       3.556  -1.920  -0.616  0.00  0.00    -0.133 NA
ATOM     10  C   UNL     1       3.618  -0.623  -0.353  0.00  0.00    +0.152 A 
ENDROOT
BRANCH   7  11
ATOM     11  C   UNL     1       0.129  -2.976  -0.024  0.00  0.00    +0.267 C 
ATOM     12  O   UNL     1      -0.958  -2.477   0.197  0.00  0.00    -0.268 OA
ATOM     13  N   UNL     1       0.240  -4.310  -0.174  0.00  0.00    -0.296 N 
ATOM     14  C   UNL     1       1.562  -4.950  -0.227  0.00  0.00    +0.106 C 
ATOM     15  C   UNL     1       1.612  -6.066   0.822  0.00  0.00    +0.004 C 
ATOM     16  C   UNL     1       0.440  -7.024   0.598  0.00  0.00    -0.066 C 
ATOM     17  C   UNL     1      -0.879  -6.266   0.761  0.00  0.00    +0.004 C 
ATOM     18  C   UNL     1      -0.958  -5.154  -0.282  0.00  0.00    +0.106 C 
BRANCH  16  19
ATOM     19  N   UNL     1       0.504  -8.114   1.581  0.00  0.00    +0.382 N 
ATOM     20  C   UNL     1       1.773  -8.835   1.428  0.00  0.00    -0.078 C 
ATOM     21  C   UNL     1       1.881  -9.919   2.502  0.00  0.00    -0.019 C 
ATOM     22  C   UNL     1       0.713 -10.899   2.350  0.00  0.00    -0.004 C 
ATOM     23  C   UNL     1      -0.605 -10.124   2.437  0.00  0.00    -0.019 C 
ATOM     24  C   UNL     1      -0.620  -9.032   1.365  0.00  0.00    -0.078 C 
ATOM     25  H   UNL     1       0.449  -7.729   2.512  0.00  0.00    -0.081 HD
ENDBRANCH  16  19
ENDBRANCH   7  11
BRANCH  10  26
ATOM     26  N   UNL     1       4.809   0.057  -0.491  0.00  0.00    -0.310 N 
ATOM     27  C   UNL     1       5.775   0.107   0.615  0.00  0.00    +0.125 C 
ATOM     28  C   UNL     1       7.127  -0.412   0.108  0.00  0.00    +0.124 C 
ATOM     29  N   UNL     1       7.453   0.276  -1.149  0.00  0.00    -0.325 N 
ATOM     30  C   UNL     1       6.487   0.227  -2.255  0.00  0.00    +0.124 C 
ATOM     31  C   UNL     1       5.138   0.741  -1.750  0.00  0.00    +0.125 C 
BRANCH  29  32
ATOM     32  C   UNL     1       8.661   0.966  -1.289  0.00  0.00    +0.065 A 
ATOM     33  C   UNL     1       9.784   0.311  -1.776  0.00  0.00    +0.026 A 
ATOM     34  C   UNL     1      10.976   0.995  -1.915  0.00  0.00    +0.002 A 
ATOM     35  C   UNL     1      11.053   2.332  -1.568  0.00  0.00    +0.003 A 
ATOM     36  C   UNL     1       9.938   2.989  -1.082  0.00  0.00    +0.040 A 
ATOM     37  C   UNL     1       8.739   2.312  -0.947  0.00  0.00    +0.144 A 
ATOM     38  F   UNL     1       7.648   2.955  -0.477  0.00  0.00    -0.204 F 
ENDBRANCH  29  32
ENDBRANCH  10  26
TORSDOF 4
