REMARK  Name = ZINC43096146
REMARK  5 active torsions:
REMARK  status: ('A' for Active; 'I' for Inactive)
REMARK    1  A    between atoms: C_5  and  C_7
REMARK    2  A    between atoms: C_7  and  C_9
REMARK    3  A    between atoms: C_7  and  S_11
REMARK    4  A    between atoms: C_9  and  N_10
REMARK    5  A    between atoms: S_11  and  C_12
REMARK                            x       y       z     vdW  Elec       q    Type
REMARK                         _______ _______ _______ _____ _____    ______ ____
ROOT
ATOM      1  C   UNL     1       1.162  -2.198  -0.036  0.00  0.00    +0.068 C 
ENDROOT
BRANCH   1   6
ATOM      2  C   UNL     1      -0.245   1.268  -0.550  0.00  0.00    +0.000 A 
ATOM      3  C   UNL     1       0.908   2.028  -0.613  0.00  0.00    +0.001 A 
ATOM      4  C   UNL     1       2.143   1.421  -0.489  0.00  0.00    +0.015 A 
ATOM      5  C   UNL     1       2.226   0.053  -0.302  0.00  0.00    +0.022 A 
ATOM      6  C   UNL     1       1.072  -0.707  -0.239  0.00  0.00    -0.022 A 
ATOM      7  C   UNL     1      -0.163  -0.099  -0.363  0.00  0.00    +0.006 A 
ATOM      8 BR   UNL     1       3.916  -0.778  -0.134  0.00  0.00    -0.050 Br
ENDBRANCH   1   6
BRANCH   1   9
ATOM      9  C   UNL     1       1.365  -2.885  -1.388  0.00  0.00    -0.067 C 
BRANCH   9  10
ATOM     10  N   UNL     1       1.581  -4.323  -1.178  0.00  0.00    +0.379 N 
ATOM     11  H   UNL     1       0.745  -4.736  -0.793  0.00  0.00    -0.090 HD
ATOM     12  H   UNL     1       1.799  -4.763  -2.060  0.00  0.00    -0.090 HD
ATOM     13  H   UNL     1       2.349  -4.458  -0.537  0.00  0.00    -0.090 HD
ENDBRANCH   9  10
ENDBRANCH   1   9
BRANCH   1  14
ATOM     14  S   UNL     1      -0.373  -2.798   0.722  0.00  0.00    -0.082 S 
BRANCH  14  15
ATOM     15  C   UNL     1      -0.343  -2.113   2.345  0.00  0.00    +0.169 A 
ATOM     16  N   UNL     1       0.721  -1.444   2.747  0.00  0.00    -0.232 NA
ATOM     17  C   UNL     1       0.784  -0.910   3.964  0.00  0.00    +0.119 A 
ATOM     18  C   UNL     1      -0.264  -1.048   4.828  0.00  0.00    +0.090 A 
ATOM     19  C   UNL     1      -1.402  -1.759   4.408  0.00  0.00    +0.252 A 
ATOM     20  N   UNL     1      -1.420  -2.278   3.162  0.00  0.00    -0.302 N 
ATOM     21  O   UNL     1      -2.356  -1.902   5.155  0.00  0.00    -0.268 OA
ATOM     22  H   UNL     1      -2.196  -2.769   2.850  0.00  0.00    +0.171 HD
ENDBRANCH  14  15
ENDBRANCH   1  14
TORSDOF 5
