REMARK  Name = ZINC42143770
REMARK  5 active torsions:
REMARK  status: ('A' for Active; 'I' for Inactive)
REMARK    1  A    between atoms: C_1  and  C_2
REMARK    2  A    between atoms: C_4  and  S_9
REMARK    3  A    between atoms: C_6  and  C_8
REMARK    4  A    between atoms: S_9  and  C_10
REMARK    5  A    between atoms: C_15  and  N_19
REMARK                            x       y       z     vdW  Elec       q    Type
REMARK                         _______ _______ _______ _____ _____    ______ ____
ROOT
ATOM      1  C   UNL     1       0.056  -4.706  -2.087  0.00  0.00    +0.142 A 
ATOM      2  N   UNL     1       0.062  -5.167  -0.858  0.00  0.00    -0.232 NA
ATOM      3  C   UNL     1       0.082  -6.490  -0.578  0.00  0.00    +0.080 A 
ATOM      4  C   UNL     1       0.091  -7.112   0.691  0.00  0.00    +0.031 A 
ATOM      5  C   UNL     1       0.113  -8.477   0.804  0.00  0.00    +0.025 A 
ATOM      6  C   UNL     1       0.126  -9.299  -0.321  0.00  0.00    +0.026 A 
ATOM      7  C   UNL     1       0.117  -8.719  -1.583  0.00  0.00    +0.040 A 
ATOM      8  C   UNL     1       0.095  -7.351  -1.698  0.00  0.00    +0.042 A 
ATOM      9  S   UNL     1       0.071  -6.207  -3.057  0.00  0.00    -0.061 S 
ENDROOT
BRANCH   6  10
ATOM     10  N   UNL     1       0.148 -10.691  -0.182  0.00  0.00    -0.358 N 
ATOM     11  H   UNL     1       0.155 -11.090   0.703  0.00  0.00    +0.142 HD
ATOM     12  H   UNL     1       0.158 -11.257  -0.969  0.00  0.00    +0.142 HD
ENDBRANCH   6  10
BRANCH   1  13
ATOM     13  S   UNL     1       0.030  -3.033  -2.640  0.00  0.00    -0.043 S 
BRANCH  13  17
ATOM     14  C   UNL     1      -0.018   1.503   0.010  0.00  0.00    +0.066 C 
ATOM     15  C   UNL     1       0.002  -0.004   0.002  0.00  0.00    +0.043 A 
ATOM     16  C   UNL     1       0.006  -0.697  -1.193  0.00  0.00    +0.058 A 
ATOM     17  C   UNL     1       0.025  -2.092  -1.151  0.00  0.00    +0.107 A 
ATOM     18  N   UNL     1       0.039  -2.700   0.033  0.00  0.00    -0.226 NA
ATOM     19  C   UNL     1       0.034  -1.999   1.148  0.00  0.00    +0.127 A 
ATOM     20  N   UNL     1       0.022  -0.681   1.142  0.00  0.00    -0.237 NA
ATOM     21  C   UNL     1       0.050  -2.724   2.469  0.00  0.00    +0.088 C 
ENDBRANCH  13  17
ENDBRANCH   1  13
TORSDOF 3
