REMARK  Name = ZINC35616049
REMARK  6 active torsions:
REMARK  status: ('A' for Active; 'I' for Inactive)
REMARK    1  A    between atoms: C_1  and  O_2
REMARK    2  A    between atoms: O_2  and  C_3
REMARK    3  A    between atoms: C_8  and  N_9
REMARK    4  A    between atoms: N_9  and  C_10
REMARK    5  A    between atoms: C_11  and  C_19
REMARK    6  A    between atoms: C_24  and  O_25
REMARK                            x       y       z     vdW  Elec       q    Type
REMARK                         _______ _______ _______ _____ _____    ______ ____
ROOT
ATOM      1  C   UNL     1      -0.080  -4.168  -0.262  0.00  0.00    +0.136 A 
ATOM      2  C   UNL     1      -0.571  -5.019   0.713  0.00  0.00    +0.115 A 
ATOM      3  N   UNL     1      -0.263  -6.277   0.361  0.00  0.00    -0.224 NA
ATOM      4  C   UNL     1       0.395  -6.261  -0.785  0.00  0.00    +0.158 A 
ATOM      5  N   UNL     1       0.519  -4.951  -1.200  0.00  0.00    -0.285 N 
ATOM      6  C   UNL     1       1.168  -4.684  -2.379  0.00  0.00    +0.114 A 
ATOM      7  C   UNL     1       1.669  -5.699  -3.111  0.00  0.00    +0.129 A 
ATOM      8  N   UNL     1       1.547  -6.969  -2.712  0.00  0.00    -0.258 NA
ATOM      9  C   UNL     1       0.943  -7.280  -1.589  0.00  0.00    +0.157 A 
ENDROOT
BRANCH   2  10
ATOM     10  C   UNL     1      -1.307  -4.612   1.933  0.00  0.00    +0.045 A 
ATOM     11  C   UNL     1      -1.517  -3.261   2.206  0.00  0.00    +0.014 A 
ATOM     12  C   UNL     1      -2.204  -2.888   3.343  0.00  0.00    +0.001 A 
ATOM     13  C   UNL     1      -2.684  -3.849   4.215  0.00  0.00    +0.004 A 
ATOM     14  C   UNL     1      -2.480  -5.192   3.954  0.00  0.00    +0.046 A 
ATOM     15  C   UNL     1      -1.798  -5.581   2.814  0.00  0.00    +0.126 A 
BRANCH  15  16
ATOM     16  O   UNL     1      -1.603  -6.901   2.553  0.00  0.00    -0.506 OA
ATOM     17  H   UNL     1      -0.786  -7.259   2.928  0.00  0.00    +0.292 HD
ENDBRANCH  15  16
ENDBRANCH   2  10
BRANCH   1  18
ATOM     18  N   UNL     1      -0.183  -2.779  -0.282  0.00  0.00    -0.296 N 
ATOM     19  H   UNL     1       0.266  -2.250   0.395  0.00  0.00    +0.154 HD
BRANCH  18  25
ATOM     20  C   UNL     1      -1.146  -0.772  -1.229  0.00  0.00    +0.141 A 
ATOM     21  C   UNL     1      -1.886  -0.152  -2.222  0.00  0.00    +0.047 A 
ATOM     22  C   UNL     1      -2.419  -0.899  -3.256  0.00  0.00    +0.004 A 
ATOM     23  C   UNL     1      -2.216  -2.266  -3.304  0.00  0.00    +0.002 A 
ATOM     24  C   UNL     1      -1.478  -2.893  -2.317  0.00  0.00    +0.027 A 
ATOM     25  C   UNL     1      -0.935  -2.148  -1.279  0.00  0.00    +0.075 A 
BRANCH  20  27
ATOM     26  C   UNL     1      -0.878   1.367  -0.225  0.00  0.00    +0.277 C 
ATOM     27  O   UNL     1      -0.622  -0.038  -0.211  0.00  0.00    -0.493 OA
ENDBRANCH  20  27
ENDBRANCH  18  25
ENDBRANCH   1  18
TORSDOF 5
