REMARK  Name = ZINC45451874
REMARK  7 active torsions:
REMARK  status: ('A' for Active; 'I' for Inactive)
REMARK    1  A    between atoms: C_1  and  C_2
REMARK    2  A    between atoms: C_2  and  C_4
REMARK    3  A    between atoms: C_2  and  S_24
REMARK    4  A    between atoms: C_7  and  C_19
REMARK    5  A    between atoms: C_10  and  C_12
REMARK    6  A    between atoms: S_24  and  C_25
REMARK    7  A    between atoms: C_28  and  C_30
REMARK                            x       y       z     vdW  Elec       q    Type
REMARK                         _______ _______ _______ _____ _____    ______ ____
ROOT
ATOM      1  C   UNL     1      -1.412  -0.526   0.013  0.00  0.00    +0.249 C 
ATOM      2  O   UNL     1      -1.927  -0.901  -1.019  0.00  0.00    -0.273 OA
ATOM      3  N   UNL     1      -2.103  -0.575   1.169  0.00  0.00    -0.181 N 
ATOM      4  C   UNL     1      -3.482  -1.065   1.321  0.00  0.00    +0.173 C 
ATOM      5  C   UNL     1      -3.761  -0.897   2.828  0.00  0.00    +0.090 C 
ATOM      6  C   UNL     1      -2.477  -0.316   3.373  0.00  0.00    +0.069 C 
ATOM      7  N   UNL     1      -1.627  -0.176   2.416  0.00  0.00    -0.181 NA
ENDROOT
BRANCH   6   8
ATOM      8  C   UNL     1      -2.232   0.032   4.785  0.00  0.00    -0.002 A 
ATOM      9  C   UNL     1      -3.229  -0.176   5.742  0.00  0.00    +0.011 A 
ATOM     10  C   UNL     1      -2.994   0.151   7.061  0.00  0.00    +0.020 A 
ATOM     11  C   UNL     1      -1.773   0.684   7.438  0.00  0.00    +0.041 A 
ATOM     12  C   UNL     1      -0.780   0.892   6.495  0.00  0.00    +0.020 A 
ATOM     13  C   UNL     1      -1.000   0.564   5.174  0.00  0.00    +0.011 A 
ATOM     14 CL   UNL     1      -1.486   1.093   9.101  0.00  0.00    -0.084 Cl
ENDBRANCH   6   8
BRANCH   4  15
ATOM     15  C   UNL     1      -4.435  -0.229   0.505  0.00  0.00    +0.128 A 
ATOM     16  C   UNL     1      -5.498  -0.690  -0.179  0.00  0.00    +0.046 A 
ATOM     17  C   UNL     1      -6.105   0.429  -0.794  0.00  0.00    +0.041 A 
ATOM     18  C   UNL     1      -5.377   1.506  -0.449  0.00  0.00    +0.195 A 
ATOM     19  O   UNL     1      -4.370   1.102   0.342  0.00  0.00    -0.466 OA
ENDBRANCH   4  15
BRANCH   1  21
ATOM     20  C   UNL     1      -0.019   1.526   0.010  0.00  0.00    +0.029 C 
ATOM     21  C   UNL     1       0.002  -0.004   0.002  0.00  0.00    +0.140 C 
BRANCH  21  22
ATOM     22  S   UNL     1       0.851  -0.589  -1.490  0.00  0.00    -0.053 S 
BRANCH  22  23
ATOM     23  C   UNL     1       2.509  -0.029  -1.285  0.00  0.00    +0.278 A 
ATOM     24  N   UNL     1       2.978   0.649  -0.264  0.00  0.00    -0.101 NA
ATOM     25  N   UNL     1       4.229   0.890  -0.447  0.00  0.00    -0.105 NA
ATOM     26  C   UNL     1       4.609   0.375  -1.594  0.00  0.00    +0.265 A 
ATOM     27  O   UNL     1       3.528  -0.222  -2.145  0.00  0.00    -0.410 OA
BRANCH  26  28
ATOM     28  C   UNL     1       5.961   0.432  -2.169  0.00  0.00    +0.104 A 
ATOM     29  C   UNL     1       6.350  -0.100  -3.366  0.00  0.00    +0.032 A 
ATOM     30  C   UNL     1       7.715   0.183  -3.525  0.00  0.00    +0.020 A 
ATOM     31  C   UNL     1       8.123   0.871  -2.436  0.00  0.00    +0.083 A 
ATOM     32  N   UNL     1       7.057   1.036  -1.602  0.00  0.00    -0.357 N 
ATOM     33  H   UNL     1       7.071   1.499  -0.750  0.00  0.00    +0.165 HD
ENDBRANCH  26  28
ENDBRANCH  22  23
ENDBRANCH  21  22
ENDBRANCH   1  21
TORSDOF 6
