REMARK  Name = ZINC23635386
REMARK  7 active torsions:
REMARK  status: ('A' for Active; 'I' for Inactive)
REMARK    1  A    between atoms: C_1  and  C_2
REMARK    2  A    between atoms: C_3  and  C_7
REMARK    3  A    between atoms: C_10  and  S_18
REMARK    4  A    between atoms: N_11  and  C_12
REMARK    5  A    between atoms: S_18  and  C_19
REMARK    6  A    between atoms: C_19  and  C_21
REMARK    7  A    between atoms: C_19  and  C_22
REMARK                            x       y       z     vdW  Elec       q    Type
REMARK                         _______ _______ _______ _____ _____    ______ ____
ROOT
ATOM      1  C   UNL     1      -0.017   1.373   0.010  0.00  0.00    +0.173 A 
ATOM      2  N   UNL     1       1.233   1.775  -0.000  0.00  0.00    -0.128 NA
ATOM      3  N   UNL     1       2.022   0.760  -0.013  0.00  0.00    -0.122 NA
ATOM      4  C   UNL     1       1.326  -0.353  -0.013  0.00  0.00    +0.197 A 
ATOM      5  N   UNL     1       0.002  -0.004   0.002  0.00  0.00    -0.270 N 
ENDROOT
BRANCH   1   8
ATOM      6  C   UNL     1      -0.051   4.508   0.040  0.00  0.00    +0.087 C 
ATOM      7  C   UNL     1      -1.251   3.596   0.033  0.00  0.00    +0.112 A 
ATOM      8  C   UNL     1      -1.217   2.236   0.020  0.00  0.00    +0.060 A 
ATOM      9  C   UNL     1      -2.620   1.803   0.025  0.00  0.00    +0.053 A 
ATOM     10  C   UNL     1      -3.356   2.927   0.036  0.00  0.00    +0.196 A 
ATOM     11  O   UNL     1      -2.534   3.988   0.037  0.00  0.00    -0.467 OA
ENDBRANCH   1   8
BRANCH   5  12
ATOM     12  C   UNL     1      -1.103  -0.867   0.008  0.00  0.00    +0.051 A 
ATOM     13  C   UNL     1      -1.949  -0.905   1.108  0.00  0.00    +0.026 A 
ATOM     14  C   UNL     1      -3.040  -1.753   1.109  0.00  0.00    +0.002 A 
ATOM     15  C   UNL     1      -3.282  -2.571   0.021  0.00  0.00    +0.000 A 
ATOM     16  C   UNL     1      -2.438  -2.539  -1.073  0.00  0.00    +0.002 A 
ATOM     17  C   UNL     1      -1.349  -1.690  -1.083  0.00  0.00    +0.026 A 
ENDBRANCH   5  12
BRANCH   4  18
ATOM     18  S   UNL     1       1.976  -1.992  -0.028  0.00  0.00    -0.075 S 
BRANCH  18  19
ATOM     19  C   UNL     1       3.748  -1.627  -0.043  0.00  0.00    +0.117 C 
ATOM     20  C   UNL     1       4.137  -0.935   1.265  0.00  0.00    +0.027 C 
BRANCH  19  21
ATOM     21  C   UNL     1       4.524  -2.911  -0.182  0.00  0.00    +0.124 A 
ATOM     22  N   UNL     1       5.674  -2.895  -0.905  0.00  0.00    -0.309 N 
ATOM     23  H   UNL     1       6.015  -1.960  -1.375  0.00  0.00    +0.170 HD
ATOM     24  C   UNL     1       6.410  -4.021  -1.055  0.00  0.00    +0.259 A 
ATOM     25  O   UNL     1       7.444  -4.019  -1.697  0.00  0.00    -0.267 OA
ATOM     26  C   UNL     1       5.908  -5.247  -0.418  0.00  0.00    +0.065 A 
ATOM     27  C   UNL     1       6.587  -6.460  -0.517  0.00  0.00    +0.015 A 
ATOM     28  C   UNL     1       6.071  -7.579   0.099  0.00  0.00    +0.001 A 
ATOM     29  C   UNL     1       4.884  -7.506   0.816  0.00  0.00    +0.002 A 
ATOM     30  C   UNL     1       4.198  -6.318   0.926  0.00  0.00    +0.028 A 
ATOM     31  C   UNL     1       4.700  -5.170   0.310  0.00  0.00    +0.078 A 
ATOM     32  N   UNL     1       4.057  -3.978   0.392  0.00  0.00    -0.233 NA
ENDBRANCH  19  21
ENDBRANCH  18  19
ENDBRANCH   4  18
TORSDOF 5
