REMARK  Name = ZINC09512639
REMARK  11 active torsions:
REMARK  status: ('A' for Active; 'I' for Inactive)
REMARK    1  A    between atoms: C_1  and  C_2
REMARK    2  A    between atoms: C_2  and  C_4
REMARK    3  A    between atoms: C_2  and  N_58
REMARK    4  A    between atoms: C_7  and  S_16
REMARK    5  A    between atoms: N_8  and  C_9
REMARK    6  A    between atoms: S_16  and  C_17
REMARK    7  A    between atoms: C_17  and  C_18
REMARK    8  A    between atoms: N_20  and  C_21
REMARK    9  A    between atoms: C_22  and  C_29
REMARK   10  A    between atoms: C_32  and  N_58
REMARK   11  A    between atoms: C_33  and  N_58
REMARK                            x       y       z     vdW  Elec       q    Type
REMARK                         _______ _______ _______ _____ _____    ______ ____
ROOT
ATOM      1  S   UNL     1      -0.860   1.669   1.497  0.00  0.00    -0.076 S 
ENDROOT
BRANCH   1   5
ATOM      2  C   UNL     1       1.049   0.363   4.642  0.00  0.00    +0.125 A 
ATOM      3  N   UNL     1       1.755  -0.122   3.659  0.00  0.00    -0.135 NA
ATOM      4  N   UNL     1       1.244   0.226   2.533  0.00  0.00    -0.122 NA
ATOM      5  C   UNL     1       0.174   0.961   2.735  0.00  0.00    +0.197 A 
ATOM      6  N   UNL     1       0.018   1.076   4.089  0.00  0.00    -0.275 N 
BRANCH   6   7
ATOM      7  C   UNL     1      -0.989   1.776   4.770  0.00  0.00    +0.050 A 
ATOM      8  C   UNL     1      -0.664   2.877   5.551  0.00  0.00    +0.029 A 
ATOM      9  C   UNL     1      -1.658   3.569   6.215  0.00  0.00    +0.040 A 
ATOM     10  C   UNL     1      -2.976   3.157   6.113  0.00  0.00    +0.124 A 
ATOM     11  C   UNL     1      -3.301   2.055   5.340  0.00  0.00    +0.040 A 
ATOM     12  C   UNL     1      -2.311   1.365   4.669  0.00  0.00    +0.029 A 
ATOM     13  F   UNL     1      -3.946   3.831   6.769  0.00  0.00    -0.205 F 
ENDBRANCH   6   7
BRANCH   2  15
ATOM     14  C   UNL     1       2.502   1.059   6.527  0.00  0.00    -0.005 C 
ATOM     15  C   UNL     1       1.321   0.179   6.113  0.00  0.00    -0.003 C 
BRANCH  15  18
ATOM     16  C   UNL     1       1.913  -1.447   7.806  0.00  0.00    -0.096 C 
ATOM     17  C   UNL     1       0.568  -2.113   5.907  0.00  0.00    -0.096 C 
ATOM     18  N   UNL     1       1.666  -1.236   6.364  0.00  0.00    +0.382 N 
ATOM     19  H   UNL     1       2.519  -1.469   5.842  0.00  0.00    -0.082 HD
ENDBRANCH  15  18
ENDBRANCH   2  15
ENDBRANCH   1   5
BRANCH   1  20
ATOM     20  C   UNL     1      -0.013   1.086   0.008  0.00  0.00    +0.173 C 
BRANCH  20  21
ATOM     21  C   UNL     1      -0.742   1.585  -1.213  0.00  0.00    +0.228 C 
ATOM     22  O   UNL     1      -1.736   2.268  -1.088  0.00  0.00    -0.275 OA
ATOM     23  N   UNL     1      -0.288   1.272  -2.443  0.00  0.00    -0.279 N 
ATOM     24  H   UNL     1       0.507   0.726  -2.543  0.00  0.00    +0.155 HD
BRANCH  23  25
ATOM     25  C   UNL     1      -0.959   1.732  -3.566  0.00  0.00    +0.084 A 
ATOM     26  C   UNL     1      -0.648   1.523  -4.899  0.00  0.00    +0.068 A 
ATOM     27  C   UNL     1      -1.530   2.121  -5.902  0.00  0.00    -0.023 A 
ATOM     28  C   UNL     1      -2.560   2.829  -5.406  0.00  0.00    -0.004 A 
ATOM     29  S   UNL     1      -2.384   2.711  -3.643  0.00  0.00    -0.077 S 
ATOM     30  C   UNL     1      -3.418   3.414  -6.496  0.00  0.00    +0.043 C 
ATOM     31  C   UNL     1      -3.035   2.617  -7.762  0.00  0.00    +0.010 C 
ATOM     32  C   UNL     1      -1.598   2.168  -7.429  0.00  0.00    +0.037 C 
BRANCH  26  33
ATOM     33  C   UNL     1       0.520   0.729  -5.292  0.00  0.00    +0.244 C 
ATOM     34  O   UNL     1       0.412  -0.472  -5.457  0.00  0.00    -0.270 OA
ATOM     35  N   UNL     1       1.714   1.329  -5.469  0.00  0.00    -0.325 N 
ATOM     36  H   UNL     1       1.800   2.286  -5.337  0.00  0.00    +0.145 HD
ATOM     37  H   UNL     1       2.487   0.803  -5.728  0.00  0.00    +0.145 HD
ENDBRANCH  26  33
ENDBRANCH  23  25
ENDBRANCH  20  21
ENDBRANCH   1  20
TORSDOF 8
