REMARK  Name = ZINC62356973
REMARK  6 active torsions:
REMARK  status: ('A' for Active; 'I' for Inactive)
REMARK    1  A    between atoms: C_1  and  C_2
REMARK    2  A    between atoms: N_5  and  C_8
REMARK    3  A    between atoms: C_8  and  C_10
REMARK    4  A    between atoms: C_8  and  C_27
REMARK    5  A    between atoms: C_10  and  N_11
REMARK    6  A    between atoms: C_12  and  C_14
REMARK                            x       y       z     vdW  Elec       q    Type
REMARK                         _______ _______ _______ _____ _____    ______ ____
ROOT
ATOM      1  N   UNL     1      -2.814  -3.651   2.692  0.00  0.00    -0.312 N 
ATOM      2  C   UNL     1      -4.071  -3.936   3.089  0.00  0.00    +0.249 C 
ATOM      3  O   UNL     1      -4.722  -4.772   2.491  0.00  0.00    -0.270 OA
ATOM      4  H   UNL     1      -2.321  -2.935   3.123  0.00  0.00    +0.149 HD
ENDROOT
BRANCH   2   5
ATOM      5  C   UNL     1      -4.655  -3.236   4.244  0.00  0.00    +0.101 A 
ATOM      6  C   UNL     1      -5.895  -3.607   4.734  0.00  0.00    +0.028 A 
ATOM      7  C   UNL     1      -6.430  -2.917   5.846  0.00  0.00    -0.001 A 
ATOM      8  C   UNL     1      -7.686  -3.273   6.364  0.00  0.00    +0.013 A 
ATOM      9  C   UNL     1      -8.194  -2.603   7.436  0.00  0.00    +0.039 A 
ATOM     10  C   UNL     1      -7.479  -1.564   8.025  0.00  0.00    +0.125 A 
ATOM     11  C   UNL     1      -6.243  -1.195   7.533  0.00  0.00    +0.064 A 
ATOM     12  C   UNL     1      -5.703  -1.865   6.440  0.00  0.00    +0.052 A 
ATOM     13  N   UNL     1      -4.468  -1.500   5.947  0.00  0.00    -0.321 N 
ATOM     14  H   UNL     1      -3.980  -0.775   6.368  0.00  0.00    +0.169 HD
ATOM     15  C   UNL     1      -3.927  -2.141   4.894  0.00  0.00    +0.261 A 
ATOM     16  O   UNL     1      -2.833  -1.806   4.476  0.00  0.00    -0.267 OA
ATOM     17  F   UNL     1      -8.000  -0.910   9.086  0.00  0.00    -0.205 F 
ENDBRANCH   2   5
BRANCH   1  18
ATOM     18  C   UNL     1      -2.194  -4.421   1.612  0.00  0.00    +0.097 C 
BRANCH  18  19
ATOM     19  C   UNL     1      -0.740  -3.979   1.439  0.00  0.00    +0.016 C 
BRANCH  19  24
ATOM     20  C   UNL     1       0.022   1.360  -0.413  0.00  0.00    +0.007 C 
ATOM     21  C   UNL     1       0.040  -0.165  -0.293  0.00  0.00    -0.018 C 
ATOM     22  C   UNL     1      -1.397  -0.692  -0.249  0.00  0.00    -0.015 C 
ATOM     23  C   UNL     1      -1.372  -2.209  -0.048  0.00  0.00    -0.078 C 
ATOM     24  N   UNL     1      -0.693  -2.528   1.213  0.00  0.00    +0.387 N 
ATOM     25  C   UNL     1       0.706  -2.089   1.151  0.00  0.00    -0.078 C 
ATOM     26  C   UNL     1       0.761  -0.568   0.997  0.00  0.00    -0.015 C 
ATOM     27  H   UNL     1      -1.159  -2.056   1.974  0.00  0.00    -0.081 HD
ENDBRANCH  19  24
BRANCH  19  28
ATOM     28  C   UNL     1       0.040  -4.319   2.683  0.00  0.00    +0.093 A 
ATOM     29  C   UNL     1       0.850  -5.381   2.838  0.00  0.00    +0.043 A 
ATOM     30  C   UNL     1       1.372  -5.311   4.150  0.00  0.00    +0.041 A 
ATOM     31  C   UNL     1       0.849  -4.210   4.719  0.00  0.00    +0.195 A 
ATOM     32  O   UNL     1       0.047  -3.610   3.824  0.00  0.00    -0.469 OA
ENDBRANCH  19  28
ENDBRANCH  18  19
ENDBRANCH   1  18
TORSDOF 5
