REMARK  Name = ZINC08696051
REMARK  14 active torsions:
REMARK  status: ('A' for Active; 'I' for Inactive)
REMARK    1  A    between atoms: C_1  and  C_2
REMARK    2  A    between atoms: C_3  and  C_12
REMARK    3  A    between atoms: C_14  and  C_19
REMARK    4  A    between atoms: C_16  and  C_17
REMARK    5  A    between atoms: C_16  and  C_18
REMARK    6  A    between atoms: C_19  and  C_20
REMARK    7  A    between atoms: N_22  and  C_23
REMARK    8  A    between atoms: N_22  and  C_30
REMARK    9  A    between atoms: C_23  and  C_24
REMARK   10  A    between atoms: C_30  and  C_36
REMARK   11  A    between atoms: N_38  and  C_39
REMARK   12  A    between atoms: C_42  and  N_45
REMARK   13  A    between atoms: N_45  and  C_46
REMARK   14  A    between atoms: N_45  and  C_47
REMARK                            x       y       z     vdW  Elec       q    Type
REMARK                         _______ _______ _______ _____ _____    ______ ____
ROOT
ATOM      1  C   UNL     1      -5.584  -3.827  -0.245  0.00  0.00    +0.217 C 
ATOM      2  O   UNL     1      -5.100  -4.055  -1.333  0.00  0.00    -0.276 OA
ATOM      3  N   UNL     1      -5.624  -4.795   0.691  0.00  0.00    -0.283 N 
ENDROOT
BRANCH   3   4
ATOM      4  C   UNL     1      -4.938  -6.069   0.458  0.00  0.00    +0.115 C 
ATOM      5  C   UNL     1      -5.586  -6.777  -0.728  0.00  0.00    +0.046 C 
ATOM      6  C   UNL     1      -5.724  -5.806  -1.904  0.00  0.00    +0.071 C 
ATOM      7  S   UNL     1      -4.062  -5.278  -2.421  0.00  0.00    -0.161 S 
ATOM      8  C   UNL     1      -3.314  -4.701  -0.867  0.00  0.00    +0.071 C 
ATOM      9  C   UNL     1      -3.461  -5.802   0.187  0.00  0.00    +0.046 C 
BRANCH   4  10
ATOM     10  C   UNL     1      -5.069  -6.934   1.684  0.00  0.00    +0.241 C 
ATOM     11  O   UNL     1      -5.289  -8.122   1.568  0.00  0.00    -0.273 OA
ATOM     12  N   UNL     1      -4.943  -6.389   2.910  0.00  0.00    -0.284 N 
ATOM     13  H   UNL     1      -4.887  -5.426   3.010  0.00  0.00    +0.155 HD
BRANCH  12  14
ATOM     14  C   UNL     1      -4.892  -7.214   4.042  0.00  0.00    +0.034 A 
ATOM     15  C   UNL     1      -4.091  -6.864   5.121  0.00  0.00    +0.025 A 
ATOM     16  C   UNL     1      -4.041  -7.676   6.236  0.00  0.00    +0.025 A 
ATOM     17  C   UNL     1      -4.791  -8.844   6.279  0.00  0.00    +0.029 A 
ATOM     18  C   UNL     1      -5.588  -9.197   5.197  0.00  0.00    +0.025 A 
ATOM     19  C   UNL     1      -5.642  -8.382   4.085  0.00  0.00    +0.025 A 
BRANCH  17  20
ATOM     20  N   UNL     1      -4.740  -9.668   7.409  0.00  0.00    -0.336 N 
ATOM     21  C   UNL     1      -3.895  -9.298   8.547  0.00  0.00    +0.129 C 
ATOM     22  C   UNL     1      -5.531 -10.900   7.453  0.00  0.00    +0.129 C 
ENDBRANCH  17  20
ENDBRANCH  12  14
ENDBRANCH   4  10
ENDBRANCH   3   4
BRANCH   1  23
ATOM     23  C   UNL     1      -6.141  -2.460   0.059  0.00  0.00    +0.100 C 
BRANCH  23  25
ATOM     24  C   UNL     1      -6.748  -0.219  -1.146  0.00  0.00    +0.031 C 
ATOM     25  C   UNL     1      -6.362  -1.696  -1.248  0.00  0.00    +0.012 C 
ATOM     26  C   UNL     1      -7.790  -1.254  -1.575  0.00  0.00    -0.024 C 
ATOM     27  C   UNL     1      -8.212  -1.264  -3.046  0.00  0.00    +0.012 C 
ATOM     28  C   UNL     1      -8.887  -1.610  -0.571  0.00  0.00    +0.012 C 
BRANCH  24  31
ATOM     29  C   UNL     1      -4.475   0.066   0.949  0.00  0.00    +0.063 C 
ATOM     30  C   UNL     1      -5.905   0.499   1.146  0.00  0.00    +0.017 A 
ATOM     31  C   UNL     1      -6.881   0.372   0.234  0.00  0.00    -0.016 A 
ATOM     32  C   UNL     1      -8.103   0.910   0.837  0.00  0.00    +0.003 A 
ATOM     33  C   UNL     1      -9.421   1.050   0.398  0.00  0.00    +0.010 A 
ATOM     34  C   UNL     1     -10.355   1.609   1.224  0.00  0.00    +0.001 A 
ATOM     35  C   UNL     1     -10.004   2.039   2.497  0.00  0.00    +0.002 A 
ATOM     36  C   UNL     1      -8.710   1.911   2.949  0.00  0.00    +0.026 A 
ATOM     37  C   UNL     1      -7.742   1.345   2.125  0.00  0.00    +0.047 A 
ATOM     38  N   UNL     1      -6.399   1.083   2.280  0.00  0.00    -0.358 N 
ATOM     39  H   UNL     1      -5.882   1.281   3.076  0.00  0.00    +0.166 HD
ENDBRANCH  24  31
ENDBRANCH  23  25
ENDBRANCH   1  23
BRANCH   3  40
ATOM     40  C   UNL     1      -6.352  -4.574   1.943  0.00  0.00    +0.144 C 
BRANCH  40  41
ATOM     41  C   UNL     1      -5.697  -3.458   2.715  0.00  0.00    -0.030 A 
ATOM     42  C   UNL     1      -4.334  -3.484   2.947  0.00  0.00    +0.005 A 
ATOM     43  C   UNL     1      -3.732  -2.458   3.650  0.00  0.00    +0.000 A 
ATOM     44  C   UNL     1      -4.495  -1.410   4.132  0.00  0.00    +0.000 A 
ATOM     45  C   UNL     1      -5.858  -1.386   3.905  0.00  0.00    +0.000 A 
ATOM     46  C   UNL     1      -6.459  -2.410   3.196  0.00  0.00    +0.005 A 
ENDBRANCH  40  41
ENDBRANCH   3  40
TORSDOF 9
