REMARK  Name = ZINC64438928
REMARK  5 active torsions:
REMARK  status: ('A' for Active; 'I' for Inactive)
REMARK    1  A    between atoms: C_1  and  C_2
REMARK    2  A    between atoms: C_2  and  N_3
REMARK    3  A    between atoms: N_9  and  C_12
REMARK    4  A    between atoms: C_15  and  C_18
REMARK    5  A    between atoms: C_21  and  C_24
REMARK                            x       y       z     vdW  Elec       q    Type
REMARK                         _______ _______ _______ _____ _____    ______ ____
ROOT
ATOM      1  C   UNL     1      -6.534  -3.723  -0.753  0.00  0.00    +0.030 A 
ATOM      2  C   UNL     1      -7.611  -2.849  -0.853  0.00  0.00    +0.024 A 
ATOM      3  C   UNL     1      -8.899  -3.324  -0.740  0.00  0.00    +0.013 A 
ATOM      4  C   UNL     1      -9.123  -4.685  -0.524  0.00  0.00    +0.018 A 
ATOM      5  C   UNL     1      -8.040  -5.561  -0.424  0.00  0.00    +0.013 A 
ATOM      6  C   UNL     1      -6.754  -5.080  -0.544  0.00  0.00    +0.024 A 
ENDROOT
BRANCH   1  13
ATOM      7  N   UNL     1      -1.365  -0.526   0.035  0.00  0.00    -0.300 N 
ATOM      8  C   UNL     1      -1.595  -1.853   0.008  0.00  0.00    +0.302 C 
ATOM      9  O   UNL     1      -0.667  -2.629  -0.117  0.00  0.00    -0.253 OA
ATOM     10  N   UNL     1      -2.854  -2.321   0.119  0.00  0.00    -0.283 N 
ATOM     11  C   UNL     1      -3.996  -1.396   0.146  0.00  0.00    +0.128 C 
ATOM     12  C   UNL     1      -4.976  -1.795  -0.964  0.00  0.00    +0.124 C 
ATOM     13  N   UNL     1      -5.232  -3.240  -0.868  0.00  0.00    -0.327 N 
ATOM     14  C   UNL     1      -4.090  -4.164  -0.895  0.00  0.00    +0.124 C 
ATOM     15  C   UNL     1      -3.111  -3.765   0.210  0.00  0.00    +0.128 C 
ATOM     16  H   UNL     1      -2.110   0.096   0.062  0.00  0.00    +0.150 HD
BRANCH   7  18
ATOM     17  C   UNL     1      -0.008   1.509   0.061  0.00  0.00    +0.024 C 
ATOM     18  C   UNL     1       0.010  -0.021   0.024  0.00  0.00    +0.102 C 
ENDBRANCH   7  18
ENDBRANCH   1  13
BRANCH   4  19
ATOM     19  C   UNL     1     -10.504  -5.198  -0.401  0.00  0.00    +0.168 C 
ATOM     20  N   UNL     1     -11.566  -4.465  -0.485  0.00  0.00    -0.067 NA
ATOM     21  O   UNL     1     -12.735  -5.247  -0.326  0.00  0.00    -0.367 OA
ATOM     22  C   UNL     1     -12.297  -6.600  -0.126  0.00  0.00    +0.318 C 
ATOM     23  N   UNL     1     -10.829  -6.525  -0.187  0.00  0.00    -0.288 N 
ATOM     24  H   UNL     1     -10.208  -7.265  -0.093  0.00  0.00    +0.151 HD
BRANCH  22  25
ATOM     25  C   UNL     1     -12.756  -7.113   1.241  0.00  0.00    +0.165 C 
ATOM     26  C   UNL     1     -12.259  -6.195   2.336  0.00  0.00    +0.012 C 
ATOM     27  C   UNL     1     -13.363  -5.717   2.954  0.00  0.00    -0.002 A 
ATOM     28  C   UNL     1     -13.551  -4.794   4.079  0.00  0.00    +0.029 A 
ATOM     29  C   UNL     1     -14.808  -4.497   4.482  0.00  0.00    +0.042 A 
ATOM     30  C   UNL     1     -15.934  -5.049   3.851  0.00  0.00    +0.022 A 
ATOM     31  C   UNL     1     -15.841  -5.904   2.812  0.00  0.00    +0.027 A 
ATOM     32  C   UNL     1     -14.567  -6.285   2.306  0.00  0.00    +0.043 A 
ATOM     33  N   UNL     1     -14.221  -7.086   1.325  0.00  0.00    -0.373 N 
ATOM     34 CL   UNL     1     -15.035  -3.406   5.813  0.00  0.00    -0.084 Cl
ATOM     35  H   UNL     1     -14.830  -7.577   0.752  0.00  0.00    +0.160 HD
ENDBRANCH  22  25
ENDBRANCH   4  19
TORSDOF 4
