REMARK  Name = ZINC12124826
REMARK  9 active torsions:
REMARK  status: ('A' for Active; 'I' for Inactive)
REMARK    1  A    between atoms: C_1  and  N_2
REMARK    2  A    between atoms: N_2  and  C_3
REMARK    3  A    between atoms: C_3  and  C_4
REMARK    4  A    between atoms: C_9  and  C_11
REMARK    5  A    between atoms: C_14  and  C_29
REMARK    6  A    between atoms: C_15  and  N_16
REMARK    7  A    between atoms: N_19  and  C_22
REMARK    8  A    between atoms: C_34  and  O_35
REMARK    9  A    between atoms: O_35  and  C_36
REMARK                            x       y       z     vdW  Elec       q    Type
REMARK                         _______ _______ _______ _____ _____    ______ ____
ROOT
ATOM      1  C   UNL     1      -4.183   4.034   3.454  0.00  0.00    +0.075 A 
ATOM      2  C   UNL     1      -3.883   3.371   4.652  0.00  0.00    +0.018 A 
ATOM      3  C   UNL     1      -2.759   2.571   4.699  0.00  0.00    +0.027 A 
ATOM      4  C   UNL     1      -1.960   2.446   3.561  0.00  0.00    +0.051 A 
ATOM      5  C   UNL     1      -3.331   3.861   2.348  0.00  0.00    +0.112 A 
ATOM      6  N   UNL     1      -2.214   3.081   2.376  0.00  0.00    -0.342 N 
ATOM      7  H   UNL     1      -1.602   2.975   1.558  0.00  0.00    +0.167 HD
ENDROOT
BRANCH   5   8
ATOM      8  N   UNL     1      -3.612   4.507   1.159  0.00  0.00    -0.313 N 
ATOM      9  C   UNL     1      -3.984   3.545   0.112  0.00  0.00    +0.125 C 
ATOM     10  C   UNL     1      -4.363   4.303  -1.163  0.00  0.00    +0.124 C 
ATOM     11  N   UNL     1      -3.228   5.132  -1.592  0.00  0.00    -0.325 N 
ATOM     12  C   UNL     1      -2.856   6.094  -0.545  0.00  0.00    +0.124 C 
ATOM     13  C   UNL     1      -2.477   5.336   0.729  0.00  0.00    +0.125 C 
BRANCH  11  14
ATOM     14  C   UNL     1      -3.512   5.786  -2.796  0.00  0.00    +0.065 A 
ATOM     15  C   UNL     1      -2.540   6.563  -3.411  0.00  0.00    +0.026 A 
ATOM     16  C   UNL     1      -2.822   7.205  -4.602  0.00  0.00    +0.002 A 
ATOM     17  C   UNL     1      -4.074   7.081  -5.177  0.00  0.00    +0.003 A 
ATOM     18  C   UNL     1      -5.047   6.312  -4.565  0.00  0.00    +0.040 A 
ATOM     19  C   UNL     1      -4.770   5.664  -3.375  0.00  0.00    +0.144 A 
ATOM     20  F   UNL     1      -5.721   4.913  -2.777  0.00  0.00    -0.204 F 
ENDBRANCH  11  14
ENDBRANCH   5   8
BRANCH   4  21
ATOM     21  C   UNL     1      -0.753   1.589   3.609  0.00  0.00    +0.040 A 
ATOM     22  C   UNL     1      -0.423   0.909   4.780  0.00  0.00    +0.013 A 
ATOM     23  C   UNL     1       0.706   0.116   4.820  0.00  0.00    +0.001 A 
ATOM     24  C   UNL     1       1.509  -0.011   3.700  0.00  0.00    +0.004 A 
ATOM     25  C   UNL     1       1.189   0.654   2.533  0.00  0.00    +0.046 A 
ATOM     26  C   UNL     1       0.058   1.454   2.477  0.00  0.00    +0.129 A 
BRANCH  26  27
ATOM     27  O   UNL     1      -0.257   2.108   1.330  0.00  0.00    -0.494 OA
ATOM     28  C   UNL     1       0.621   1.928   0.217  0.00  0.00    +0.277 C 
ENDBRANCH  26  27
ENDBRANCH   4  21
BRANCH   1  31
ATOM     29  C   UNL     1      -6.656   3.167   4.491  0.00  0.00    +0.132 C 
ATOM     30  N   UNL     1      -6.562   4.460   3.808  0.00  0.00    -0.295 N 
ATOM     31  C   UNL     1      -5.371   4.898   3.355  0.00  0.00    +0.250 C 
ATOM     32  O   UNL     1      -5.277   6.007   2.864  0.00  0.00    -0.270 OA
BRANCH  30  33
ATOM     33  C   UNL     1      -7.763   5.277   3.618  0.00  0.00    +0.163 C 
BRANCH  33  34
ATOM     34  C   UNL     1      -8.414   4.916   2.307  0.00  0.00    +0.066 A 
ATOM     35  C   UNL     1      -9.418   4.005   2.256  0.00  0.00    +0.071 A 
ATOM     36  S   UNL     1      -9.770   4.001   0.504  0.00  0.00    -0.084 S 
ATOM     37  C   UNL     1      -8.574   5.168   0.033  0.00  0.00    +0.156 A 
ATOM     38  N   UNL     1      -8.017   5.473   1.182  0.00  0.00    -0.251 NA
ENDBRANCH  33  34
ENDBRANCH  30  33
ENDBRANCH   1  31
TORSDOF 7
