REMARK  Name = ZINC09194071
REMARK  11 active torsions:
REMARK  status: ('A' for Active; 'I' for Inactive)
REMARK    1  A    between atoms: C_1  and  C_2
REMARK    2  A    between atoms: C_5  and  C_8
REMARK    3  A    between atoms: C_10  and  C_13
REMARK    4  A    between atoms: C_13  and  N_14
REMARK    5  A    between atoms: N_14  and  C_15
REMARK    6  A    between atoms: C_15  and  C_16
REMARK    7  A    between atoms: C_15  and  C_17
REMARK    8  A    between atoms: C_18  and  C_20
REMARK    9  A    between atoms: N_26  and  S_27
REMARK   10  A    between atoms: S_27  and  C_30
REMARK   11  A    between atoms: C_33  and  C_36
REMARK                            x       y       z     vdW  Elec       q    Type
REMARK                         _______ _______ _______ _____ _____    ______ ____
ROOT
ATOM      1  N   UNL     1      -3.353   7.820  -2.916  0.00  0.00    -0.288 N 
ATOM      2  C   UNL     1      -3.569   6.745  -2.132  0.00  0.00    +0.239 C 
ATOM      3  O   UNL     1      -2.830   5.785  -2.202  0.00  0.00    -0.273 OA
ENDROOT
BRANCH   2   4
ATOM      4  C   UNL     1      -4.727   6.735  -1.168  0.00  0.00    +0.187 C 
ATOM      5  C   UNL     1      -4.278   7.246   0.220  0.00  0.00    +0.043 C 
ATOM      6  C   UNL     1      -3.916   5.926   0.939  0.00  0.00    +0.100 C 
ATOM      7  C   UNL     1      -4.743   4.878   0.226  0.00  0.00    +0.235 C 
ATOM      8  O   UNL     1      -4.968   3.764   0.651  0.00  0.00    -0.274 OA
ATOM      9  N   UNL     1      -5.191   5.360  -0.946  0.00  0.00    -0.160 N 
BRANCH   9  10
ATOM     10  S   UNL     1      -6.139   4.511  -2.005  0.00  0.00    +0.077 S 
ATOM     11  O   UNL     1      -5.904   3.133  -1.745  0.00  0.00    -0.150 OA
ATOM     12  O   UNL     1      -5.935   5.090  -3.286  0.00  0.00    -0.150 OA
BRANCH  10  13
ATOM     13  C   UNL     1      -7.817   4.826  -1.571  0.00  0.00    +0.109 A 
ATOM     14  C   UNL     1      -8.459   4.012  -0.656  0.00  0.00    +0.029 A 
ATOM     15  C   UNL     1      -9.777   4.257  -0.319  0.00  0.00    +0.005 A 
ATOM     16  C   UNL     1     -10.450   5.321  -0.888  0.00  0.00    -0.050 A 
ATOM     17  C   UNL     1      -9.807   6.138  -1.800  0.00  0.00    +0.005 A 
ATOM     18  C   UNL     1      -8.490   5.890  -2.141  0.00  0.00    +0.029 A 
ATOM     19  C   UNL     1     -11.885   5.592  -0.516  0.00  0.00    +0.044 C 
ENDBRANCH  10  13
ENDBRANCH   9  10
ENDBRANCH   2   4
BRANCH   1  20
ATOM     20  C   UNL     1      -2.248   7.816  -3.877  0.00  0.00    +0.070 C 
ATOM     21  C   UNL     1      -0.925   7.622  -3.133  0.00  0.00    +0.028 C 
ATOM     22  C   UNL     1      -2.444   6.672  -4.875  0.00  0.00    +0.028 C 
ENDBRANCH   1  20
BRANCH   1  23
ATOM     23  C   UNL     1      -4.224   8.993  -2.806  0.00  0.00    +0.206 C 
BRANCH  23  26
ATOM     24  C   UNL     1      -2.550  11.618  -1.010  0.00  0.00    +0.202 A 
ATOM     25  N   UNL     1      -2.870  11.019  -2.179  0.00  0.00    -0.190 NA
ATOM     26  C   UNL     1      -3.609   9.987  -1.855  0.00  0.00    +0.245 A 
ATOM     27  O   UNL     1      -3.712   9.980  -0.522  0.00  0.00    -0.336 OA
ATOM     28  N   UNL     1      -3.101  10.917  -0.053  0.00  0.00    -0.056 NA
BRANCH  24  33
ATOM     29  C   UNL     1       0.658  16.358  -0.361  0.00  0.00    +0.044 C 
ATOM     30  C   UNL     1      -0.182  15.118  -0.531  0.00  0.00    -0.050 A 
ATOM     31  C   UNL     1      -0.701  14.479   0.581  0.00  0.00    +0.004 A 
ATOM     32  C   UNL     1      -1.470  13.343   0.431  0.00  0.00    +0.012 A 
ATOM     33  C   UNL     1      -1.723  12.839  -0.843  0.00  0.00    +0.022 A 
ATOM     34  C   UNL     1      -1.193  13.483  -1.959  0.00  0.00    +0.012 A 
ATOM     35  C   UNL     1      -0.430  14.622  -1.798  0.00  0.00    +0.004 A 
ENDBRANCH  24  33
ENDBRANCH  23  26
ENDBRANCH   1  23
TORSDOF 7
