REMARK  Name = ZINC66597287
REMARK  9 active torsions:
REMARK  status: ('A' for Active; 'I' for Inactive)
REMARK    1  A    between atoms: C_1  and  C_2
REMARK    2  A    between atoms: C_5  and  C_9
REMARK    3  A    between atoms: C_6  and  C_8
REMARK    4  A    between atoms: C_9  and  C_10
REMARK    5  A    between atoms: C_10  and  C_12
REMARK    6  A    between atoms: C_10  and  N_13
REMARK    7  A    between atoms: N_16  and  C_17
REMARK    8  A    between atoms: C_17  and  C_18
REMARK    9  A    between atoms: C_28  and  C_31
REMARK                            x       y       z     vdW  Elec       q    Type
REMARK                         _______ _______ _______ _____ _____    ______ ____
ROOT
ATOM      1  N   UNL     1      -2.151  -4.473  -1.084  0.00  0.00    -0.297 N 
ATOM      2  C   UNL     1      -3.490  -4.341  -1.002  0.00  0.00    +0.300 C 
ATOM      3  O   UNL     1      -4.057  -4.545   0.054  0.00  0.00    -0.253 OA
ATOM      4  N   UNL     1      -4.200  -3.983  -2.091  0.00  0.00    -0.295 N 
ATOM      5  H   UNL     1      -1.699  -4.311  -1.927  0.00  0.00    +0.151 HD
ATOM      6  H   UNL     1      -3.747  -3.821  -2.933  0.00  0.00    +0.151 HD
ENDROOT
BRANCH   1   7
ATOM      7  C   UNL     1      -1.380  -4.863   0.099  0.00  0.00    +0.076 C 
ATOM      8  C   UNL     1      -1.376  -6.387   0.226  0.00  0.00    +0.028 C 
BRANCH   7   9
ATOM      9  C   UNL     1       0.058  -4.359  -0.042  0.00  0.00    +0.057 C 
BRANCH   9  14
ATOM     10  C   UNL     1       0.079   1.420  -0.050  0.00  0.00    +0.044 C 
ATOM     11  C   UNL     1       0.073  -0.087  -0.048  0.00  0.00    -0.050 A 
ATOM     12  C   UNL     1       0.060  -0.780  -1.244  0.00  0.00    +0.003 A 
ATOM     13  C   UNL     1       0.055  -2.162  -1.242  0.00  0.00    +0.004 A 
ATOM     14  C   UNL     1       0.064  -2.852  -0.044  0.00  0.00    -0.043 A 
ATOM     15  C   UNL     1       0.078  -2.159   1.152  0.00  0.00    -0.047 A 
ATOM     16  C   UNL     1       0.087  -0.776   1.150  0.00  0.00    +0.007 A 
ATOM     17  C   UNL     1       0.088  -2.911   2.458  0.00  0.00    +0.044 C 
ENDBRANCH   9  14
ENDBRANCH   7   9
ENDBRANCH   1   7
BRANCH   4  18
ATOM     18  C   UNL     1      -5.655  -3.839  -2.001  0.00  0.00    +0.142 C 
BRANCH  18  19
ATOM     19  C   UNL     1      -6.203  -3.435  -3.345  0.00  0.00    -0.014 A 
ATOM     20  C   UNL     1      -6.321  -2.092  -3.680  0.00  0.00    +0.010 A 
ATOM     21  C   UNL     1      -6.829  -1.764  -4.923  0.00  0.00    +0.042 A 
ATOM     22  C   UNL     1      -7.203  -2.784  -5.793  0.00  0.00    +0.099 A 
ATOM     23  N   UNL     1      -7.075  -4.053  -5.437  0.00  0.00    -0.349 N 
ATOM     24  C   UNL     1      -6.588  -4.395  -4.259  0.00  0.00    +0.089 A 
ATOM     25  N   UNL     1      -7.715  -2.468  -7.045  0.00  0.00    -0.312 N 
ATOM     26  C   UNL     1      -8.001  -3.520  -8.034  0.00  0.00    +0.134 C 
ATOM     27  C   UNL     1      -9.429  -3.319  -8.555  0.00  0.00    +0.179 C 
ATOM     28  O   UNL     1      -9.582  -1.970  -9.001  0.00  0.00    -0.374 OA
ATOM     29  C   UNL     1      -9.417  -0.991  -7.973  0.00  0.00    +0.132 C 
ATOM     30  C   UNL     1      -7.994  -1.073  -7.420  0.00  0.00    +0.137 C 
ATOM     31  C   UNL     1      -9.665   0.404  -8.550  0.00  0.00    +0.039 C 
ATOM     32  H   UNL     1      -7.343  -4.747  -6.058  0.00  0.00    +0.167 HD
ENDBRANCH  18  19
ENDBRANCH   4  18
TORSDOF 5
