REMARK  Name = ZINC35388504
REMARK  10 active torsions:
REMARK  status: ('A' for Active; 'I' for Inactive)
REMARK    1  A    between atoms: C_1  and  C_2
REMARK    2  A    between atoms: C_7  and  C_9
REMARK    3  A    between atoms: C_7  and  C_10
REMARK    4  A    between atoms: N_13  and  C_17
REMARK    5  A    between atoms: C_17  and  N_18
REMARK    6  A    between atoms: C_22  and  C_24
REMARK    7  A    between atoms: C_26  and  O_32
REMARK    8  A    between atoms: C_29  and  O_30
REMARK    9  A    between atoms: O_30  and  C_31
REMARK   10  A    between atoms: O_32  and  C_33
REMARK                            x       y       z     vdW  Elec       q    Type
REMARK                         _______ _______ _______ _____ _____    ______ ____
ROOT
ATOM      1  C   UNL     1      -0.745   1.562   0.522  0.00  0.00    +0.007 C 
ATOM      2  C   UNL     1      -0.598   0.054   0.317  0.00  0.00    -0.011 C 
ATOM      3  C   UNL     1       0.075  -0.215  -1.032  0.00  0.00    +0.038 C 
ATOM      4  C   UNL     1       0.242  -1.718  -1.228  0.00  0.00    +0.113 C 
ATOM      5  C   UNL     1       1.078  -2.319  -0.104  0.00  0.00    +0.041 C 
ATOM      6  C   UNL     1       0.401  -2.043   1.241  0.00  0.00    -0.032 C 
ATOM      7  C   UNL     1       0.260  -0.533   1.439  0.00  0.00    +0.009 C 
ATOM      8  C   UNL     1       1.251  -2.630   2.369  0.00  0.00    +0.011 C 
ATOM      9  C   UNL     1      -0.985  -2.691   1.257  0.00  0.00    +0.011 C 
ATOM     10  C   UNL     1       0.874  -2.008  -2.570  0.00  0.00    +0.248 C 
ATOM     11  O   UNL     1       1.968  -1.658  -2.957  0.00  0.00    -0.273 OA
ATOM     12  N   UNL     1      -0.036  -2.739  -3.247  0.00  0.00    -0.211 N 
ATOM     13  C   UNL     1      -1.141  -2.945  -2.520  0.00  0.00    +0.310 C 
ATOM     14  O   UNL     1      -2.101  -3.578  -2.915  0.00  0.00    -0.252 OA
ATOM     15  N   UNL     1      -1.069  -2.374  -1.302  0.00  0.00    -0.285 N 
ATOM     16  H   UNL     1      -1.750  -2.393  -0.611  0.00  0.00    +0.151 HD
ENDROOT
BRANCH  12  17
ATOM     17  C   UNL     1       0.161  -3.245  -4.607  0.00  0.00    +0.205 C 
BRANCH  17  18
ATOM     18  N   UNL     1       0.780  -4.575  -4.551  0.00  0.00    -0.279 NA
ATOM     19  C   UNL     1       2.247  -4.471  -4.393  0.00  0.00    +0.086 C 
ATOM     20  C   UNL     1       2.816  -5.681  -5.175  0.00  0.00    +0.017 C 
ATOM     21  C   UNL     1       1.850  -5.753  -6.387  0.00  0.00    +0.025 C 
ATOM     22  C   UNL     1       0.493  -5.345  -5.775  0.00  0.00    +0.092 C 
BRANCH  22  23
ATOM     23  C   UNL     1      -0.272  -4.488  -6.751  0.00  0.00    +0.015 A 
ATOM     24  C   UNL     1       0.319  -3.364  -7.294  0.00  0.00    +0.054 A 
ATOM     25  C   UNL     1      -0.386  -2.576  -8.193  0.00  0.00    +0.121 A 
ATOM     26  C   UNL     1      -1.683  -2.917  -8.545  0.00  0.00    +0.049 A 
ATOM     27  C   UNL     1      -2.274  -4.041  -8.002  0.00  0.00    +0.049 A 
ATOM     28  C   UNL     1      -1.567  -4.832  -7.107  0.00  0.00    +0.125 A 
BRANCH  28  29
ATOM     29  O   UNL     1      -2.147  -5.942  -6.577  0.00  0.00    -0.495 OA
ATOM     30  C   UNL     1      -3.483  -6.236  -6.989  0.00  0.00    +0.277 C 
ENDBRANCH  28  29
BRANCH  25  31
ATOM     31  O   UNL     1       0.196  -1.469  -8.727  0.00  0.00    -0.495 OA
ATOM     32  C   UNL     1      -0.588  -0.704  -9.645  0.00  0.00    +0.277 C 
ENDBRANCH  25  31
ENDBRANCH  22  23
ENDBRANCH  17  18
ENDBRANCH  12  17
TORSDOF 5
