REMARK  Name = ZINC11349215
REMARK  14 active torsions:
REMARK  status: ('A' for Active; 'I' for Inactive)
REMARK    1  A    between atoms: C_1  and  C_2
REMARK    2  A    between atoms: C_2  and  C_3
REMARK    3  A    between atoms: C_3  and  N_4
REMARK    4  A    between atoms: N_4  and  C_5
REMARK    5  A    between atoms: N_4  and  C_20
REMARK    6  A    between atoms: C_5  and  C_6
REMARK    7  A    between atoms: N_8  and  C_9
REMARK    8  A    between atoms: C_9  and  C_11
REMARK    9  A    between atoms: C_9  and  C_17
REMARK   10  A    between atoms: C_17  and  C_18
REMARK   11  A    between atoms: C_17  and  C_19
REMARK   12  A    between atoms: C_21  and  N_36
REMARK   13  A    between atoms: N_22  and  C_29
REMARK   14  A    between atoms: C_29  and  C_30
REMARK                            x       y       z     vdW  Elec       q    Type
REMARK                         _______ _______ _______ _____ _____    ______ ____
ROOT
ATOM      1  N   UNL     1       1.826   3.797   0.236  0.00  0.00    -0.314 N 
ENDROOT
BRANCH   1   2
ATOM      2  C   UNL     1       0.562   3.170   0.146  0.00  0.00    +0.134 A 
ATOM      3  C   UNL     1      -0.581   3.918   0.067  0.00  0.00    +0.127 A 
ATOM      4  N   UNL     1      -1.799   3.283  -0.021  0.00  0.00    -0.276 N 
ATOM      5  C   UNL     1      -1.866   1.939  -0.034  0.00  0.00    +0.331 A 
ATOM      6  O   UNL     1      -2.951   1.395  -0.117  0.00  0.00    -0.246 OA
ATOM      7  N   UNL     1      -0.753   1.188   0.049  0.00  0.00    -0.273 N 
ATOM      8  H   UNL     1      -0.827   0.191   0.046  0.00  0.00    +0.173 HD
ATOM      9  C   UNL     1       0.460   1.767   0.137  0.00  0.00    +0.277 A 
ATOM     10  O   UNL     1       1.465   1.079   0.207  0.00  0.00    -0.266 OA
BRANCH   3  11
ATOM     11  N   UNL     1      -0.513   5.293   0.074  0.00  0.00    -0.343 N 
ATOM     12  H   UNL     1       0.348   5.735   0.137  0.00  0.00    +0.144 HD
ATOM     13  H   UNL     1      -1.326   5.819   0.018  0.00  0.00    +0.144 HD
ENDBRANCH   3  11
BRANCH   4  14
ATOM     14  C   UNL     1      -3.029   4.074  -0.106  0.00  0.00    +0.163 C 
BRANCH  14  15
ATOM     15  C   UNL     1      -3.350   4.348  -1.553  0.00  0.00    -0.028 A 
ATOM     16  C   UNL     1      -2.857   5.484  -2.167  0.00  0.00    +0.005 A 
ATOM     17  C   UNL     1      -3.147   5.733  -3.496  0.00  0.00    +0.000 A 
ATOM     18  C   UNL     1      -3.940   4.852  -4.207  0.00  0.00    +0.000 A 
ATOM     19  C   UNL     1      -4.437   3.719  -3.591  0.00  0.00    +0.000 A 
ATOM     20  C   UNL     1      -4.142   3.467  -2.264  0.00  0.00    +0.005 A 
ENDBRANCH  14  15
ENDBRANCH   4  14
ENDBRANCH   1   2
BRANCH   1  21
ATOM     21  C   UNL     1       2.517   3.414   1.475  0.00  0.00    +0.105 C 
BRANCH  21  23
ATOM     22  C   UNL     1       4.392   3.984   3.025  0.00  0.00    +0.005 C 
ATOM     23  C   UNL     1       3.652   4.402   1.753  0.00  0.00    +0.015 C 
ENDBRANCH  21  23
ENDBRANCH   1  21
BRANCH   1  24
ATOM     24  C   UNL     1       2.650   3.493  -0.941  0.00  0.00    +0.201 C 
BRANCH  24  25
ATOM     25  C   UNL     1       2.176   4.316  -2.112  0.00  0.00    +0.231 C 
ATOM     26  O   UNL     1       1.201   5.028  -1.997  0.00  0.00    -0.274 OA
ATOM     27  N   UNL     1       2.835   4.260  -3.286  0.00  0.00    -0.307 N 
ATOM     28  H   UNL     1       3.565   3.632  -3.402  0.00  0.00    +0.149 HD
BRANCH  27  29
ATOM     29  C   UNL     1       2.448   5.147  -4.386  0.00  0.00    +0.106 C 
BRANCH  29  30
ATOM     30  C   UNL     1       2.626   4.426  -5.698  0.00  0.00    -0.027 A 
ATOM     31  C   UNL     1       3.728   3.616  -5.898  0.00  0.00    +0.005 A 
ATOM     32  C   UNL     1       3.889   2.952  -7.100  0.00  0.00    +0.000 A 
ATOM     33  C   UNL     1       2.952   3.106  -8.104  0.00  0.00    +0.000 A 
ATOM     34  C   UNL     1       1.852   3.920  -7.906  0.00  0.00    +0.000 A 
ATOM     35  C   UNL     1       1.689   4.580  -6.703  0.00  0.00    +0.005 A 
ENDBRANCH  29  30
BRANCH  29  36
ATOM     36  C   UNL     1       3.330   6.397  -4.367  0.00  0.00    +0.008 C 
ATOM     37  C   UNL     1       2.882   7.354  -5.473  0.00  0.00    +0.009 C 
ATOM     38  C   UNL     1       3.202   7.091  -3.010  0.00  0.00    +0.009 C 
ENDBRANCH  29  36
ENDBRANCH  27  29
ENDBRANCH  24  25
ENDBRANCH   1  24
TORSDOF 11
