REMARK  Name = ZINC43766935
REMARK  16 active torsions:
REMARK  status: ('A' for Active; 'I' for Inactive)
REMARK    1  A    between atoms: C_1  and  C_2
REMARK    2  A    between atoms: C_4  and  O_41
REMARK    3  A    between atoms: C_7  and  C_29
REMARK    4  A    between atoms: C_11  and  C_28
REMARK    5  A    between atoms: C_20  and  O_27
REMARK    6  A    between atoms: C_24  and  C_25
REMARK    7  A    between atoms: C_24  and  C_26
REMARK    8  A    between atoms: C_29  and  C_30
REMARK    9  A    between atoms: C_29  and  C_31
REMARK   10  A    between atoms: C_29  and  C_32
REMARK   11  A    between atoms: C_32  and  C_34
REMARK   12  A    between atoms: C_32  and  O_40
REMARK   13  A    between atoms: C_35  and  C_36
REMARK   14  A    between atoms: C_36  and  C_37
REMARK   15  A    between atoms: C_36  and  C_38
REMARK   16  A    between atoms: C_36  and  C_39
REMARK                            x       y       z     vdW  Elec       q    Type
REMARK                         _______ _______ _______ _____ _____    ______ ____
ROOT
ATOM      1  C   UNL     1       1.150  -0.003  -0.353  0.00  0.00    +0.012 C 
ATOM      2  C   UNL     1       1.687  -1.056   0.618  0.00  0.00    -0.019 C 
ATOM      3  C   UNL     1       0.740  -2.290   0.745  0.00  0.00    +0.039 C 
ATOM      4  C   UNL     1       1.162  -2.938   2.082  0.00  0.00    +0.116 C 
ATOM      5  C   UNL     1       1.799  -1.817   2.930  0.00  0.00    +0.039 C 
ATOM      6  C   UNL     1       1.716  -0.550   2.070  0.00  0.00    -0.007 C 
ATOM      7  C   UNL     1       2.831   0.431   2.346  0.00  0.00    +0.083 C 
ATOM      8  C   UNL     1       4.137  -0.085   1.791  0.00  0.00    +0.141 C 
ATOM      9  O   UNL     1       5.136  -0.123   2.470  0.00  0.00    -0.297 OA
ATOM     10  C   UNL     1       4.146  -0.553   0.350  0.00  0.00    +0.036 C 
ATOM     11  C   UNL     1       3.054  -1.595   0.189  0.00  0.00    +0.013 C 
ATOM     12  C   UNL     1       2.990  -1.980  -1.294  0.00  0.00    +0.032 C 
ATOM     13  C   UNL     1       4.358  -2.372  -1.772  0.00  0.00    -0.026 C 
ATOM     14  C   UNL     1       5.453  -2.010  -1.183  0.00  0.00    -0.057 C 
ATOM     15  C   UNL     1       5.501  -1.179   0.042  0.00  0.00    +0.032 C 
ATOM     16  C   UNL     1       6.042  -1.942   1.242  0.00  0.00    +0.048 C 
ATOM     17  C   UNL     1       7.008  -3.044   0.815  0.00  0.00    +0.182 C 
ATOM     18  C   UNL     1       7.674  -2.693  -0.495  0.00  0.00    +0.171 C 
ATOM     19  O   UNL     1       8.869  -2.532  -0.568  0.00  0.00    -0.294 OA
ATOM     20  C   UNL     1       6.793  -2.486  -1.729  0.00  0.00    +0.047 C 
ATOM     21  C   UNL     1       7.374  -1.445  -2.689  0.00  0.00    +0.023 C 
ATOM     22  C   UNL     1       6.630  -3.832  -2.438  0.00  0.00    +0.023 C 
ATOM     23  C   UNL     1       3.890   0.630  -0.586  0.00  0.00    +0.020 C 
ENDROOT
BRANCH   6  24
ATOM     24  C   UNL     1       0.387   0.148   2.366  0.00  0.00    +0.001 C 
ATOM     25  C   UNL     1       0.262   1.398   1.492  0.00  0.00    +0.014 C 
ATOM     26  C   UNL     1      -0.769  -0.806   2.059  0.00  0.00    +0.014 C 
BRANCH  24  27
ATOM     27  C   UNL     1       0.339   0.550   3.841  0.00  0.00    +0.143 C 
BRANCH  27  28
ATOM     28  C   UNL     1      -0.768   1.550   4.054  0.00  0.00    +0.001 C 
ATOM     29  C   UNL     1      -1.696   1.319   4.949  0.00  0.00    -0.023 C 
BRANCH  29  30
ATOM     30  C   UNL     1      -2.804   2.319   5.162  0.00  0.00    -0.020 C 
ATOM     31  C   UNL     1      -2.610   3.503   4.213  0.00  0.00    +0.015 C 
ATOM     32  C   UNL     1      -4.152   1.654   4.879  0.00  0.00    +0.015 C 
ATOM     33  C   UNL     1      -2.773   2.814   6.609  0.00  0.00    +0.015 C 
ENDBRANCH  29  30
ENDBRANCH  27  28
BRANCH  27  34
ATOM     34  O   UNL     1       0.095  -0.608   4.643  0.00  0.00    -0.387 OA
ATOM     35  H   UNL     1      -0.737  -1.057   4.442  0.00  0.00    +0.210 HD
ENDBRANCH  27  34
ENDBRANCH  24  27
ENDBRANCH   6  24
BRANCH  17  36
ATOM     36  O   UNL     1       8.008  -3.209   1.822  0.00  0.00    -0.384 OA
ATOM     37  H   UNL     1       8.660  -3.895   1.620  0.00  0.00    +0.210 HD
ENDBRANCH  17  36
BRANCH   4  38
ATOM     38  O   UNL     1       2.115  -3.977   1.845  0.00  0.00    -0.392 OA
ATOM     39  H   UNL     1       1.780  -4.700   1.297  0.00  0.00    +0.210 HD
ENDBRANCH   4  38
TORSDOF 7
