REMARK  Name = ZINC48430057
REMARK  3 active torsions:
REMARK  status: ('A' for Active; 'I' for Inactive)
REMARK    1  A    between atoms: C_3  and  N_8
REMARK    2  A    between atoms: N_8  and  S_9
REMARK    3  A    between atoms: S_9  and  C_12
REMARK                            x       y       z     vdW  Elec       q    Type
REMARK                         _______ _______ _______ _____ _____    ______ ____
ROOT
ATOM      1  S   UNL     1       5.027   1.317  -0.039  0.00  0.00    +0.092 S 
ATOM      2  O   UNL     1       5.125   0.632   1.202  0.00  0.00    -0.148 OA
ATOM      3  O   UNL     1       5.101   0.645  -1.289  0.00  0.00    -0.148 OA
ENDROOT
BRANCH   1   4
ATOM      4  C   UNL     1       6.303   2.532  -0.046  0.00  0.00    +0.110 A 
ATOM      5  C   UNL     1       6.788   3.019  -1.245  0.00  0.00    +0.030 A 
ATOM      6  C   UNL     1       7.789   3.972  -1.250  0.00  0.00    +0.016 A 
ATOM      7  C   UNL     1       8.306   4.439  -0.056  0.00  0.00    +0.013 A 
ATOM      8  C   UNL     1       7.820   3.952   1.144  0.00  0.00    +0.016 A 
ATOM      9  C   UNL     1       6.815   3.003   1.149  0.00  0.00    +0.030 A 
ATOM     10  I   UNL     1       9.823   5.883  -0.063  0.00  0.00    -0.044 I 
ENDBRANCH   1   4
BRANCH   1  11
ATOM     11  N   UNL     1       3.582   2.126  -0.021  0.00  0.00    -0.098 NA
BRANCH  11  14
ATOM     12  C   UNL     1      -0.017   1.378   0.010  0.00  0.00    +0.005 A 
ATOM     13  C   UNL     1       1.169   2.087   0.002  0.00  0.00    +0.027 A 
ATOM     14  C   UNL     1       2.382   1.411  -0.013  0.00  0.00    +0.077 A 
ATOM     15  C   UNL     1       2.400   0.022  -0.021  0.00  0.00    +0.065 A 
ATOM     16  C   UNL     1       1.210  -0.683  -0.013  0.00  0.00    +0.125 A 
ATOM     17  C   UNL     1       0.002  -0.004   0.002  0.00  0.00    +0.038 A 
ATOM     18  F   UNL     1       1.225  -2.034  -0.021  0.00  0.00    -0.205 F 
ENDBRANCH  11  14
ENDBRANCH   1  11
TORSDOF 3
