REMARK  Name = ZINC58208516
REMARK  6 active torsions:
REMARK  status: ('A' for Active; 'I' for Inactive)
REMARK    1  A    between atoms: C_4  and  C_7
REMARK    2  A    between atoms: C_9  and  C_15
REMARK    3  A    between atoms: C_15  and  N_16
REMARK    4  A    between atoms: N_19  and  C_20
REMARK    5  A    between atoms: C_20  and  C_21
REMARK    6  A    between atoms: N_23  and  C_24
REMARK                            x       y       z     vdW  Elec       q    Type
REMARK                         _______ _______ _______ _____ _____    ______ ____
ROOT
ATOM      1  N   UNL     1       4.418  -0.429   3.675  0.00  0.00    -0.299 N 
ATOM      2  C   UNL     1       4.587   0.469   4.665  0.00  0.00    +0.300 C 
ATOM      3  O   UNL     1       4.570   1.659   4.417  0.00  0.00    -0.253 OA
ATOM      4  N   UNL     1       4.776   0.048   5.932  0.00  0.00    -0.291 N 
ATOM      5  H   UNL     1       4.432  -1.379   3.874  0.00  0.00    +0.150 HD
ATOM      6  H   UNL     1       4.790  -0.901   6.131  0.00  0.00    +0.151 HD
ENDROOT
BRANCH   1   7
ATOM      7  C   UNL     1       4.213   0.028   2.299  0.00  0.00    +0.112 C 
BRANCH   7   9
ATOM      8  C   UNL     1       3.711  -0.707  -0.038  0.00  0.00    +0.153 C 
ATOM      9  C   UNL     1       4.049  -1.183   1.378  0.00  0.00    +0.040 C 
ATOM     10  C   UNL     1       5.356  -1.981   1.342  0.00  0.00    +0.010 C 
ATOM     11  C   UNL     1       5.203  -3.145   0.358  0.00  0.00    +0.028 C 
ATOM     12  C   UNL     1       4.821  -2.594  -1.018  0.00  0.00    +0.160 C 
ATOM     13  O   UNL     1       3.614  -1.836  -0.908  0.00  0.00    -0.372 OA
BRANCH   8  17
ATOM     14  C   UNL     1      -0.017   1.378   0.010  0.00  0.00    +0.000 A 
ATOM     15  C   UNL     1       1.171   2.086   0.002  0.00  0.00    +0.000 A 
ATOM     16  C   UNL     1       2.377   1.411  -0.013  0.00  0.00    +0.006 A 
ATOM     17  C   UNL     1       2.396   0.029  -0.020  0.00  0.00    -0.019 A 
ATOM     18  C   UNL     1       1.208  -0.679  -0.012  0.00  0.00    +0.006 A 
ATOM     19  C   UNL     1       0.002  -0.004   0.002  0.00  0.00    +0.000 A 
ENDBRANCH   8  17
ENDBRANCH   7   9
ENDBRANCH   1   7
BRANCH   4  20
ATOM     20  C   UNL     1       4.960   1.025   7.008  0.00  0.00    +0.201 C 
BRANCH  20  21
ATOM     21  C   UNL     1       5.149   0.301   8.316  0.00  0.00    +0.230 C 
ATOM     22  O   UNL     1       5.132  -0.912   8.347  0.00  0.00    -0.274 OA
ATOM     23  N   UNL     1       5.338   1.000   9.453  0.00  0.00    -0.311 N 
ATOM     24  H   UNL     1       5.351   1.970   9.429  0.00  0.00    +0.149 HD
BRANCH  23  25
ATOM     25  C   UNL     1       5.522   0.296  10.725  0.00  0.00    +0.073 C 
ATOM     26  C   UNL     1       4.155  -0.034  11.327  0.00  0.00    +0.022 C 
ATOM     27  C   UNL     1       4.347  -0.769  12.655  0.00  0.00    +0.002 C 
ATOM     28  C   UNL     1       5.130   0.122  13.623  0.00  0.00    +0.000 C 
ATOM     29  C   UNL     1       6.497   0.452  13.020  0.00  0.00    +0.002 C 
ATOM     30  C   UNL     1       6.305   1.187  11.692  0.00  0.00    +0.022 C 
ENDBRANCH  23  25
ENDBRANCH  20  21
ENDBRANCH   4  20
TORSDOF 6
