REMARK  Name = ZINC20977093
REMARK  7 active torsions:
REMARK  status: ('A' for Active; 'I' for Inactive)
REMARK    1  A    between atoms: C_6  and  C_7
REMARK    2  A    between atoms: C_7  and  C_9
REMARK    3  A    between atoms: C_7  and  N_26
REMARK    4  A    between atoms: C_9  and  C_10
REMARK    5  A    between atoms: C_10  and  O_12
REMARK    6  A    between atoms: O_12  and  C_13
REMARK    7  A    between atoms: C_13  and  C_14
REMARK                            x       y       z     vdW  Elec       q    Type
REMARK                         _______ _______ _______ _____ _____    ______ ____
ROOT
ATOM      1  C   UNL     1      -6.413   5.917   2.632  0.00  0.00    +0.147 C 
ENDROOT
BRANCH   1   2
ATOM      2  C   UNL     1      -6.457   5.167   1.325  0.00  0.00    +0.310 C 
ATOM      3  O   UNL     1      -7.338   5.390   0.530  0.00  0.00    -0.251 OA
BRANCH   2   4
ATOM      4  O   UNL     1      -5.515   4.252   1.045  0.00  0.00    -0.458 OA
BRANCH   4   5
ATOM      5  C   UNL     1      -5.620   3.569  -0.232  0.00  0.00    +0.287 C 
BRANCH   5   6
ATOM      6  C   UNL     1      -4.486   2.586  -0.371  0.00  0.00    +0.086 A 
ATOM      7  C   UNL     1      -4.750   1.232  -0.429  0.00  0.00    +0.097 A 
ATOM      8  C   UNL     1      -3.680   0.339  -0.557  0.00  0.00    +0.259 A 
ATOM      9  O   UNL     1      -3.880  -0.865  -0.611  0.00  0.00    -0.267 OA
ATOM     10  N   UNL     1      -2.424   0.829  -0.626  0.00  0.00    -0.267 N 
ATOM     11  C   UNL     1      -1.372  -0.028  -0.745  0.00  0.00    +0.111 A 
ATOM     12  C   UNL     1      -0.104   0.439  -0.811  0.00  0.00    +0.035 A 
ATOM     13  C   UNL     1       0.142   1.818  -0.751  0.00  0.00    +0.020 A 
ATOM     14  C   UNL     1      -0.903   2.683  -0.626  0.00  0.00    +0.048 A 
ATOM     15  C   UNL     1      -2.215   2.178  -0.559  0.00  0.00    +0.141 A 
ATOM     16  N   UNL     1      -3.238   3.022  -0.437  0.00  0.00    -0.231 NA
ATOM     17 BR   UNL     1       1.339  -0.771  -0.984  0.00  0.00    -0.049 Br
ENDBRANCH   5   6
ENDBRANCH   4   5
ENDBRANCH   2   4
ENDBRANCH   1   2
BRANCH   1  18
ATOM     18  C   UNL     1      -7.590   6.891   2.700  0.00  0.00    +0.115 C 
BRANCH  18  24
ATOM     19  C   UNL     1      -7.061   6.912   5.146  0.00  0.00    +0.007 A 
ATOM     20  C   UNL     1      -7.082   7.519   6.388  0.00  0.00    +0.020 A 
ATOM     21  C   UNL     1      -7.671   8.761   6.540  0.00  0.00    +0.041 A 
ATOM     22  C   UNL     1      -8.234   9.398   5.449  0.00  0.00    +0.020 A 
ATOM     23  C   UNL     1      -8.207   8.793   4.206  0.00  0.00    +0.007 A 
ATOM     24  C   UNL     1      -7.619   7.551   4.055  0.00  0.00    -0.027 A 
ATOM     25 CL   UNL     1      -7.705   9.521   8.101  0.00  0.00    -0.084 Cl
ENDBRANCH  18  24
BRANCH  18  26
ATOM     26  N   UNL     1      -7.439   7.914   1.662  0.00  0.00    -0.292 N 
ATOM     27  C   UNL     1      -6.393   8.763   1.700  0.00  0.00    +0.298 C 
ATOM     28  O   UNL     1      -5.526   8.622   2.541  0.00  0.00    -0.253 OA
ATOM     29  N   UNL     1      -6.308   9.769   0.807  0.00  0.00    -0.313 N 
ATOM     30  H   UNL     1      -8.178   7.988   0.851  0.00  0.00    +0.151 HD
ATOM     31  H   UNL     1      -5.455  10.462   0.839  0.00  0.00    +0.146 HD
ATOM     32  H   UNL     1      -7.093   9.896   0.047  0.00  0.00    +0.146 HD
ENDBRANCH  18  26
ENDBRANCH   1  18
TORSDOF 7
