REMARK  Name = ZINC39666394
REMARK  7 active torsions:
REMARK  status: ('A' for Active; 'I' for Inactive)
REMARK    1  A    between atoms: C_1  and  C_2
REMARK    2  A    between atoms: C_2  and  C_4
REMARK    3  A    between atoms: C_2  and  O_31
REMARK    4  A    between atoms: C_4  and  N_5
REMARK    5  A    between atoms: C_6  and  C_8
REMARK    6  A    between atoms: C_19  and  C_21
REMARK    7  A    between atoms: O_31  and  C_32
REMARK                            x       y       z     vdW  Elec       q    Type
REMARK                         _______ _______ _______ _____ _____    ______ ____
ROOT
ATOM      1  C   UNL     1      -3.432  -3.044   0.552  0.00  0.00    +0.100 C 
ATOM      2  C   UNL     1      -2.744  -3.644  -0.694  0.00  0.00    +0.121 C 
ATOM      3  N   UNL     1      -3.651  -4.729  -1.136  0.00  0.00    -0.296 N 
ATOM      4  C   UNL     1      -5.012  -4.176  -0.937  0.00  0.00    +0.115 C 
ATOM      5  C   UNL     1      -4.921  -3.394   0.389  0.00  0.00    -0.004 C 
ATOM      6  C   UNL     1      -5.758  -2.122   0.308  0.00  0.00    -0.010 C 
ATOM      7  C   UNL     1      -7.239  -2.496   0.205  0.00  0.00    -0.082 C 
ATOM      8  N   UNL     1      -7.629  -3.288   1.377  0.00  0.00    +0.379 N 
ATOM      9  C   UNL     1      -6.885  -4.553   1.396  0.00  0.00    -0.082 C 
ATOM     10  C   UNL     1      -5.389  -4.266   1.550  0.00  0.00    -0.010 C 
ATOM     11  C   UNL     1      -3.315  -5.945  -1.612  0.00  0.00    +0.247 C 
ATOM     12  O   UNL     1      -2.151  -6.295  -1.615  0.00  0.00    -0.270 OA
ATOM     13  H   UNL     1      -7.424  -2.767   2.217  0.00  0.00    -0.086 HD
ATOM     14  H   UNL     1      -8.618  -3.482   1.337  0.00  0.00    -0.086 HD
ENDROOT
BRANCH  11  15
ATOM     15  C   UNL     1      -4.361  -6.851  -2.130  0.00  0.00    +0.037 A 
ATOM     16  C   UNL     1      -5.579  -6.319  -2.591  0.00  0.00    +0.013 A 
ATOM     17  C   UNL     1      -6.555  -7.131  -3.072  0.00  0.00    +0.009 A 
ATOM     18  C   UNL     1      -6.356  -8.523  -3.113  0.00  0.00    -0.018 A 
ATOM     19  C   UNL     1      -7.351  -9.383  -3.606  0.00  0.00    +0.008 A 
ATOM     20  C   UNL     1      -7.130 -10.726  -3.634  0.00  0.00    +0.001 A 
ATOM     21  C   UNL     1      -5.928 -11.265  -3.180  0.00  0.00    +0.001 A 
ATOM     22  C   UNL     1      -4.940 -10.464  -2.696  0.00  0.00    +0.008 A 
ATOM     23  C   UNL     1      -5.132  -9.071  -2.651  0.00  0.00    -0.017 A 
ATOM     24  C   UNL     1      -4.132  -8.216  -2.164  0.00  0.00    +0.021 A 
ENDBRANCH  11  15
BRANCH   1  26
ATOM     25  N   UNL     1      -3.192  -0.902   1.767  0.00  0.00    -0.312 N 
ATOM     26  C   UNL     1      -3.246  -1.549   0.585  0.00  0.00    +0.218 C 
ATOM     27  O   UNL     1      -3.145  -0.927  -0.451  0.00  0.00    -0.275 OA
ATOM     28  H   UNL     1      -3.273  -1.399   2.596  0.00  0.00    +0.149 HD
BRANCH  25  29
ATOM     29  C   UNL     1      -3.011   0.551   1.799  0.00  0.00    +0.148 C 
BRANCH  29  31
ATOM     30  C   UNL     1      -2.794   2.547   3.285  0.00  0.00    +0.053 C 
ATOM     31  C   UNL     1      -2.984   1.030   3.252  0.00  0.00    +0.187 C 
BRANCH  31  32
ATOM     32  O   UNL     1      -4.217   0.689   3.889  0.00  0.00    -0.486 OA
BRANCH  32  33
ATOM     33  C   UNL     1      -4.164   0.383   5.212  0.00  0.00    +0.139 A 
ATOM     34  C   UNL     1      -2.978   0.540   5.914  0.00  0.00    +0.047 A 
ATOM     35  C   UNL     1      -2.927   0.228   7.259  0.00  0.00    +0.004 A 
ATOM     36  C   UNL     1      -4.056  -0.240   7.906  0.00  0.00    +0.002 A 
ATOM     37  C   UNL     1      -5.240  -0.398   7.208  0.00  0.00    +0.023 A 
ATOM     38  C   UNL     1      -5.298  -0.082   5.864  0.00  0.00    +0.083 A 
ATOM     39 CL   UNL     1      -6.786  -0.273   4.990  0.00  0.00    -0.080 Cl
ENDBRANCH  32  33
ENDBRANCH  31  32
ENDBRANCH  29  31
ENDBRANCH  25  29
ENDBRANCH   1  26
TORSDOF 6
