REMARK  Name = ZINC39992681
REMARK  13 active torsions:
REMARK  status: ('A' for Active; 'I' for Inactive)
REMARK    1  A    between atoms: C_1  and  C_2
REMARK    2  A    between atoms: C_2  and  O_3
REMARK    3  A    between atoms: O_3  and  C_4
REMARK    4  A    between atoms: C_7  and  C_13
REMARK    5  A    between atoms: C_9  and  O_10
REMARK    6  A    between atoms: O_10  and  C_11
REMARK    7  A    between atoms: C_11  and  C_12
REMARK    8  A    between atoms: C_14  and  C_15
REMARK    9  A    between atoms: C_14  and  C_17
REMARK   10  A    between atoms: N_19  and  C_20
REMARK   11  A    between atoms: C_21  and  C_29
REMARK   12  A    between atoms: N_31  and  C_32
REMARK   13  A    between atoms: C_32  and  C_33
REMARK                            x       y       z     vdW  Elec       q    Type
REMARK                         _______ _______ _______ _____ _____    ______ ____
ROOT
ATOM      1  C   UNL     1       0.878  -8.303  -0.967  0.00  0.00    +0.259 C 
ATOM      2  O   UNL     1       1.441  -8.755  -1.947  0.00  0.00    -0.269 OA
ATOM      3  N   UNL     1       0.449  -9.132   0.005  0.00  0.00    -0.275 N 
ATOM      4  H   UNL     1       0.000  -8.772   0.786  0.00  0.00    +0.156 HD
ENDROOT
BRANCH   3   5
ATOM      5  C   UNL     1       0.649 -10.498  -0.111  0.00  0.00    +0.085 A 
ATOM      6  C   UNL     1       0.274 -11.493   0.779  0.00  0.00    +0.069 A 
ATOM      7  C   UNL     1       0.604 -12.862   0.422  0.00  0.00    -0.023 A 
ATOM      8  C   UNL     1       1.248 -12.985  -0.759  0.00  0.00    -0.004 A 
ATOM      9  S   UNL     1       1.395 -11.329  -1.365  0.00  0.00    -0.077 S 
ATOM     10  C   UNL     1       1.720 -14.254  -1.398  0.00  0.00    +0.043 C 
ATOM     11  C   UNL     1       1.701 -15.364  -0.337  0.00  0.00    +0.005 C 
ATOM     12  C   UNL     1       0.355 -15.329   0.392  0.00  0.00    +0.005 C 
ATOM     13  C   UNL     1       0.272 -14.079   1.272  0.00  0.00    +0.037 C 
BRANCH   6  14
ATOM     14  C   UNL     1      -0.425 -11.177   2.028  0.00  0.00    +0.247 C 
ATOM     15  O   UNL     1      -1.641 -11.140   2.052  0.00  0.00    -0.270 OA
ATOM     16  N   UNL     1       0.279 -10.928   3.150  0.00  0.00    -0.309 N 
ATOM     17  H   UNL     1       1.248 -10.957   3.131  0.00  0.00    +0.149 HD
BRANCH  16  18
ATOM     18  C   UNL     1      -0.420 -10.612   4.398  0.00  0.00    +0.136 C 
BRANCH  18  19
ATOM     19  C   UNL     1       0.604 -10.373   5.510  0.00  0.00    +0.135 C 
ATOM     20  C   UNL     1      -0.123 -10.159   6.854  0.00  0.00    +0.035 C 
ATOM     21  C   UNL     1       0.723  -9.035   7.512  0.00  0.00    +0.031 C 
ATOM     22  C   UNL     1       1.140  -8.214   6.265  0.00  0.00    +0.160 C 
ATOM     23  O   UNL     1       1.358  -9.188   5.229  0.00  0.00    -0.375 OA
ENDBRANCH  18  19
ENDBRANCH  16  18
ENDBRANCH   6  14
ENDBRANCH   3   5
BRANCH   1  25
ATOM     24  C   UNL     1       1.104  -6.006  -1.838  0.00  0.00    +0.032 C 
ATOM     25  C   UNL     1       0.665  -6.853  -0.844  0.00  0.00    +0.114 C 
BRANCH  24  29
ATOM     26  C   UNL     1       0.885  -1.807  -1.289  0.00  0.00    +0.162 A 
ATOM     27  C   UNL     1       1.050  -2.643  -0.191  0.00  0.00    +0.050 A 
ATOM     28  C   UNL     1       1.121  -4.007  -0.363  0.00  0.00    +0.012 A 
ATOM     29  C   UNL     1       1.028  -4.556  -1.651  0.00  0.00    -0.020 A 
ATOM     30  C   UNL     1       0.862  -3.710  -2.757  0.00  0.00    +0.057 A 
ATOM     31  C   UNL     1       0.786  -2.345  -2.573  0.00  0.00    +0.162 A 
BRANCH  26  32
ATOM     32  O   UNL     1       0.816  -0.463  -1.111  0.00  0.00    -0.489 OA
BRANCH  32  34
ATOM     33  C   UNL     1       0.824   1.547   0.230  0.00  0.00    +0.048 C 
ATOM     34  C   UNL     1       0.924   0.021   0.229  0.00  0.00    +0.226 C 
ENDBRANCH  32  34
ENDBRANCH  26  32
BRANCH  31  35
ATOM     35  O   UNL     1       0.620  -1.523  -3.643  0.00  0.00    -0.489 OA
BRANCH  35  36
ATOM     36  C   UNL     1       0.526  -2.141  -4.928  0.00  0.00    +0.226 C 
ATOM     37  C   UNL     1       0.342  -1.065  -6.000  0.00  0.00    +0.048 C 
ENDBRANCH  35  36
ENDBRANCH  31  35
ENDBRANCH  24  29
BRANCH  25  38
ATOM     38  C   UNL     1       0.003  -6.322   0.309  0.00  0.00    +0.104 C 
ATOM     39  N   UNL     1      -0.523  -5.901   1.223  0.00  0.00    -0.191 NA
ENDBRANCH  25  38
ENDBRANCH   1  25
TORSDOF 11
