REMARK  Name = ZINC17105869
REMARK  5 active torsions:
REMARK  status: ('A' for Active; 'I' for Inactive)
REMARK    1  A    between atoms: C_10  and  N_11
REMARK    2  A    between atoms: N_13  and  N_18
REMARK    3  A    between atoms: N_18  and  C_19
REMARK    4  A    between atoms: C_19  and  C_20
REMARK    5  A    between atoms: C_20  and  C_22
REMARK                            x       y       z     vdW  Elec       q    Type
REMARK                         _______ _______ _______ _____ _____    ______ ____
ROOT
ATOM      1  N   UNL     1       6.203   2.231  -0.262  0.00  0.00    -0.224 NA
ATOM      2  H   UNL     1       6.948   1.997   0.377  0.00  0.00    +0.145 HD
ENDROOT
BRANCH   1   5
ATOM      3  N   UNL     1       3.561   3.273   0.003  0.00  0.00    -0.224 NA
ATOM      4  C   UNL     1       4.647   4.002  -0.119  0.00  0.00    +0.178 C 
ATOM      5  N   UNL     1       5.950   3.573  -0.250  0.00  0.00    -0.180 N 
ATOM      6  C   UNL     1       6.964   4.413  -0.369  0.00  0.00    +0.245 C 
ATOM      7  O   UNL     1       8.108   4.030  -0.490  0.00  0.00    -0.273 OA
ATOM      8  C   UNL     1       6.605   5.891  -0.340  0.00  0.00    +0.174 C 
ATOM      9  S   UNL     1       4.782   5.783  -0.144  0.00  0.00    -0.079 S 
BRANCH   3  19
ATOM     10  C   UNL     1      -0.546   2.950   2.979  0.00  0.00    +0.001 A 
ATOM     11  C   UNL     1       0.697   2.321   2.998  0.00  0.00    +0.001 A 
ATOM     12  C   UNL     1       1.638   2.602   2.054  0.00  0.00    +0.010 A 
ATOM     13  C   UNL     1       1.356   3.540   1.053  0.00  0.00    +0.008 A 
ATOM     14  C   UNL     1       0.096   4.186   1.034  0.00  0.00    -0.016 A 
ATOM     15  C   UNL     1      -0.851   3.872   2.024  0.00  0.00    +0.008 A 
ATOM     16  C   UNL     1      -0.184   5.125   0.027  0.00  0.00    +0.008 A 
ATOM     17  C   UNL     1       0.743   5.419  -0.925  0.00  0.00    +0.003 A 
ATOM     18  C   UNL     1       1.991   4.811  -0.945  0.00  0.00    +0.028 A 
ATOM     19  C   UNL     1       2.335   3.872   0.020  0.00  0.00    +0.074 A 
ENDBRANCH   3  19
ENDBRANCH   1   5
BRANCH   1  20
ATOM     20  C   UNL     1       6.510   1.765  -1.621  0.00  0.00    +0.182 C 
BRANCH  20  21
ATOM     21  C   UNL     1       6.783   0.283  -1.595  0.00  0.00    +0.180 C 
ATOM     22  O   UNL     1       6.727  -0.325  -0.547  0.00  0.00    -0.291 OA
BRANCH  21  23
ATOM     23  C   UNL     1       7.116  -0.423  -2.836  0.00  0.00    +0.041 A 
ATOM     24  C   UNL     1       7.309   0.297  -4.023  0.00  0.00    +0.013 A 
ATOM     25  C   UNL     1       7.624  -0.358  -5.179  0.00  0.00    +0.002 A 
ATOM     26  C   UNL     1       7.757  -1.738  -5.189  0.00  0.00    +0.017 A 
ATOM     27  C   UNL     1       7.570  -2.472  -4.028  0.00  0.00    +0.035 A 
ATOM     28  C   UNL     1       7.249  -1.825  -2.836  0.00  0.00    +0.056 A 
ATOM     29  N   UNL     1       7.033  -2.518  -1.663  0.00  0.00    -0.312 N 
ATOM     30  C   UNL     1       7.552  -3.775  -1.371  0.00  0.00    +0.045 A 
ATOM     31  C   UNL     1       7.700  -4.149  -0.038  0.00  0.00    +0.024 A 
ATOM     32  C   UNL     1       8.202  -5.394   0.285  0.00  0.00    +0.002 A 
ATOM     33  C   UNL     1       8.562  -6.281  -0.712  0.00  0.00    +0.001 A 
ATOM     34  C   UNL     1       8.422  -5.920  -2.039  0.00  0.00    +0.017 A 
ATOM     35  C   UNL     1       7.920  -4.670  -2.372  0.00  0.00    +0.034 A 
ATOM     36  S   UNL     1       7.750  -4.224  -4.068  0.00  0.00    -0.086 S 
ATOM     37  H   UNL     1       6.408  -2.077  -0.872  0.00  0.00    +0.152 HD
ENDBRANCH  21  23
ENDBRANCH  20  21
ENDBRANCH   1  20
TORSDOF 5
