REMARK  Name = ZINC32107220
REMARK  9 active torsions:
REMARK  status: ('A' for Active; 'I' for Inactive)
REMARK    1  A    between atoms: C_1  and  C_2
REMARK    2  A    between atoms: C_2  and  C_36
REMARK    3  A    between atoms: C_6  and  N_27
REMARK    4  A    between atoms: C_8  and  C_14
REMARK    5  A    between atoms: C_14  and  C_16
REMARK    6  A    between atoms: C_14  and  O_26
REMARK    7  A    between atoms: C_16  and  N_17
REMARK    8  A    between atoms: C_18  and  C_20
REMARK    9  A    between atoms: C_28  and  C_30
REMARK                            x       y       z     vdW  Elec       q    Type
REMARK                         _______ _______ _______ _____ _____    ______ ____
ROOT
ATOM      1  C   UNL     1       2.711   1.081   6.651  0.00  0.00    +0.074 C 
ATOM      2  C   UNL     1       2.316   0.407   5.335  0.00  0.00    +0.168 C 
ATOM      3  O   UNL     1       0.878   0.382   5.201  0.00  0.00    -0.339 OA
ATOM      4  C   UNL     1       0.562   1.730   4.784  0.00  0.00    +0.200 C 
ATOM      5  C   UNL     1      -0.628   1.668   3.792  0.00  0.00    +0.138 C 
ATOM      6  C   UNL     1       0.079   1.179   2.503  0.00  0.00    +0.174 C 
ATOM      7  O   UNL     1       1.350   1.848   2.510  0.00  0.00    -0.341 OA
ATOM      8  C   UNL     1       1.756   2.099   3.860  0.00  0.00    +0.285 C 
ATOM      9  O   UNL     1       2.800   1.175   4.219  0.00  0.00    -0.318 OA
ATOM     10  C   UNL     1       2.876  -1.016   5.283  0.00  0.00    +0.074 C 
ENDROOT
BRANCH   5  11
ATOM     11  N   UNL     1      -1.221   2.994   3.597  0.00  0.00    -0.303 N 
ATOM     12  C   UNL     1      -2.462   3.108   3.083  0.00  0.00    +0.244 C 
ATOM     13  O   UNL     1      -3.089   2.111   2.782  0.00  0.00    -0.270 OA
ATOM     14  H   UNL     1      -0.653   3.896   3.869  0.00  0.00    +0.149 HD
BRANCH  12  15
ATOM     15  C   UNL     1      -3.060   4.446   2.886  0.00  0.00    +0.037 A 
ATOM     16  C   UNL     1      -2.344   5.592   3.236  0.00  0.00    +0.013 A 
ATOM     17  C   UNL     1      -2.906   6.837   3.045  0.00  0.00    +0.001 A 
ATOM     18  C   UNL     1      -4.181   6.951   2.518  0.00  0.00    +0.000 A 
ATOM     19  C   UNL     1      -4.897   5.819   2.173  0.00  0.00    +0.001 A 
ATOM     20  C   UNL     1      -4.345   4.567   2.354  0.00  0.00    +0.013 A 
ENDBRANCH  12  15
ENDBRANCH   5  11
BRANCH   6  21
ATOM     21  C   UNL     1      -0.729   1.579   1.267  0.00  0.00    +0.162 C 
BRANCH  21  22
ATOM     22  O   UNL     1      -2.030   0.991   1.336  0.00  0.00    -0.388 OA
ATOM     23  H   UNL     1      -2.757   1.168   0.530  0.00  0.00    +0.210 HD
ENDBRANCH  21  22
BRANCH  21  24
ATOM     24  C   UNL     1      -0.013   1.086   0.008  0.00  0.00    +0.138 C 
BRANCH  24  25
ATOM     25  N   UNL     1      -0.721   1.571  -1.179  0.00  0.00    -0.309 N 
ATOM     26  C   UNL     1      -0.268   1.258  -2.409  0.00  0.00    +0.244 C 
ATOM     27  O   UNL     1       0.728   0.574  -2.534  0.00  0.00    -0.270 OA
ATOM     28  H   UNL     1      -1.623   2.191  -1.066  0.00  0.00    +0.149 HD
BRANCH  26  29
ATOM     29  C   UNL     1      -0.983   1.748  -3.607  0.00  0.00    +0.037 A 
ATOM     30  C   UNL     1      -2.131   2.530  -3.467  0.00  0.00    +0.013 A 
ATOM     31  C   UNL     1      -2.791   2.987  -4.589  0.00  0.00    +0.001 A 
ATOM     32  C   UNL     1      -2.323   2.664  -5.850  0.00  0.00    +0.000 A 
ATOM     33  C   UNL     1      -1.189   1.886  -5.996  0.00  0.00    +0.001 A 
ATOM     34  C   UNL     1      -0.517   1.426  -4.882  0.00  0.00    +0.013 A 
ENDBRANCH  26  29
ENDBRANCH  24  25
ENDBRANCH  21  24
ENDBRANCH   6  21
TORSDOF 7
