REMARK  Name = ZINC03841629
REMARK  15 active torsions:
REMARK  status: ('A' for Active; 'I' for Inactive)
REMARK    1  A    between atoms: CD1_1  and  CG_2
REMARK    2  A    between atoms: CG_2  and  CD2_3
REMARK    3  A    between atoms: CG_2  and  CB_4
REMARK    4  A    between atoms: CB_4  and  CA_5
REMARK    5  A    between atoms: CA_5  and  C_7
REMARK    6  A    between atoms: CA_5  and  N_9
REMARK    7  A    between atoms: C_7  and  O_8
REMARK    8  A    between atoms: C_10  and  C_12
REMARK    9  A    between atoms: C_12  and  C_13
REMARK   10  A    between atoms: N_20  and  C_21
REMARK   11  A    between atoms: C_30  and  C_40
REMARK   12  A    between atoms: C_33  and  O_39
REMARK   13  A    between atoms: C_35  and  C_36
REMARK   14  A    between atoms: C_35  and  C_37
REMARK   15  A    between atoms: C_37  and  O_38
REMARK                            x       y       z     vdW  Elec       q    Type
REMARK                         _______ _______ _______ _____ _____    ______ ____
ROOT
ATOM      1  C   UNK A   0      -2.108   5.899  -3.123  0.00  0.00    +0.054 C 
ATOM      2  C   UNK A   0      -1.790   5.580  -4.575  0.00  0.00    +0.058 A 
ATOM      3  C   UNK A   0      -1.921   6.538  -5.527  0.00  0.00    +0.015 A 
ATOM      4  S   UNK A   0      -1.444   5.685  -7.007  0.00  0.00    -0.057 S 
ATOM      5  C   UNK A   0      -1.112   4.147  -6.268  0.00  0.00    +0.163 A 
ATOM      6  N   UNK A   0      -1.377   4.387  -5.000  0.00  0.00    -0.229 NA
ATOM      7  N   UNK A   0      -0.679   2.970  -6.861  0.00  0.00    -0.294 N 
ATOM      8  C   UNK A   0      -2.356   7.949  -5.345  0.00  0.00    +0.049 C 
ATOM      9  C   UNK A   0      -2.994   8.101  -3.950  0.00  0.00    +0.011 C 
ATOM     10  C   UNK A   0      -2.094   7.419  -2.916  0.00  0.00    -0.019 C 
ATOM     11  C   UNK A   0      -2.615   7.695  -1.501  0.00  0.00    +0.010 C 
ATOM     12  C   UNK A   0      -2.675   9.199  -1.240  0.00  0.00    +0.032 C 
ATOM     13  C   UNK A   0      -3.635   9.835  -2.250  0.00  0.00    +0.123 C 
ATOM     14  C   UNK A   0      -3.091   9.602  -3.659  0.00  0.00    +0.021 C 
ATOM     15  C   UNK A   0      -4.027  10.255  -4.677  0.00  0.00    +0.016 C 
ATOM     16  C   UNK A   0      -0.662   7.942  -3.056  0.00  0.00    +0.012 C 
ATOM     17  H   UNK A   0      -0.514   2.185  -6.316  0.00  0.00    +0.154 HD
ENDROOT
BRANCH   7  18
ATOM     18  C   UNK A   0      -0.481   2.916  -8.243  0.00  0.00    +0.033 A 
ATOM     19  C   UNK A   0      -1.321   3.623  -9.095  0.00  0.00    +0.023 A 
ATOM     20  C   UNK A   0      -1.120   3.571 -10.460  0.00  0.00    +0.002 A 
ATOM     21  C   UNK A   0      -0.090   2.807 -10.980  0.00  0.00    +0.000 A 
ATOM     22  C   UNK A   0       0.744   2.098 -10.136  0.00  0.00    +0.002 A 
ATOM     23  C   UNK A   0       0.552   2.150  -8.769  0.00  0.00    +0.023 A 
ENDBRANCH   7  18
BRANCH  13  24
ATOM     24  O   UNK A   0      -3.731  11.239  -2.001  0.00  0.00    -0.391 OA
ATOM     25  H   UNK A   0      -4.070  11.460  -1.122  0.00  0.00    +0.210 HD
ENDBRANCH  13  24
BRANCH   1  26
ATOM     26  C   UNK A   0      -1.060   5.251  -2.216  0.00  0.00    +0.106 C 
BRANCH  26  28
ATOM     27  N   LEU A   1      -0.385   2.968  -1.544  0.00  0.00    -0.310 N 
ATOM     28  C   UNK A   0      -1.208   3.752  -2.268  0.00  0.00    +0.214 C 
ATOM     29  O   UNK A   0      -2.068   3.252  -2.961  0.00  0.00    -0.276 OA
ATOM     30  H   LEU A   1       0.303   3.369  -0.989  0.00  0.00    +0.149 HD
BRANCH  27  31
ATOM     31  CA  LEU A   1      -0.530   1.511  -1.594  0.00  0.00    +0.098 C 
BRANCH  31  32
ATOM     32  CB  LEU A   1       0.026   0.899  -0.307  0.00  0.00    +0.027 C 
BRANCH  32  34
ATOM     33  CD1 LEU A   1      -2.240   0.781   0.740  0.00  0.00    +0.007 C 
ATOM     34  CG  LEU A   1      -0.826   1.349   0.881  0.00  0.00    -0.015 C 
ATOM     35  CD2 LEU A   1      -0.199   0.840   2.181  0.00  0.00    +0.007 C 
ENDBRANCH  32  34
ENDBRANCH  31  32
BRANCH  31  36
ATOM     36  C   LEU A   1       0.244   0.963  -2.795  0.00  0.00    +0.178 C 
BRANCH  36  37
ATOM     37  O   LEU A   1       1.641   1.198  -2.609  0.00  0.00    -0.393 OA
ATOM     38  H   LEU A   1       2.194   0.876  -3.333  0.00  0.00    +0.209 HD
ENDBRANCH  36  37
ENDBRANCH  31  36
ENDBRANCH  27  31
ENDBRANCH  26  28
ENDBRANCH   1  26
BRANCH  14  39
ATOM     39  C   UNK A   0      -1.702  10.231  -3.772  0.00  0.00    +0.165 C 
BRANCH  39  40
ATOM     40  O   UNK A   0      -1.811  11.652  -3.661  0.00  0.00    -0.394 OA
ATOM     41  H   UNK A   0      -0.966  12.118  -3.724  0.00  0.00    +0.209 HD
ENDBRANCH  39  40
ENDBRANCH  14  39
TORSDOF 11
