REMARK  Name = ZINC63908738
REMARK  8 active torsions:
REMARK  status: ('A' for Active; 'I' for Inactive)
REMARK    1  A    between atoms: C_1  and  C_2
REMARK    2  A    between atoms: C_4  and  C_12
REMARK    3  A    between atoms: C_12  and  C_14
REMARK    4  A    between atoms: C_14  and  C_16
REMARK    5  A    between atoms: C_14  and  O_17
REMARK    6  A    between atoms: O_17  and  C_18
REMARK    7  A    between atoms: C_18  and  C_20
REMARK    8  A    between atoms: C_22  and  N_28
REMARK                            x       y       z     vdW  Elec       q    Type
REMARK                         _______ _______ _______ _____ _____    ______ ____
ROOT
ATOM      1  C   UNL     1       1.223  -0.869  -3.678  0.00  0.00    +0.244 C 
ATOM      2  C   UNL     1       2.518  -0.065  -3.809  0.00  0.00    +0.061 C 
ENDROOT
BRANCH   1   3
ATOM      3  C   UNL     1       0.379  -0.286  -2.575  0.00  0.00    +0.202 C 
ATOM      4  O   UNL     1      -0.602   0.376  -2.847  0.00  0.00    -0.288 OA
BRANCH   3   7
ATOM      5  C   UNL     1      -0.019   1.526   0.010  0.00  0.00    +0.035 C 
ATOM      6  C   UNL     1       0.002  -0.004   0.002  0.00  0.00    +0.111 C 
ATOM      7  C   UNL     1       0.728  -0.508  -1.226  0.00  0.00    +0.030 C 
ATOM      8  C   UNL     1       1.805  -1.234  -0.750  0.00  0.00    +0.007 A 
ATOM      9  C   UNL     1       2.845  -1.946  -1.391  0.00  0.00    +0.010 A 
ATOM     10  C   UNL     1       3.789  -2.580  -0.660  0.00  0.00    +0.001 A 
ATOM     11  C   UNL     1       3.790  -2.566   0.744  0.00  0.00    +0.002 A 
ATOM     12  C   UNL     1       2.842  -1.915   1.453  0.00  0.00    +0.026 A 
ATOM     13  C   UNL     1       1.776  -1.199   0.733  0.00  0.00    +0.043 A 
ATOM     14  N   UNL     1       0.756  -0.505   1.155  0.00  0.00    -0.377 N 
ATOM     15  H   UNL     1       0.532  -0.344   2.085  0.00  0.00    +0.160 HD
ENDBRANCH   3   7
ENDBRANCH   1   3
BRANCH   1  16
ATOM     16  O   UNL     1       0.502  -0.814  -4.910  0.00  0.00    -0.449 OA
BRANCH  16  17
ATOM     17  C   UNL     1       0.766  -1.775  -5.817  0.00  0.00    +0.360 C 
ATOM     18  O   UNL     1       1.587  -2.635  -5.569  0.00  0.00    -0.243 OA
BRANCH  17  19
ATOM     19  C   UNL     1       0.057  -1.781  -7.115  0.00  0.00    +0.169 A 
ATOM     20  C   UNL     1       0.332  -2.780  -8.046  0.00  0.00    +0.095 A 
ATOM     21  C   UNL     1      -0.346  -2.773  -9.265  0.00  0.00    +0.067 A 
ATOM     22  C   UNL     1      -1.273  -1.759  -9.501  0.00  0.00    +0.100 A 
ATOM     23  C   UNL     1      -1.491  -0.799  -8.524  0.00  0.00    +0.150 A 
ATOM     24  N   UNL     1      -0.839  -0.836  -7.381  0.00  0.00    -0.226 NA
ATOM     25 CL   UNL     1      -2.644   0.466  -8.811  0.00  0.00    -0.060 Cl
ATOM     26 CL   UNL     1      -2.146  -1.698 -11.001  0.00  0.00    -0.078 Cl
ATOM     27 CL   UNL     1       1.499  -4.016  -7.694  0.00  0.00    -0.079 Cl
BRANCH  21  28
ATOM     28  N   UNL     1      -0.102  -3.753 -10.225  0.00  0.00    -0.356 N 
ATOM     29  H   UNL     1       0.546  -4.453 -10.048  0.00  0.00    +0.142 HD
ATOM     30  H   UNL     1      -0.580  -3.736 -11.068  0.00  0.00    +0.142 HD
ENDBRANCH  21  28
ENDBRANCH  17  19
ENDBRANCH  16  17
ENDBRANCH   1  16
TORSDOF 6
