REMARK  Name = ZINC35004422
REMARK  11 active torsions:
REMARK  status: ('A' for Active; 'I' for Inactive)
REMARK    1  A    between atoms: C_1  and  C_2
REMARK    2  A    between atoms: C_2  and  C_3
REMARK    3  A    between atoms: C_3  and  C_5
REMARK    4  A    between atoms: C_3  and  C_6
REMARK    5  A    between atoms: C_6  and  C_8
REMARK    6  A    between atoms: C_6  and  N_24
REMARK    7  A    between atoms: C_14  and  C_17
REMARK    8  A    between atoms: N_20  and  C_21
REMARK    9  A    between atoms: C_21  and  C_22
REMARK   10  A    between atoms: C_21  and  C_23
REMARK   11  A    between atoms: N_27  and  C_28
REMARK                            x       y       z     vdW  Elec       q    Type
REMARK                         _______ _______ _______ _____ _____    ______ ____
ROOT
ATOM      1  C   UNL     1      -2.168  -0.277   1.470  0.00  0.00    +0.163 C 
ENDROOT
BRANCH   1   2
ATOM      2  C   UNL     1      -2.395   1.206   1.615  0.00  0.00    +0.236 C 
ATOM      3  O   UNL     1      -3.474   1.684   1.336  0.00  0.00    -0.274 OA
ATOM      4  N   UNL     1      -1.399   2.001   2.054  0.00  0.00    -0.297 N 
ATOM      5  C   UNL     1      -0.053   1.456   2.283  0.00  0.00    +0.127 C 
ATOM      6  C   UNL     1       0.363   1.770   3.725  0.00  0.00    +0.128 C 
ATOM      7  N   UNL     1       0.123   3.197   3.983  0.00  0.00    -0.280 N 
ATOM      8  C   UNL     1      -1.223   3.741   3.755  0.00  0.00    +0.092 C 
ATOM      9  C   UNL     1      -1.638   3.428   2.307  0.00  0.00    +0.130 C 
ATOM     10  C   UNL     1      -2.210   3.097   4.730  0.00  0.00    +0.030 C 
ATOM     11  C   UNL     1       1.119   3.991   4.423  0.00  0.00    +0.303 C 
ATOM     12  O   UNL     1       0.887   5.147   4.723  0.00  0.00    -0.253 OA
ATOM     13  N   UNL     1       2.372   3.506   4.530  0.00  0.00    -0.297 N 
ATOM     14  H   UNL     1       2.572   2.608   4.221  0.00  0.00    +0.150 HD
BRANCH  13  15
ATOM     15  C   UNL     1       3.431   4.333   5.112  0.00  0.00    +0.068 C 
ATOM     16  C   UNL     1       3.405   4.196   6.636  0.00  0.00    +0.027 C 
ATOM     17  C   UNL     1       4.790   3.870   4.581  0.00  0.00    +0.027 C 
ENDBRANCH  13  15
ENDBRANCH   1   2
BRANCH   1  18
ATOM     18  N   UNL     1      -3.450  -0.979   1.562  0.00  0.00    -0.288 N 
ATOM     19  C   UNL     1      -3.486  -2.266   1.961  0.00  0.00    +0.301 C 
ATOM     20  O   UNL     1      -2.455  -2.844   2.244  0.00  0.00    -0.253 OA
ATOM     21  N   UNL     1      -4.666  -2.912   2.046  0.00  0.00    -0.294 N 
ATOM     22  H   UNL     1      -4.273  -0.518   1.336  0.00  0.00    +0.151 HD
ATOM     23  H   UNL     1      -5.489  -2.451   1.820  0.00  0.00    +0.151 HD
BRANCH  21  24
ATOM     24  C   UNL     1      -4.706  -4.311   2.480  0.00  0.00    +0.037 C 
ATOM     25  C   UNL     1      -3.884  -5.167   1.515  0.00  0.00    +0.029 C 
ATOM     26  C   UNL     1      -3.925  -6.628   1.968  0.00  0.00    -0.008 C 
ATOM     27  C   UNL     1      -5.375  -7.118   1.978  0.00  0.00    +0.007 C 
ATOM     28  C   UNL     1      -6.196  -6.262   2.943  0.00  0.00    -0.008 C 
ATOM     29  C   UNL     1      -6.155  -4.801   2.490  0.00  0.00    +0.029 C 
ATOM     30  C   UNL     1      -5.610  -6.375   4.351  0.00  0.00    +0.007 C 
ATOM     31  C   UNL     1      -4.161  -5.885   4.342  0.00  0.00    -0.008 C 
ATOM     32  C   UNL     1      -3.339  -6.742   3.377  0.00  0.00    +0.007 C 
ATOM     33  C   UNL     1      -4.120  -4.424   3.889  0.00  0.00    +0.029 C 
ENDBRANCH  21  24
ENDBRANCH   1  18
BRANCH   1  34
ATOM     34  C   UNL     1      -1.526  -0.564   0.110  0.00  0.00    +0.015 C 
ATOM     35  C   UNL     1      -2.515  -0.216  -1.004  0.00  0.00    +0.010 C 
BRANCH  34  37
ATOM     36  C   UNL     1      -0.077  -2.366   1.057  0.00  0.00    +0.004 C 
ATOM     37  C   UNL     1      -1.158  -2.046   0.023  0.00  0.00    +0.002 C 
ENDBRANCH  34  37
ENDBRANCH   1  34
TORSDOF 6
