REMARK  Name = ZINC39892703
REMARK  6 active torsions:
REMARK  status: ('A' for Active; 'I' for Inactive)
REMARK    1  A    between atoms: C_1  and  C_2
REMARK    2  A    between atoms: C_4  and  C_26
REMARK    3  A    between atoms: C_10  and  C_11
REMARK    4  A    between atoms: C_11  and  C_12
REMARK    5  A    between atoms: N_14  and  N_15
REMARK    6  A    between atoms: C_16  and  C_18
REMARK                            x       y       z     vdW  Elec       q    Type
REMARK                         _______ _______ _______ _____ _____    ______ ____
ROOT
ATOM      1  C   UNL     1       0.868  -5.730  -1.092  0.00  0.00    +0.234 C 
ATOM      2  O   UNL     1       1.818  -5.050  -0.767  0.00  0.00    -0.274 OA
ATOM      3  N   UNL     1       1.032  -6.747  -1.960  0.00  0.00    -0.234 N 
ATOM      4  H   UNL     1       0.272  -7.291  -2.220  0.00  0.00    +0.173 HD
ENDROOT
BRANCH   3   5
ATOM      5  N   UNL     1       2.301  -7.020  -2.488  0.00  0.00    -0.230 N 
ATOM      6  C   UNL     1       2.466  -8.038  -3.356  0.00  0.00    +0.262 C 
ATOM      7  O   UNL     1       1.513  -8.719  -3.681  0.00  0.00    -0.269 OA
ATOM      8  H   UNL     1       3.062  -6.476  -2.228  0.00  0.00    +0.173 HD
BRANCH   6   9
ATOM      9  C   UNL     1       3.804  -8.325  -3.912  0.00  0.00    +0.057 A 
ATOM     10  C   UNL     1       4.901  -7.548  -3.536  0.00  0.00    +0.016 A 
ATOM     11  C   UNL     1       6.147  -7.821  -4.058  0.00  0.00    +0.021 A 
ATOM     12  C   UNL     1       6.313  -8.864  -4.955  0.00  0.00    +0.042 A 
ATOM     13  C   UNL     1       5.230  -9.639  -5.333  0.00  0.00    +0.040 A 
ATOM     14  C   UNL     1       3.977  -9.380  -4.812  0.00  0.00    +0.054 A 
ATOM     15 CL   UNL     1       2.621 -10.356  -5.281  0.00  0.00    -0.083 Cl
ATOM     16 CL   UNL     1       7.886  -9.201  -5.607  0.00  0.00    -0.083 Cl
ENDBRANCH   6   9
ENDBRANCH   3   5
BRANCH   1  17
ATOM     17  C   UNL     1      -0.497  -5.436  -0.525  0.00  0.00    +0.136 C 
BRANCH  17  27
ATOM     18  C   UNL     1       0.817  -3.343   5.906  0.00  0.00    +0.044 C 
ATOM     19  C   UNL     1       0.506  -3.670   4.468  0.00  0.00    -0.047 A 
ATOM     20  C   UNL     1       0.557  -4.988   4.037  0.00  0.00    +0.007 A 
ATOM     21  C   UNL     1       0.279  -5.303   2.736  0.00  0.00    -0.039 A 
ATOM     22  C   UNL     1      -0.059  -4.292   1.838  0.00  0.00    +0.027 A 
ATOM     23  C   UNL     1      -0.113  -2.955   2.268  0.00  0.00    +0.136 A 
ATOM     24  C   UNL     1       0.168  -2.658   3.595  0.00  0.00    +0.050 A 
ATOM     25  O   UNL     1      -0.461  -2.206   1.202  0.00  0.00    -0.463 OA
ATOM     26  C   UNL     1      -0.634  -2.973   0.112  0.00  0.00    +0.200 A 
ATOM     27  C   UNL     1      -0.409  -4.260   0.412  0.00  0.00    +0.007 A 
ATOM     28  C   UNL     1       0.337  -6.736   2.275  0.00  0.00    +0.044 C 
ENDBRANCH  17  27
ENDBRANCH   1  17
TORSDOF 4
