REMARK  Name = ZINC15231376
REMARK  8 active torsions:
REMARK  status: ('A' for Active; 'I' for Inactive)
REMARK    1  A    between atoms: C_1  and  C_2
REMARK    2  A    between atoms: C_2  and  O_3
REMARK    3  A    between atoms: O_3  and  C_4
REMARK    4  A    between atoms: C_6  and  C_15
REMARK    5  A    between atoms: C_9  and  O_10
REMARK    6  A    between atoms: O_10  and  C_11
REMARK    7  A    between atoms: C_11  and  C_12
REMARK    8  A    between atoms: N_16  and  N_17
REMARK                            x       y       z     vdW  Elec       q    Type
REMARK                         _______ _______ _______ _____ _____    ______ ____
ROOT
ATOM      1  N   UNL     1       1.582  -7.080  -0.035  0.00  0.00    -0.127 N 
ATOM      2  C   UNL     1       2.879  -6.620  -0.033  0.00  0.00    +0.246 C 
ATOM      3  O   UNL     1       3.268  -5.506   0.249  0.00  0.00    -0.273 OA
ATOM      4  C   UNL     1       3.694  -7.778  -0.449  0.00  0.00    +0.102 C 
ATOM      5  C   UNL     1       2.856  -8.912   0.194  0.00  0.00    +0.102 C 
ATOM      6  C   UNL     1       1.499  -8.454  -0.041  0.00  0.00    +0.246 C 
ATOM      7  O   UNL     1       0.509  -9.134  -0.208  0.00  0.00    -0.273 OA
ATOM      8  C   UNL     1       3.603 -10.179   0.177  0.00  0.00    +0.062 C 
ATOM      9  C   UNL     1       4.511 -10.270  -1.033  0.00  0.00    -0.035 A 
ATOM     10  C   UNL     1       4.524 -11.304  -1.928  0.00  0.00    +0.004 A 
ATOM     11  C   UNL     1       5.443 -11.280  -2.968  0.00  0.00    +0.000 A 
ATOM     12  C   UNL     1       6.337 -10.233  -3.098  0.00  0.00    +0.000 A 
ATOM     13  C   UNL     1       6.310  -9.175  -2.197  0.00  0.00    +0.004 A 
ATOM     14  C   UNL     1       5.391  -9.197  -1.196  0.00  0.00    -0.035 A 
ATOM     15  C   UNL     1       5.147  -8.040  -0.170  0.00  0.00    +0.062 C 
ATOM     16  C   UNL     1       5.315  -8.769   1.161  0.00  0.00    -0.035 A 
ATOM     17  C   UNL     1       4.588  -9.925   1.325  0.00  0.00    -0.035 A 
ATOM     18  C   UNL     1       4.734 -10.697   2.432  0.00  0.00    +0.004 A 
ATOM     19  C   UNL     1       5.636 -10.291   3.411  0.00  0.00    +0.000 A 
ATOM     20  C   UNL     1       6.359  -9.124   3.246  0.00  0.00    +0.000 A 
ATOM     21  C   UNL     1       6.164  -8.358   2.151  0.00  0.00    +0.004 A 
ENDROOT
BRANCH   1  23
ATOM     22  C   UNL     1       0.620  -4.949  -0.019  0.00  0.00    +0.139 C 
ATOM     23  N   UNL     1       0.463  -6.238  -0.025  0.00  0.00    -0.178 NA
BRANCH  22  26
ATOM     24  C   UNL     1      -1.498  -1.849   0.006  0.00  0.00    +0.164 A 
ATOM     25  C   UNL     1      -0.391  -2.676  -0.003  0.00  0.00    +0.059 A 
ATOM     26  C   UNL     1      -0.558  -4.063  -0.009  0.00  0.00    -0.000 A 
ATOM     27  C   UNL     1      -1.845  -4.609  -0.005  0.00  0.00    +0.033 A 
ATOM     28  C   UNL     1      -2.946  -3.777   0.004  0.00  0.00    +0.087 A 
ATOM     29  C   UNL     1      -2.778  -2.399   0.016  0.00  0.00    +0.182 A 
ATOM     30 CL   UNL     1      -4.543  -4.456   0.009  0.00  0.00    -0.080 Cl
BRANCH  24  31
ATOM     31  O   UNL     1      -1.339  -0.499   0.012  0.00  0.00    -0.489 OA
BRANCH  31  33
ATOM     32  C   UNL     1      -0.019   1.526   0.010  0.00  0.00    +0.048 C 
ATOM     33  C   UNL     1       0.002  -0.004   0.002  0.00  0.00    +0.226 C 
ENDBRANCH  31  33
ENDBRANCH  24  31
BRANCH  29  34
ATOM     34  O   UNL     1      -3.866  -1.584   0.031  0.00  0.00    -0.474 OA
BRANCH  34  35
ATOM     35  C   UNL     1      -4.398  -1.188  -1.235  0.00  0.00    +0.317 C 
BRANCH  35  36
ATOM     36  C   UNL     1      -5.564  -0.314  -1.026  0.00  0.00    -0.065 C 
ATOM     37  C   UNL     1      -6.493   0.383  -0.859  0.00  0.00    +0.007 C 
ENDBRANCH  35  36
ENDBRANCH  34  35
ENDBRANCH  29  34
ENDBRANCH  22  26
ENDBRANCH   1  23
TORSDOF 7
