REMARK  Name = ZINC41584987
REMARK  9 active torsions:
REMARK  status: ('A' for Active; 'I' for Inactive)
REMARK    1  A    between atoms: C_1  and  C_2
REMARK    2  A    between atoms: C_4  and  O_38
REMARK    3  A    between atoms: C_5  and  C_21
REMARK    4  A    between atoms: C_11  and  C_12
REMARK    5  A    between atoms: C_17  and  O_18
REMARK    6  A    between atoms: O_18  and  C_19
REMARK    7  A    between atoms: C_21  and  N_22
REMARK    8  A    between atoms: N_25  and  C_28
REMARK    9  A    between atoms: C_28  and  C_29
REMARK                            x       y       z     vdW  Elec       q    Type
REMARK                         _______ _______ _______ _____ _____    ______ ____
ROOT
ATOM      1  C   UNL     1      -0.710   1.600   0.142  0.00  0.00    +0.045 C 
ATOM      2  C   UNL     1      -0.777   0.095   0.115  0.00  0.00    -0.033 A 
ATOM      3  C   UNL     1      -1.031  -0.557  -1.059  0.00  0.00    +0.050 A 
ATOM      4  C   UNL     1      -1.093  -1.948  -1.087  0.00  0.00    +0.122 A 
ATOM      5  C   UNL     1      -0.899  -2.685   0.070  0.00  0.00    +0.020 A 
ATOM      6  C   UNL     1      -0.640  -2.038   1.272  0.00  0.00    +0.145 A 
ATOM      7  C   UNL     1      -0.573  -0.635   1.286  0.00  0.00    +0.071 A 
ATOM      8  C   UNL     1      -0.280  -0.247   2.678  0.00  0.00    +0.232 C 
ATOM      9  O   UNL     1      -0.145   0.878   3.126  0.00  0.00    -0.283 OA
ATOM     10  C   UNL     1      -0.188  -1.522   3.404  0.00  0.00    +0.176 C 
ATOM     11  C   UNL     1       0.070  -1.674   4.729  0.00  0.00    +0.061 C 
ATOM     12  O   UNL     1      -0.419  -2.517   2.515  0.00  0.00    -0.451 OA
ENDROOT
BRANCH  11  13
ATOM     13  C   UNL     1      -0.017  -3.002   5.345  0.00  0.00    +0.020 A 
ATOM     14  C   UNL     1      -0.010  -4.152   4.546  0.00  0.00    +0.011 A 
ATOM     15  C   UNL     1      -0.092  -5.396   5.133  0.00  0.00    +0.001 A 
ATOM     16  C   UNL     1      -0.181  -5.515   6.511  0.00  0.00    +0.004 A 
ATOM     17  C   UNL     1      -0.190  -4.390   7.312  0.00  0.00    +0.046 A 
ATOM     18  C   UNL     1      -0.102  -3.130   6.742  0.00  0.00    +0.127 A 
BRANCH  18  19
ATOM     19  O   UNL     1      -0.105  -2.024   7.528  0.00  0.00    -0.495 OA
ATOM     20  C   UNL     1      -0.194  -2.232   8.939  0.00  0.00    +0.277 C 
ENDBRANCH  18  19
ENDBRANCH  11  13
BRANCH   4  21
ATOM     21  O   UNL     1      -1.347  -2.586  -2.257  0.00  0.00    -0.506 OA
ATOM     22  H   UNL     1      -0.553  -2.807  -2.765  0.00  0.00    +0.292 HD
ENDBRANCH   4  21
BRANCH   5  23
ATOM     23  C   UNL     1      -0.971  -4.190   0.025  0.00  0.00    -0.035 C 
BRANCH  23  24
ATOM     24  N   UNL     1       0.364  -4.735  -0.253  0.00  0.00    +0.384 N 
ATOM     25  C   UNL     1       1.264  -4.420   0.864  0.00  0.00    -0.063 C 
ATOM     26  C   UNL     1       2.660  -4.972   0.566  0.00  0.00    +0.066 C 
ATOM     27  N   UNL     1       2.579  -6.427   0.376  0.00  0.00    -0.302 NA
ATOM     28  C   UNL     1       1.662  -6.759  -0.724  0.00  0.00    +0.066 C 
ATOM     29  C   UNL     1       0.274  -6.192  -0.416  0.00  0.00    -0.063 C 
ATOM     30  H   UNL     1       0.725  -4.324  -1.101  0.00  0.00    -0.081 HD
BRANCH  27  31
ATOM     31  C   UNL     1       3.910  -7.003   0.143  0.00  0.00    +0.119 C 
BRANCH  31  32
ATOM     32  C   UNL     1       3.823  -8.507   0.197  0.00  0.00    -0.030 A 
ATOM     33  C   UNL     1       3.996  -9.165   1.400  0.00  0.00    +0.009 A 
ATOM     34  C   UNL     1       3.917 -10.544   1.455  0.00  0.00    +0.050 A 
ATOM     35  C   UNL     1       3.664 -11.270   0.302  0.00  0.00    +0.166 A 
ATOM     36  C   UNL     1       3.489 -10.607  -0.910  0.00  0.00    +0.167 A 
ATOM     37  C   UNL     1       3.564  -9.224  -0.956  0.00  0.00    +0.054 A 
ATOM     38  O   UNL     1       3.255 -11.534  -1.885  0.00  0.00    -0.453 OA
ATOM     39  C   UNL     1       3.693 -12.790  -1.333  0.00  0.00    +0.466 C 
ATOM     40  O   UNL     1       3.539 -12.612   0.087  0.00  0.00    -0.453 OA
ENDBRANCH  31  32
ENDBRANCH  27  31
ENDBRANCH  23  24
ENDBRANCH   5  23
TORSDOF 7
