REMARK  Name = ZINC20436441
REMARK  4 active torsions:
REMARK  status: ('A' for Active; 'I' for Inactive)
REMARK    1  A    between atoms: C_3  and  N_20
REMARK    2  A    between atoms: C_6  and  C_7
REMARK    3  A    between atoms: N_9  and  C_10
REMARK    4  A    between atoms: C_21  and  C_23
REMARK                            x       y       z     vdW  Elec       q    Type
REMARK                         _______ _______ _______ _____ _____    ______ ____
ROOT
ATOM      1  C   UNL     1       1.208  -0.684  -0.029  0.00  0.00    +0.015 A 
ATOM      2  C   UNL     1       1.228  -2.060  -0.024  0.00  0.00    +0.024 A 
ATOM      3  C   UNL     1       0.035  -2.775  -0.020  0.00  0.00    +0.033 A 
ATOM      4  C   UNL     1      -1.183  -2.102  -0.016  0.00  0.00    +0.024 A 
ATOM      5  C   UNL     1      -1.210  -0.725  -0.015  0.00  0.00    +0.015 A 
ATOM      6  C   UNL     1      -0.013  -0.004  -0.019  0.00  0.00    +0.037 A 
ENDROOT
BRANCH   6   7
ATOM      7  C   UNL     1      -0.038   1.472  -0.019  0.00  0.00    +0.244 C 
ATOM      8  O   UNL     1      -1.102   2.061  -0.020  0.00  0.00    -0.270 OA
ATOM      9  N   UNL     1       1.117   2.165  -0.022  0.00  0.00    -0.306 N 
ATOM     10  H   UNL     1       2.079   1.632  -0.026  0.00  0.00    +0.150 HD
BRANCH   9  11
ATOM     11  C   UNL     1       1.092   3.630  -0.022  0.00  0.00    +0.036 C 
ATOM     12  C   UNL     1       0.366   4.127   1.230  0.00  0.00    +0.029 C 
ATOM     13  C   UNL     1       0.340   5.657   1.231  0.00  0.00    -0.008 C 
ATOM     14  C   UNL     1       1.773   6.192   1.226  0.00  0.00    +0.007 C 
ATOM     15  C   UNL     1       2.499   5.695  -0.026  0.00  0.00    -0.008 C 
ATOM     16  C   UNL     1       2.525   4.165  -0.026  0.00  0.00    +0.029 C 
ATOM     17  C   UNL     1       1.765   6.193  -1.272  0.00  0.00    +0.007 C 
ATOM     18  C   UNL     1       0.331   5.658  -1.268  0.00  0.00    -0.008 C 
ATOM     19  C   UNL     1      -0.394   6.155  -0.016  0.00  0.00    +0.007 C 
ATOM     20  C   UNL     1       0.358   4.128  -1.268  0.00  0.00    +0.029 C 
ENDBRANCH   9  11
ENDBRANCH   6   7
BRANCH   3  21
ATOM     21  N   UNL     1       0.059  -4.169  -0.021  0.00  0.00    -0.284 N 
ATOM     22  C   UNL     1      -0.882  -4.859   0.654  0.00  0.00    +0.238 C 
ATOM     23  O   UNL     1      -1.796  -4.272   1.192  0.00  0.00    -0.273 OA
ATOM     24  H   UNL     1       0.845  -4.705  -0.572  0.00  0.00    +0.155 HD
BRANCH  22  25
ATOM     25  C   UNL     1      -0.797  -6.362   0.740  0.00  0.00    +0.160 C 
ATOM     26  C   UNL     1      -1.359  -7.003  -0.548  0.00  0.00    +0.041 C 
ATOM     27  C   UNL     1      -2.834  -7.262  -0.151  0.00  0.00    +0.098 C 
ATOM     28  C   UNL     1      -2.800  -7.363   1.358  0.00  0.00    +0.214 C 
ATOM     29  O   UNL     1      -3.684  -7.832   2.042  0.00  0.00    -0.276 OA
ATOM     30  N   UNL     1      -1.647  -6.857   1.829  0.00  0.00    -0.304 N 
ATOM     31  H   UNL     1      -1.304  -6.783   2.872  0.00  0.00    +0.149 HD
ENDBRANCH  22  25
ENDBRANCH   3  21
TORSDOF 4
