REMARK  Name = ZINC35093121
REMARK  12 active torsions:
REMARK  status: ('A' for Active; 'I' for Inactive)
REMARK    1  A    between atoms: C_1  and  C_2
REMARK    2  A    between atoms: C_2  and  O_3
REMARK    3  A    between atoms: O_3  and  C_4
REMARK    4  A    between atoms: C_4  and  C_6
REMARK    5  A    between atoms: C_6  and  C_8
REMARK    6  A    between atoms: C_6  and  N_14
REMARK    7  A    between atoms: C_16  and  C_24
REMARK    8  A    between atoms: C_24  and  C_25
REMARK    9  A    between atoms: C_25  and  N_26
REMARK   10  A    between atoms: C_27  and  C_29
REMARK   11  A    between atoms: C_39  and  C_41
REMARK   12  A    between atoms: C_39  and  C_42
REMARK                            x       y       z     vdW  Elec       q    Type
REMARK                         _______ _______ _______ _____ _____    ______ ____
ROOT
ATOM      1  N   UNL     1       2.203  -3.961  -3.386  0.00  0.00    -0.313 N 
ATOM      2  C   UNL     1       1.529  -5.006  -4.160  0.00  0.00    +0.114 C 
ATOM      3  C   UNL     1       1.915  -6.327  -3.475  0.00  0.00    +0.040 C 
ATOM      4  C   UNL     1       2.808  -5.913  -2.328  0.00  0.00    -0.022 A 
ATOM      5  C   UNL     1       2.933  -4.532  -2.343  0.00  0.00    +0.034 A 
ATOM      6  C   UNL     1       3.722  -3.913  -1.371  0.00  0.00    +0.023 A 
ATOM      7  C   UNL     1       4.369  -4.667  -0.416  0.00  0.00    +0.002 A 
ATOM      8  C   UNL     1       4.241  -6.044  -0.412  0.00  0.00    +0.000 A 
ATOM      9  C   UNL     1       3.454  -6.664  -1.365  0.00  0.00    +0.006 A 
ENDROOT
BRANCH   1  10
ATOM     10  C   UNL     1       2.126  -2.525  -3.669  0.00  0.00    +0.213 C 
BRANCH  10  11
ATOM     11  C   UNL     1       0.686  -2.083  -3.635  0.00  0.00    -0.016 A 
ATOM     12  C   UNL     1      -0.262  -2.759  -4.380  0.00  0.00    +0.006 A 
ATOM     13  C   UNL     1      -1.583  -2.353  -4.349  0.00  0.00    +0.000 A 
ATOM     14  C   UNL     1      -1.956  -1.271  -3.574  0.00  0.00    +0.000 A 
ATOM     15  C   UNL     1      -1.008  -0.596  -2.829  0.00  0.00    +0.000 A 
ATOM     16  C   UNL     1       0.312  -1.004  -2.856  0.00  0.00    +0.006 A 
ENDBRANCH  10  11
BRANCH  10  17
ATOM     17  C   UNL     1       2.705  -2.251  -5.033  0.00  0.00    +0.332 C 
ATOM     18  O   UNL     1       3.136  -3.160  -5.700  0.00  0.00    -0.248 OA
BRANCH  17  19
ATOM     19  O   UNL     1       2.740  -0.995  -5.507  0.00  0.00    -0.463 OA
BRANCH  19  21
ATOM     20  C   UNL     1       3.256   0.677  -7.174  0.00  0.00    +0.048 C 
ATOM     21  C   UNL     1       3.302  -0.808  -6.807  0.00  0.00    +0.229 C 
ENDBRANCH  19  21
ENDBRANCH  17  19
ENDBRANCH  10  17
ENDBRANCH   1  10
BRANCH   3  22
ATOM     22  C   UNL     1       0.668  -7.043  -2.953  0.00  0.00    +0.028 C 
BRANCH  22  23
ATOM     23  C   UNL     1       1.062  -8.409  -2.389  0.00  0.00    +0.105 C 
BRANCH  23  24
ATOM     24  N   UNL     1      -0.132  -9.094  -1.889  0.00  0.00    -0.315 N 
ATOM     25  C   UNL     1      -0.026 -10.322  -1.343  0.00  0.00    +0.220 C 
ATOM     26  O   UNL     1       1.058 -10.859  -1.265  0.00  0.00    -0.275 OA
ATOM     27  H   UNL     1      -1.000  -8.664  -1.951  0.00  0.00    +0.149 HD
BRANCH  25  28
ATOM     28  C   UNL     1      -1.255 -11.026  -0.829  0.00  0.00    +0.129 C 
ATOM     29  C   UNL     1      -0.879 -12.075   0.251  0.00  0.00    +0.137 C 
ATOM     30  C   UNL     1      -1.780 -13.248  -0.124  0.00  0.00    +0.308 C 
ATOM     31  O   UNL     1      -2.356 -14.003   0.623  0.00  0.00    -0.251 OA
ATOM     32  O   UNL     1      -1.794 -13.257  -1.480  0.00  0.00    -0.457 OA
ATOM     33  C   UNL     1      -1.891 -11.895  -1.932  0.00  0.00    +0.130 C 
ATOM     34  C   UNL     1      -3.354 -11.501  -2.123  0.00  0.00    +0.077 C 
ATOM     35  C   UNL     1      -3.950 -12.320  -3.272  0.00  0.00    +0.164 C 
ATOM     36  O   UNL     1      -3.175 -12.110  -4.454  0.00  0.00    -0.374 OA
ATOM     37  C   UNL     1      -1.812 -12.524  -4.343  0.00  0.00    +0.068 C 
ATOM     38  C   UNL     1      -1.124 -11.714  -3.240  0.00  0.00    +0.083 C 
ATOM     39  C   UNL     1      -1.096 -12.287  -5.674  0.00  0.00    +0.041 C 
ATOM     40  C   UNL     1      -1.758 -14.013  -3.992  0.00  0.00    +0.041 C 
ENDBRANCH  25  28
ENDBRANCH  23  24
ENDBRANCH  22  23
ENDBRANCH   3  22
TORSDOF 9
