REMARK  Name = ZINC17136032
REMARK  5 active torsions:
REMARK  status: ('A' for Active; 'I' for Inactive)
REMARK    1  A    between atoms: C_1  and  C_2
REMARK    2  A    between atoms: C_7  and  N_8
REMARK    3  A    between atoms: N_13  and  C_26
REMARK    4  A    between atoms: N_18  and  C_19
REMARK    5  A    between atoms: C_19  and  C_20
REMARK                            x       y       z     vdW  Elec       q    Type
REMARK                         _______ _______ _______ _____ _____    ______ ____
ROOT
ATOM      1  N   UNL     1      -1.176  -0.727   0.009  0.00  0.00    -0.299 N 
ATOM      2  C   UNL     1       0.002  -0.005   0.008  0.00  0.00    +0.139 A 
ATOM      3  C   UNL     1       1.250  -0.660   0.014  0.00  0.00    +0.079 A 
ATOM      4  C   UNL     1       1.659  -2.012   0.021  0.00  0.00    +0.148 A 
ATOM      5  N   UNL     1       2.961  -2.049   0.024  0.00  0.00    -0.177 NA
ATOM      6  N   UNL     1       3.470  -0.744   0.019  0.00  0.00    -0.249 N 
ATOM      7  C   UNL     1       2.419   0.124   0.012  0.00  0.00    +0.165 A 
ATOM      8  N   UNL     1       2.304   1.451   0.006  0.00  0.00    -0.195 NA
ATOM      9  C   UNL     1       1.113   2.024   0.001  0.00  0.00    +0.219 A 
ATOM     10  N   UNL     1      -0.015   1.323   0.002  0.00  0.00    -0.199 NA
ATOM     11  N   UNL     1       1.038   3.406  -0.006  0.00  0.00    -0.309 N 
ATOM     12  C   UNL     1       4.888  -0.376   0.020  0.00  0.00    +0.174 C 
ATOM     13  H   UNL     1      -1.153  -1.693  -0.074  0.00  0.00    +0.154 HD
ATOM     14  H   UNL     1       1.850   3.936  -0.007  0.00  0.00    +0.149 HD
ENDROOT
BRANCH   1  21
ATOM     15  C   UNL     1      -3.500  -2.006  -1.019  0.00  0.00    +0.045 C 
ATOM     16  C   UNL     1      -3.561  -0.653  -0.359  0.00  0.00    -0.029 A 
ATOM     17  C   UNL     1      -4.770   0.004  -0.239  0.00  0.00    +0.005 A 
ATOM     18  C   UNL     1      -4.827   1.245   0.368  0.00  0.00    +0.000 A 
ATOM     19  C   UNL     1      -3.674   1.833   0.856  0.00  0.00    +0.002 A 
ATOM     20  C   UNL     1      -2.463   1.180   0.743  0.00  0.00    +0.023 A 
ATOM     21  C   UNL     1      -2.401  -0.065   0.129  0.00  0.00    +0.035 A 
ENDBRANCH   1  21
BRANCH  11  22
ATOM     22  C   UNL     1      -0.269   4.069  -0.012  0.00  0.00    +0.139 C 
BRANCH  22  23
ATOM     23  C   UNL     1      -0.074   5.563  -0.018  0.00  0.00    -0.030 A 
ATOM     24  C   UNL     1       0.007   6.255   1.176  0.00  0.00    +0.005 A 
ATOM     25  C   UNL     1       0.191   7.625   1.170  0.00  0.00    +0.000 A 
ATOM     26  C   UNL     1       0.283   8.305  -0.031  0.00  0.00    +0.000 A 
ATOM     27  C   UNL     1       0.196   7.614  -1.225  0.00  0.00    +0.000 A 
ATOM     28  C   UNL     1       0.018   6.243  -1.218  0.00  0.00    +0.005 A 
ENDBRANCH  22  23
ENDBRANCH  11  22
TORSDOF 3
