REMARK  Name = ZINC36366607
REMARK  2 active torsions:
REMARK  status: ('A' for Active; 'I' for Inactive)
REMARK    1  A    between atoms: C_9  and  N_14
REMARK    2  A    between atoms: C_11  and  O_13
REMARK                            x       y       z     vdW  Elec       q    Type
REMARK                         _______ _______ _______ _____ _____    ______ ____
ROOT
ATOM      1  C   UNL     1       4.501   2.381   0.970  0.00  0.00    +0.000 A 
ATOM      2  C   UNL     1       5.795   1.982   0.686  0.00  0.00    +0.002 A 
ATOM      3  C   UNL     1       6.047   0.674   0.357  0.00  0.00    +0.028 A 
ATOM      4  C   UNL     1       5.010  -0.283   0.302  0.00  0.00    +0.071 A 
ATOM      5  C   UNL     1       3.719   0.125   0.598  0.00  0.00    -0.022 A 
ATOM      6  C   UNL     1       3.480   1.458   0.924  0.00  0.00    +0.006 A 
ATOM      7  C   UNL     1       2.522  -0.772   0.611  0.00  0.00    +0.040 C 
ATOM      8  C   UNL     1       2.526  -1.865  -0.413  0.00  0.00    +0.039 C 
ATOM      9  C   UNL     1       3.449  -3.006  -0.061  0.00  0.00    +0.177 C 
ATOM     10  C   UNL     1       4.879  -2.646  -0.250  0.00  0.00    +0.211 C 
ATOM     11  N   UNL     1       5.400  -1.523  -0.047  0.00  0.00    -0.215 NA
ENDROOT
BRANCH   9  12
ATOM     12  N   UNL     1       3.234  -3.378   1.339  0.00  0.00    -0.287 N 
ATOM     13  C   UNL     1       3.621  -2.530   2.328  0.00  0.00    +0.203 A 
ATOM     14  N   UNL     1       3.465  -2.787   3.591  0.00  0.00    -0.237 NA
ATOM     15  C   UNL     1       2.895  -3.942   4.016  0.00  0.00    +0.078 A 
ATOM     16  C   UNL     1       2.727  -4.220   5.374  0.00  0.00    +0.028 A 
ATOM     17  C   UNL     1       2.143  -5.405   5.761  0.00  0.00    +0.002 A 
ATOM     18  C   UNL     1       1.717  -6.330   4.816  0.00  0.00    +0.001 A 
ATOM     19  C   UNL     1       1.872  -6.079   3.471  0.00  0.00    +0.015 A 
ATOM     20  C   UNL     1       2.461  -4.885   3.058  0.00  0.00    +0.065 A 
ATOM     21  C   UNL     1       2.647  -4.561   1.636  0.00  0.00    +0.262 A 
ATOM     22  O   UNL     1       2.292  -5.328   0.760  0.00  0.00    -0.267 OA
ENDBRANCH   9  12
BRANCH  10  23
ATOM     23  O   UNL     1       5.699  -3.626  -0.682  0.00  0.00    -0.494 OA
ATOM     24  H   UNL     1       6.619  -3.349  -0.791  0.00  0.00    +0.293 HD
ENDBRANCH  10  23
TORSDOF 2
