REMARK  Name = ZINC06193549
REMARK  7 active torsions:
REMARK  status: ('A' for Active; 'I' for Inactive)
REMARK    1  A    between atoms: C_1  and  C_2
REMARK    2  A    between atoms: C_4  and  C_38
REMARK    3  A    between atoms: C_7  and  C_14
REMARK    4  A    between atoms: C_14  and  C_16
REMARK    5  A    between atoms: C_14  and  N_69
REMARK    6  A    between atoms: N_20  and  C_21
REMARK    7  A    between atoms: N_28  and  C_31
REMARK                            x       y       z     vdW  Elec       q    Type
REMARK                         _______ _______ _______ _____ _____    ______ ____
ROOT
ATOM      1  C   UNL     1       4.873   4.287  -0.021  0.00  0.00    +0.039 C 
ENDROOT
BRANCH   1   8
ATOM      2  C   UNL     1      -0.876  -1.216   0.517  0.00  0.00    +0.044 C 
ATOM      3  C   UNL     1       0.358  -0.357   0.418  0.00  0.00    -0.048 A 
ATOM      4  C   UNL     1       1.611  -0.955   0.394  0.00  0.00    +0.007 A 
ATOM      5  C   UNL     1       2.743  -0.194   0.305  0.00  0.00    -0.041 A 
ATOM      6  C   UNL     1       2.638   1.199   0.237  0.00  0.00    +0.002 A 
ATOM      7  C   UNL     1       3.830   2.044   0.140  0.00  0.00    +0.018 A 
ATOM      8  C   UNL     1       3.667   3.389   0.078  0.00  0.00    +0.011 A 
ATOM      9  C   UNL     1       2.373   3.950   0.105  0.00  0.00    +0.251 A 
ATOM     10  O   UNL     1       2.249   5.161   0.047  0.00  0.00    -0.268 OA
ATOM     11  N   UNL     1       1.272   3.182   0.193  0.00  0.00    -0.322 N 
ATOM     12  H   UNL     1       0.398   3.601   0.210  0.00  0.00    +0.169 HD
ATOM     13  C   UNL     1       1.370   1.809   0.261  0.00  0.00    +0.050 A 
ATOM     14  C   UNL     1       0.232   1.014   0.352  0.00  0.00    +0.029 A 
ATOM     15  C   UNL     1       4.097  -0.854   0.280  0.00  0.00    +0.044 C 
ENDBRANCH   1   8
BRANCH   1  21
ATOM     16  C   UNL     1       5.949   6.232   0.940  0.00  0.00    -0.058 C 
ATOM     17  C   UNL     1       5.816   7.310   2.018  0.00  0.00    +0.086 C 
ATOM     18  N   UNL     1       5.786   6.674   3.342  0.00  0.00    -0.331 N 
ATOM     19  C   UNL     1       4.659   5.737   3.448  0.00  0.00    +0.086 C 
ATOM     20  C   UNL     1       4.792   4.659   2.370  0.00  0.00    -0.058 C 
ATOM     21  N   UNL     1       4.798   5.310   1.043  0.00  0.00    +0.391 N 
ATOM     22  H   UNL     1       3.930   5.846   0.930  0.00  0.00    -0.080 HD
BRANCH  18  23
ATOM     23  C   UNL     1       5.737   7.634   4.358  0.00  0.00    +0.065 A 
ATOM     24  C   UNL     1       5.777   7.241   5.689  0.00  0.00    +0.026 A 
ATOM     25  C   UNL     1       5.732   8.191   6.691  0.00  0.00    +0.002 A 
ATOM     26  C   UNL     1       5.639   9.533   6.370  0.00  0.00    +0.003 A 
ATOM     27  C   UNL     1       5.594   9.929   5.046  0.00  0.00    +0.040 A 
ATOM     28  C   UNL     1       5.643   8.984   4.038  0.00  0.00    +0.144 A 
ATOM     29  F   UNL     1       5.598   9.371   2.744  0.00  0.00    -0.204 F 
ENDBRANCH  18  23
ENDBRANCH   1  21
BRANCH   1  30
ATOM     30  C   UNL     1       4.878   4.975  -1.362  0.00  0.00    +0.143 A 
ATOM     31  N   UNL     1       4.108   5.967  -1.736  0.00  0.00    -0.115 NA
ATOM     32  N   UNL     1       4.417   6.276  -2.948  0.00  0.00    -0.023 NA
ATOM     33  N   UNL     1       5.359   5.502  -3.360  0.00  0.00    -0.044 NA
ATOM     34  N   UNL     1       5.672   4.686  -2.411  0.00  0.00    -0.227 N 
BRANCH  34  35
ATOM     35  C   UNL     1       6.697   3.641  -2.464  0.00  0.00    +0.111 C 
ATOM     36  C   UNL     1       8.069   4.263  -2.796  0.00  0.00    +0.027 C 
ATOM     37  C   UNL     1       8.748   3.216  -3.715  0.00  0.00    +0.002 C 
ATOM     38  C   UNL     1       7.568   2.700  -4.576  0.00  0.00    +0.002 C 
ATOM     39  C   UNL     1       6.379   2.647  -3.595  0.00  0.00    +0.027 C 
ENDBRANCH  34  35
ENDBRANCH   1  30
TORSDOF 5
