REMARK  Name = ZINC34835332
REMARK  20 active torsions:
REMARK  status: ('A' for Active; 'I' for Inactive)
REMARK    1  A    between atoms: C_1  and  C_2
REMARK    2  A    between atoms: C_2  and  C_3
REMARK    3  A    between atoms: C_3  and  C_4
REMARK    4  A    between atoms: C_4  and  C_5
REMARK    5  A    between atoms: C_5  and  C_7
REMARK    6  A    between atoms: C_5  and  C_9
REMARK    7  A    between atoms: C_7  and  C_8
REMARK    8  A    between atoms: N_11  and  C_12
REMARK    9  A    between atoms: N_11  and  C_36
REMARK   10  A    between atoms: C_12  and  C_13
REMARK   11  A    between atoms: C_14  and  C_34
REMARK   12  A    between atoms: N_16  and  C_27
REMARK   13  A    between atoms: C_17  and  N_18
REMARK   14  A    between atoms: N_21  and  C_24
REMARK   15  A    between atoms: C_24  and  C_25
REMARK   16  A    between atoms: C_24  and  C_26
REMARK   17  A    between atoms: C_34  and  C_35
REMARK   18  A    between atoms: C_36  and  C_37
REMARK   19  A    between atoms: C_37  and  C_38
REMARK   20  A    between atoms: C_37  and  C_39
REMARK                            x       y       z     vdW  Elec       q    Type
REMARK                         _______ _______ _______ _____ _____    ______ ____
ROOT
ATOM      1  C   UNL     1      -2.826  -7.358   0.242  0.00  0.00    +0.033 A 
ATOM      2  C   UNL     1      -2.702  -7.291   1.632  0.00  0.00    +0.070 A 
ATOM      3  N   UNL     1      -3.574  -8.107   2.167  0.00  0.00    -0.169 NA
ATOM      4  N   UNL     1      -4.289  -8.728   1.135  0.00  0.00    -0.218 N 
ATOM      5  C   UNL     1      -3.816  -8.248  -0.047  0.00  0.00    +0.130 A 
ENDROOT
BRANCH   5   6
ATOM      6  N   UNL     1      -4.260  -8.603  -1.317  0.00  0.00    -0.318 N 
ATOM      7  C   UNL     1      -3.662  -9.737  -2.038  0.00  0.00    +0.088 C 
ATOM      8  C   UNL     1      -4.790 -10.648  -2.532  0.00  0.00    -0.059 C 
ATOM      9  N   UNL     1      -5.742  -9.860  -3.325  0.00  0.00    +0.383 N 
ATOM     10  C   UNL     1      -6.391  -8.855  -2.474  0.00  0.00    -0.059 C 
ATOM     11  C   UNL     1      -5.346  -7.858  -1.975  0.00  0.00    +0.088 C 
ATOM     12  H   UNL     1      -5.251  -9.398  -4.076  0.00  0.00    -0.081 HD
BRANCH   9  13
ATOM     13  C   UNL     1      -6.763 -10.753  -3.890  0.00  0.00    -0.075 C 
ATOM     14  C   UNL     1      -7.756  -9.934  -4.717  0.00  0.00    -0.014 C 
ATOM     15  C   UNL     1      -6.090 -11.795  -4.786  0.00  0.00    -0.014 C 
ENDBRANCH   9  13
ENDBRANCH   5   6
BRANCH   4  16
ATOM     16  C   UNL     1      -5.314  -9.672   1.292  0.00  0.00    +0.068 A 
ATOM     17  C   UNL     1      -6.506  -9.526   0.596  0.00  0.00    +0.030 A 
ATOM     18  C   UNL     1      -7.515 -10.457   0.752  0.00  0.00    +0.040 A 
ATOM     19  C   UNL     1      -7.337 -11.535   1.603  0.00  0.00    +0.124 A 
ATOM     20  C   UNL     1      -6.149 -11.682   2.299  0.00  0.00    +0.040 A 
ATOM     21  C   UNL     1      -5.136 -10.757   2.140  0.00  0.00    +0.030 A 
ATOM     22  F   UNL     1      -8.325 -12.444   1.755  0.00  0.00    -0.205 F 
ENDBRANCH   4  16
BRANCH   2  23
ATOM     23  C   UNL     1      -1.727  -6.425   2.388  0.00  0.00    +0.054 C 
ATOM     24  C   UNL     1      -2.458  -5.202   2.946  0.00  0.00    +0.010 C 
ENDBRANCH   2  23
BRANCH   1  25
ATOM     25  C   UNL     1      -2.013  -6.579  -0.761  0.00  0.00    +0.148 C 
BRANCH  25  28
ATOM     26  C   UNL     1      -2.404  -4.230  -0.248  0.00  0.00    +0.219 C 
ATOM     27  O   UNL     1      -1.616  -4.329   0.668  0.00  0.00    -0.275 OA
ATOM     28  N   UNL     1      -2.667  -5.296  -1.028  0.00  0.00    -0.297 N 
BRANCH  26  29
ATOM     29  C   UNL     1      -3.090  -2.914  -0.513  0.00  0.00    +0.075 C 
BRANCH  29  30
ATOM     30  C   UNL     1      -2.147  -1.996  -1.293  0.00  0.00    +0.009 C 
ATOM     31  C   UNL     1      -1.956  -2.546  -2.708  0.00  0.00    +0.004 C 
ENDBRANCH  29  30
BRANCH  29  32
ATOM     32  C   UNL     1      -3.459  -2.254   0.817  0.00  0.00    +0.013 C 
BRANCH  32  33
ATOM     33  C   UNL     1      -4.264  -0.981   0.549  0.00  0.00    +0.000 C 
BRANCH  33  35
ATOM     34  C   UNL     1      -5.438   0.952   1.610  0.00  0.00    +0.004 C 
ATOM     35  C   UNL     1      -4.633  -0.321   1.879  0.00  0.00    -0.003 C 
ENDBRANCH  33  35
ENDBRANCH  32  33
ENDBRANCH  29  32
ENDBRANCH  26  29
BRANCH  28  36
ATOM     36  C   UNL     1      -3.608  -5.172  -2.145  0.00  0.00    +0.111 C 
BRANCH  36  37
ATOM     37  C   UNL     1      -3.051  -5.910  -3.365  0.00  0.00    +0.000 C 
ATOM     38  C   UNL     1      -4.003  -5.728  -4.549  0.00  0.00    +0.009 C 
ATOM     39  C   UNL     1      -1.677  -5.340  -3.722  0.00  0.00    +0.009 C 
ENDBRANCH  36  37
ENDBRANCH  28  36
ENDBRANCH  25  28
ENDBRANCH   1  25
TORSDOF 13
