REMARK  Name = ZINC08791035
REMARK  10 active torsions:
REMARK  status: ('A' for Active; 'I' for Inactive)
REMARK    1  A    between atoms: C_1  and  C_2
REMARK    2  A    between atoms: C_16  and  C_18
REMARK    3  A    between atoms: C_18  and  C_19
REMARK    4  A    between atoms: N_24  and  C_27
REMARK    5  A    between atoms: C_27  and  C_28
REMARK    6  A    between atoms: C_28  and  C_29
REMARK    7  A    between atoms: C_32  and  O_37
REMARK    8  A    between atoms: C_33  and  O_35
REMARK    9  A    between atoms: O_35  and  C_36
REMARK   10  A    between atoms: O_37  and  C_38
REMARK                            x       y       z     vdW  Elec       q    Type
REMARK                         _______ _______ _______ _____ _____    ______ ____
ROOT
ATOM      1  C   UNL     1      -1.712   5.194   5.434  0.00  0.00    +0.045 C 
ATOM      2  C   UNL     1      -2.278   4.176   4.479  0.00  0.00    -0.029 A 
ATOM      3  C   UNL     1      -3.530   3.641   4.706  0.00  0.00    +0.005 A 
ATOM      4  C   UNL     1      -4.058   2.706   3.834  0.00  0.00    +0.001 A 
ATOM      5  C   UNL     1      -3.328   2.305   2.729  0.00  0.00    +0.004 A 
ATOM      6  C   UNL     1      -2.079   2.836   2.499  0.00  0.00    -0.027 A 
ATOM      7  C   UNL     1      -1.537   3.778   3.369  0.00  0.00    +0.039 A 
ATOM      8  N   UNL     1      -0.270   4.169   2.930  0.00  0.00    -0.286 N 
ATOM      9  C   UNL     1       0.091   3.539   1.795  0.00  0.00    +0.211 C 
ATOM     10  O   UNL     1       1.131   3.681   1.188  0.00  0.00    -0.277 OA
ATOM     11  C   UNL     1      -1.047   2.627   1.427  0.00  0.00    +0.050 C 
ATOM     12  C   UNL     1      -1.603   2.957   0.036  0.00  0.00    +0.088 C 
ATOM     13  C   UNL     1      -0.920   1.929  -0.912  0.00  0.00    +0.073 C 
ATOM     14  C   UNL     1      -0.013   1.086   0.008  0.00  0.00    -0.049 C 
ATOM     15  C   UNL     1      -2.076   1.077  -1.388  0.00  0.00    +0.224 C 
ATOM     16  O   UNL     1      -1.986   0.137  -2.148  0.00  0.00    -0.275 OA
ATOM     17  N   UNL     1      -3.214   1.522  -0.842  0.00  0.00    -0.241 N 
ATOM     18  C   UNL     1      -3.065   2.575  -0.029  0.00  0.00    +0.225 C 
ATOM     19  O   UNL     1      -3.962   3.135   0.563  0.00  0.00    -0.275 OA
ATOM     20  H   UNL     1       0.286   4.817   3.390  0.00  0.00    +0.155 HD
ATOM     21  N   UNL     1      -0.606   1.246   1.338  0.00  0.00    +0.394 N 
ATOM     22  H   UNL     1      -1.404   0.610   1.449  0.00  0.00    -0.083 HD
ATOM     23  H   UNL     1       0.093   1.048   2.064  0.00  0.00    -0.083 HD
ENDROOT
BRANCH  14  24
ATOM     24  C   UNL     1       1.415   1.637  -0.003  0.00  0.00    +0.080 C 
BRANCH  24  25
ATOM     25  C   UNL     1       2.217   0.932  -1.066  0.00  0.00    +0.209 C 
ATOM     26  O   UNL     1       1.698   0.074  -1.749  0.00  0.00    -0.276 OA
ATOM     27  N   UNL     1       3.511   1.256  -1.260  0.00  0.00    -0.329 N 
ATOM     28  H   UNL     1       3.926   1.942  -0.714  0.00  0.00    +0.145 HD
ATOM     29  H   UNL     1       4.027   0.803  -1.944  0.00  0.00    +0.145 HD
ENDBRANCH  24  25
ENDBRANCH  14  24
BRANCH  17  30
ATOM     30  C   UNL     1      -4.516   0.907  -1.111  0.00  0.00    +0.121 C 
BRANCH  30  31
ATOM     31  C   UNL     1      -5.158   1.584  -2.324  0.00  0.00    +0.054 C 
BRANCH  31  32
ATOM     32  C   UNL     1      -6.498   0.952  -2.602  0.00  0.00    -0.042 A 
ATOM     33  C   UNL     1      -6.585  -0.131  -3.456  0.00  0.00    +0.007 A 
ATOM     34  C   UNL     1      -7.811  -0.718  -3.710  0.00  0.00    +0.049 A 
ATOM     35  C   UNL     1      -8.957  -0.214  -3.115  0.00  0.00    +0.161 A 
ATOM     36  C   UNL     1      -8.869   0.879  -2.259  0.00  0.00    +0.162 A 
ATOM     37  C   UNL     1      -7.637   1.459  -2.005  0.00  0.00    +0.053 A 
BRANCH  36  38
ATOM     38  O   UNL     1      -9.991   1.377  -1.673  0.00  0.00    -0.491 OA
ATOM     39  C   UNL     1      -9.825   2.501  -0.805  0.00  0.00    +0.277 C 
ENDBRANCH  36  38
BRANCH  35  40
ATOM     40  O   UNL     1     -10.164  -0.788  -3.367  0.00  0.00    -0.491 OA
ATOM     41  C   UNL     1     -10.178  -1.907  -4.256  0.00  0.00    +0.277 C 
ENDBRANCH  35  40
ENDBRANCH  31  32
ENDBRANCH  30  31
ENDBRANCH  17  30
TORSDOF 7
