REMARK  Name = ZINC18524933
REMARK  10 active torsions:
REMARK  status: ('A' for Active; 'I' for Inactive)
REMARK    1  A    between atoms: C_5  and  O_7
REMARK    2  A    between atoms: O_7  and  C_8
REMARK    3  A    between atoms: C_8  and  C_9
REMARK    4  A    between atoms: C_12  and  S_15
REMARK    5  A    between atoms: N_13  and  N_14
REMARK    6  A    between atoms: S_15  and  C_16
REMARK    7  A    between atoms: C_16  and  C_17
REMARK    8  A    between atoms: N_19  and  C_20
REMARK    9  A    between atoms: C_20  and  C_22
REMARK   10  A    between atoms: C_20  and  C_29
REMARK                            x       y       z     vdW  Elec       q    Type
REMARK                         _______ _______ _______ _____ _____    ______ ____
ROOT
ATOM      1  S   UNL     1      -3.856   0.249  -3.285  0.00  0.00    -0.075 S 
ENDROOT
BRANCH   1   5
ATOM      2  C   UNL     1      -5.725   1.565  -6.446  0.00  0.00    +0.189 A 
ATOM      3  N   UNL     1      -4.794   2.460  -6.276  0.00  0.00    -0.128 NA
ATOM      4  N   UNL     1      -4.080   2.165  -5.249  0.00  0.00    -0.121 NA
ATOM      5  C   UNL     1      -4.516   1.051  -4.708  0.00  0.00    +0.209 A 
ATOM      6  N   UNL     1      -5.581   0.635  -5.454  0.00  0.00    -0.225 N 
BRANCH   6   7
ATOM      7  N   UNL     1      -6.345  -0.479  -5.250  0.00  0.00    -0.295 N 
ATOM      8  H   UNL     1      -7.127  -0.276  -4.646  0.00  0.00    +0.163 HD
ATOM      9  H   UNL     1      -6.658  -0.868  -6.127  0.00  0.00    +0.163 HD
ENDBRANCH   6   7
BRANCH   2  10
ATOM     10  C   UNL     1      -6.766   1.555  -7.535  0.00  0.00    +0.306 C 
BRANCH  10  11
ATOM     11  O   UNL     1      -7.925   2.264  -7.092  0.00  0.00    -0.481 OA
BRANCH  11  16
ATOM     12  C   UNL     1      -9.934   1.853 -10.098  0.00  0.00    +0.004 A 
ATOM     13  C   UNL     1     -11.086   2.525  -9.734  0.00  0.00    +0.003 A 
ATOM     14  C   UNL     1     -11.182   3.111  -8.485  0.00  0.00    +0.042 A 
ATOM     15  C   UNL     1     -10.124   3.025  -7.597  0.00  0.00    +0.165 A 
ATOM     16  C   UNL     1      -8.966   2.350  -7.962  0.00  0.00    +0.156 A 
ATOM     17  C   UNL     1      -8.873   1.769  -9.217  0.00  0.00    +0.048 A 
ATOM     18  F   UNL     1     -10.217   3.598  -6.377  0.00  0.00    -0.202 F 
ENDBRANCH  11  16
ENDBRANCH  10  11
ENDBRANCH   2  10
ENDBRANCH   1   5
BRANCH   1  19
ATOM     19  C   UNL     1      -2.502   1.382  -2.885  0.00  0.00    +0.173 C 
BRANCH  19  20
ATOM     20  C   UNL     1      -1.773   0.883  -1.664  0.00  0.00    +0.224 C 
ATOM     21  O   UNL     1      -2.134  -0.139  -1.118  0.00  0.00    -0.275 OA
ATOM     22  N   UNL     1      -0.721   1.571  -1.179  0.00  0.00    -0.303 N 
ATOM     23  H   UNL     1      -0.433   2.388  -1.615  0.00  0.00    +0.150 HD
BRANCH  22  24
ATOM     24  C   UNL     1      -0.013   1.086   0.008  0.00  0.00    +0.140 C 
BRANCH  24  25
ATOM     25  C   UNL     1       1.401   1.607  -0.003  0.00  0.00    -0.022 A 
ATOM     26  C   UNL     1       1.656   2.903  -0.413  0.00  0.00    +0.008 A 
ATOM     27  C   UNL     1       2.952   3.384  -0.419  0.00  0.00    +0.038 A 
ATOM     28  C   UNL     1       3.996   2.564  -0.023  0.00  0.00    +0.123 A 
ATOM     29  C   UNL     1       3.739   1.266   0.383  0.00  0.00    +0.038 A 
ATOM     30  C   UNL     1       2.442   0.789   0.393  0.00  0.00    +0.008 A 
ATOM     31  F   UNL     1       5.263   3.032  -0.033  0.00  0.00    -0.205 F 
ENDBRANCH  24  25
BRANCH  24  32
ATOM     32  C   UNL     1      -0.718   1.572   1.248  0.00  0.00    +0.014 A 
ATOM     33  C   UNL     1      -0.954   0.914   2.409  0.00  0.00    +0.013 A 
ATOM     34  C   UNL     1      -1.627   1.566   3.425  0.00  0.00    +0.008 A 
ATOM     35  C   UNL     1      -2.033   2.845   3.229  0.00  0.00    +0.045 A 
ATOM     36  S   UNL     1      -1.454   3.166   1.571  0.00  0.00    -0.099 S 
ENDBRANCH  24  32
ENDBRANCH  22  24
ENDBRANCH  19  20
ENDBRANCH   1  19
TORSDOF 10
