REMARK  Name = ZINC09554132
REMARK  9 active torsions:
REMARK  status: ('A' for Active; 'I' for Inactive)
REMARK    1  A    between atoms: C_4  and  C_7
REMARK    2  A    between atoms: C_7  and  C_8
REMARK    3  A    between atoms: C_7  and  C_14
REMARK    4  A    between atoms: N_16  and  C_17
REMARK    5  A    between atoms: C_20  and  S_23
REMARK    6  A    between atoms: S_23  and  N_26
REMARK    7  A    between atoms: N_26  and  C_27
REMARK    8  A    between atoms: C_30  and  S_33
REMARK    9  A    between atoms: S_33  and  N_36
REMARK                            x       y       z     vdW  Elec       q    Type
REMARK                         _______ _______ _______ _____ _____    ______ ____
ROOT
ATOM      1  C   UNL     1       3.536   4.760   0.198  0.00  0.00    +0.034 A 
ATOM      2  C   UNL     1       2.763   4.183  -0.800  0.00  0.00    +0.025 A 
ATOM      3  C   UNL     1       1.503   3.700  -0.504  0.00  0.00    +0.030 A 
ATOM      4  C   UNL     1       1.012   3.792   0.786  0.00  0.00    +0.109 A 
ATOM      5  C   UNL     1       1.778   4.371   1.781  0.00  0.00    +0.030 A 
ATOM      6  C   UNL     1       3.040   4.851   1.492  0.00  0.00    +0.025 A 
ENDROOT
BRANCH   1   9
ATOM      7  C   UNL     1       5.063   5.790  -1.309  0.00  0.00    +0.229 C 
ATOM      8  O   UNL     1       4.161   5.937  -2.105  0.00  0.00    -0.274 OA
ATOM      9  N   UNL     1       4.813   5.250  -0.100  0.00  0.00    -0.285 N 
ATOM     10  H   UNL     1       5.518   5.200   0.565  0.00  0.00    +0.155 HD
BRANCH   7  11
ATOM     11  C   UNL     1       6.464   6.210  -1.671  0.00  0.00    +0.135 C 
BRANCH  11  15
ATOM     12  C   UNL     1       6.489   7.822  -5.627  0.00  0.00    +0.000 A 
ATOM     13  C   UNL     1       7.264   6.717  -5.326  0.00  0.00    +0.000 A 
ATOM     14  C   UNL     1       7.256   6.196  -4.046  0.00  0.00    +0.005 A 
ATOM     15  C   UNL     1       6.473   6.779  -3.067  0.00  0.00    -0.031 A 
ATOM     16  C   UNL     1       5.694   7.879  -3.369  0.00  0.00    +0.005 A 
ATOM     17  C   UNL     1       5.705   8.404  -4.648  0.00  0.00    +0.000 A 
ENDBRANCH  11  15
BRANCH  11  18
ATOM     18  C   UNL     1       6.942   7.258  -0.699  0.00  0.00    -0.031 A 
ATOM     19  C   UNL     1       6.129   8.330  -0.384  0.00  0.00    +0.005 A 
ATOM     20  C   UNL     1       6.565   9.289   0.511  0.00  0.00    +0.000 A 
ATOM     21  C   UNL     1       7.818   9.180   1.085  0.00  0.00    +0.000 A 
ATOM     22  C   UNL     1       8.633   8.110   0.766  0.00  0.00    +0.000 A 
ATOM     23  C   UNL     1       8.195   7.149  -0.126  0.00  0.00    +0.005 A 
ENDBRANCH  11  18
ENDBRANCH   7  11
ENDBRANCH   1   9
BRANCH   4  24
ATOM     24  S   UNL     1      -0.595   3.175   1.160  0.00  0.00    +0.072 S 
ATOM     25  O   UNL     1      -1.292   3.079  -0.075  0.00  0.00    -0.150 OA
ATOM     26  O   UNL     1      -1.081   3.944   2.251  0.00  0.00    -0.150 OA
BRANCH  24  27
ATOM     27  N   UNL     1      -0.408   1.627   1.719  0.00  0.00    -0.216 N 
ATOM     28  H   UNL     1      -0.788   0.884   1.224  0.00  0.00    +0.174 HD
BRANCH  27  29
ATOM     29  C   UNL     1       0.297   1.392   2.901  0.00  0.00    +0.048 A 
ATOM     30  C   UNL     1       1.574   0.849   2.854  0.00  0.00    +0.026 A 
ATOM     31  C   UNL     1       2.270   0.622   4.025  0.00  0.00    +0.030 A 
ATOM     32  C   UNL     1       1.692   0.925   5.244  0.00  0.00    +0.105 A 
ATOM     33  C   UNL     1       0.419   1.460   5.295  0.00  0.00    +0.030 A 
ATOM     34  C   UNL     1      -0.281   1.695   4.128  0.00  0.00    +0.026 A 
BRANCH  32  35
ATOM     35  S   UNL     1       2.582   0.628   6.736  0.00  0.00    +0.056 S 
ATOM     36  O   UNL     1       3.961   0.632   6.395  0.00  0.00    -0.153 OA
ATOM     37  O   UNL     1       2.037   1.503   7.715  0.00  0.00    -0.153 OA
BRANCH  35  38
ATOM     38  N   UNL     1       2.219  -0.912   7.224  0.00  0.00    -0.204 NA
ATOM     39  H   UNL     1       1.612  -1.457   6.699  0.00  0.00    +0.144 HD
ATOM     40  H   UNL     1       2.613  -1.270   8.035  0.00  0.00    +0.144 HD
ENDBRANCH  35  38
ENDBRANCH  32  35
ENDBRANCH  27  29
ENDBRANCH  24  27
ENDBRANCH   4  24
TORSDOF 9
