REMARK  Name = ZINC43641481
REMARK  7 active torsions:
REMARK  status: ('A' for Active; 'I' for Inactive)
REMARK    1  A    between atoms: C_2  and  C_11
REMARK    2  A    between atoms: C_11  and  N_12
REMARK    3  A    between atoms: N_12  and  C_13
REMARK    4  A    between atoms: C_13  and  C_14
REMARK    5  A    between atoms: C_14  and  C_15
REMARK    6  A    between atoms: N_21  and  C_22
REMARK    7  A    between atoms: C_22  and  C_23
REMARK                            x       y       z     vdW  Elec       q    Type
REMARK                         _______ _______ _______ _____ _____    ______ ____
ROOT
ATOM      1  C   UNL     1       1.782   7.578   2.656  0.00  0.00    +0.075 C 
ATOM      2  C   UNL     1       2.157   8.229   4.006  0.00  0.00    +0.031 C 
ATOM      3  C   UNL     1       2.874   9.520   3.546  0.00  0.00    +0.098 C 
ATOM      4  C   UNL     1       3.382   9.188   2.160  0.00  0.00    +0.216 C 
ATOM      5  O   UNL     1       4.229   9.816   1.562  0.00  0.00    -0.276 OA
ATOM      6  N   UNL     1       2.756   8.094   1.687  0.00  0.00    -0.298 N 
ENDROOT
BRANCH   1   7
ATOM      7  C   UNL     1       1.889   6.055   2.755  0.00  0.00    +0.003 C 
BRANCH   7   8
ATOM      8  C   UNL     1       0.797   5.527   3.686  0.00  0.00    -0.080 C 
BRANCH   8   9
ATOM      9  N   UNL     1       0.823   4.058   3.688  0.00  0.00    +0.382 N 
ATOM     10  H   UNL     1       1.724   3.738   4.010  0.00  0.00    -0.085 HD
ATOM     11  H   UNL     1       0.660   3.718   2.752  0.00  0.00    -0.085 HD
BRANCH   9  12
ATOM     12  C   UNL     1      -0.226   3.550   4.582  0.00  0.00    -0.045 C 
BRANCH  12  14
ATOM     13  C   UNL     1       0.323   1.363   5.668  0.00  0.00    +0.052 A 
ATOM     14  C   UNL     1      -0.200   2.043   4.583  0.00  0.00    -0.042 A 
ATOM     15  C   UNL     1      -0.698   1.343   3.499  0.00  0.00    +0.046 A 
ATOM     16  C   UNL     1      -0.675  -0.040   3.496  0.00  0.00    +0.069 A 
ATOM     17  C   UNL     1      -0.153  -0.727   4.580  0.00  0.00    +0.168 A 
ATOM     18  C   UNL     1       0.348  -0.021   5.672  0.00  0.00    +0.167 A 
ATOM     19  O   UNL     1       0.800  -0.916   6.599  0.00  0.00    -0.453 OA
ATOM     20  C   UNL     1       0.199  -2.175   6.243  0.00  0.00    +0.466 C 
ATOM     21  O   UNL     1      -0.015  -2.063   4.824  0.00  0.00    -0.453 OA
ATOM     22 CL   UNL     1      -1.353   2.202   2.140  0.00  0.00    -0.083 Cl
ENDBRANCH  12  14
ENDBRANCH   9  12
ENDBRANCH   8   9
ENDBRANCH   7   8
ENDBRANCH   1   7
BRANCH   6  23
ATOM     23  C   UNL     1       3.015   7.494   0.376  0.00  0.00    +0.110 C 
BRANCH  23  24
ATOM     24  C   UNL     1       2.183   8.215  -0.687  0.00  0.00    -0.007 C 
ATOM     25  C   UNL     1       0.696   7.979  -0.416  0.00  0.00    +0.002 C 
ATOM     26  C   UNL     1      -0.118   8.654  -1.525  0.00  0.00    -0.018 C 
ATOM     27  C   UNL     1       0.314   8.079  -2.874  0.00  0.00    -0.078 C 
ATOM     28  N   UNL     1       1.743   8.340  -3.102  0.00  0.00    +0.382 N 
ATOM     29  C   UNL     1       2.548   7.673  -2.073  0.00  0.00    -0.064 C 
ATOM     30  C   UNL     1       4.037   7.946  -2.315  0.00  0.00    -0.015 C 
ATOM     31  C   UNL     1       4.438   7.438  -3.700  0.00  0.00    -0.003 C 
ATOM     32  C   UNL     1       3.556   8.124  -4.749  0.00  0.00    -0.019 C 
ATOM     33  C   UNL     1       2.093   7.824  -4.434  0.00  0.00    -0.078 C 
ATOM     34  H   UNL     1       1.913   9.334  -3.071  0.00  0.00    -0.081 HD
ENDBRANCH  23  24
ENDBRANCH   6  23
TORSDOF 7
