REMARK  Name = ZINC54402852
REMARK  9 active torsions:
REMARK  status: ('A' for Active; 'I' for Inactive)
REMARK    1  A    between atoms: C_1  and  C_2
REMARK    2  A    between atoms: C_2  and  C_3
REMARK    3  A    between atoms: C_3  and  C_4
REMARK    4  A    between atoms: C_3  and  C_5
REMARK    5  A    between atoms: C_3  and  C_6
REMARK    6  A    between atoms: C_6  and  C_8
REMARK    7  A    between atoms: C_6  and  N_19
REMARK    8  A    between atoms: N_19  and  C_20
REMARK    9  A    between atoms: C_20  and  C_21
REMARK                            x       y       z     vdW  Elec       q    Type
REMARK                         _______ _______ _______ _____ _____    ______ ____
ROOT
ATOM      1  C   UNL     1      -2.826  -2.585   0.015  0.00  0.00    -0.042 A 
ATOM      2  C   UNL     1      -3.432  -2.924   1.213  0.00  0.00    +0.009 A 
ATOM      3  C   UNL     1      -4.723  -3.401   1.219  0.00  0.00    -0.017 A 
ATOM      4  C   UNL     1      -5.434  -3.547   0.033  0.00  0.00    +0.038 A 
ATOM      5  C   UNL     1      -4.819  -3.204  -1.169  0.00  0.00    +0.043 A 
ATOM      6  C   UNL     1      -3.525  -2.721  -1.172  0.00  0.00    +0.044 A 
ATOM      7 CL   UNL     1      -2.768  -2.289  -2.673  0.00  0.00    -0.083 Cl
ATOM      8  N   UNL     1      -6.712  -4.043   0.295  0.00  0.00    -0.285 N 
ATOM      9  C   UNL     1      -6.920  -4.246   1.607  0.00  0.00    +0.222 C 
ATOM     10  O   UNL     1      -7.935  -4.669   2.118  0.00  0.00    -0.275 OA
ATOM     11  C   UNL     1      -5.649  -3.848   2.327  0.00  0.00    +0.133 C 
ATOM     12  H   UNL     1      -7.374  -4.219  -0.391  0.00  0.00    +0.155 HD
ENDROOT
BRANCH   1  13
ATOM     13  C   UNL     1      -1.413  -2.063   0.004  0.00  0.00    -0.034 C 
BRANCH  13  14
ATOM     14  C   UNL     1      -1.433  -0.534   0.013  0.00  0.00    -0.044 C 
ATOM     15  C   UNL     1      -2.149  -0.040   1.272  0.00  0.00    +0.009 C 
ATOM     16  C   UNL     1      -2.173  -0.027  -1.227  0.00  0.00    +0.009 C 
BRANCH  14  18
ATOM     17  C   UNL     1      -0.019   1.526   0.010  0.00  0.00    +0.004 C 
ATOM     18  C   UNL     1       0.002  -0.004   0.002  0.00  0.00    +0.002 C 
ENDBRANCH  14  18
ENDBRANCH  13  14
BRANCH  13  19
ATOM     19  N   UNL     1      -0.702  -2.550   1.195  0.00  0.00    +0.384 N 
ATOM     20  H   UNL     1       0.217  -2.135   1.230  0.00  0.00    -0.085 HD
ATOM     21  H   UNL     1      -1.219  -2.295   2.023  0.00  0.00    -0.085 HD
BRANCH  19  22
ATOM     22  C   UNL     1      -0.577  -4.012   1.127  0.00  0.00    -0.085 C 
ATOM     23  C   UNL     1       0.163  -4.519   2.366  0.00  0.00    -0.017 C 
ENDBRANCH  19  22
ENDBRANCH  13  19
ENDBRANCH   1  13
TORSDOF 5
