REMARK  Name = ZINC27526381
REMARK  4 active torsions:
REMARK  status: ('A' for Active; 'I' for Inactive)
REMARK    1  A    between atoms: C_3  and  O_25
REMARK    2  A    between atoms: C_6  and  C_7
REMARK    3  A    between atoms: C_14  and  C_17
REMARK    4  A    between atoms: C_14  and  O_24
REMARK                            x       y       z     vdW  Elec       q    Type
REMARK                         _______ _______ _______ _____ _____    ______ ____
ROOT
ATOM      1  C   UNL     1       2.119   1.229   3.624  0.00  0.00    +0.157 A 
ATOM      2  C   UNL     1       3.396   0.506   3.492  0.00  0.00    +0.300 A 
ATOM      3  O   UNL     1       4.038   0.181   4.479  0.00  0.00    -0.263 OA
ATOM      4  N   UNL     1       3.831   0.215   2.263  0.00  0.00    -0.182 NA
ATOM      5  C   UNL     1       3.142   0.563   1.196  0.00  0.00    +0.192 A 
ATOM      6  N   UNL     1       1.959   1.230   1.255  0.00  0.00    -0.204 N 
ATOM      7  N   UNL     1       1.461   1.559   2.547  0.00  0.00    -0.161 NA
ATOM      8  C   UNL     1       1.286   1.562  -0.002  0.00  0.00    +0.197 C 
ATOM      9  C   UNL     1       2.028   1.098  -1.263  0.00  0.00    +0.142 C 
ATOM     10  S   UNL     1       3.501   0.297  -0.528  0.00  0.00    -0.081 S 
ENDROOT
BRANCH   8  11
ATOM     11  C   UNL     1       1.119   3.058  -0.069  0.00  0.00    +0.007 A 
ATOM     12  C   UNL     1       2.069   3.886   0.498  0.00  0.00    +0.010 A 
ATOM     13  C   UNL     1       1.919   5.258   0.432  0.00  0.00    +0.020 A 
ATOM     14  C   UNL     1       0.812   5.803  -0.194  0.00  0.00    +0.041 A 
ATOM     15  C   UNL     1      -0.142   4.974  -0.757  0.00  0.00    +0.020 A 
ATOM     16  C   UNL     1       0.012   3.602  -0.694  0.00  0.00    +0.010 A 
ATOM     17 CL   UNL     1       0.619   7.527  -0.272  0.00  0.00    -0.084 Cl
ENDBRANCH   8  11
BRANCH   1  23
ATOM     18  C   UNL     1       0.897   2.773   5.152  0.00  0.00    +0.014 A 
ATOM     19  C   UNL     1       0.400   3.091   6.398  0.00  0.00    +0.046 A 
ATOM     20  C   UNL     1       0.598   2.227   7.467  0.00  0.00    +0.117 A 
ATOM     21  C   UNL     1       1.291   1.038   7.284  0.00  0.00    +0.046 A 
ATOM     22  C   UNL     1       1.786   0.711   6.039  0.00  0.00    +0.014 A 
ATOM     23  C   UNL     1       1.589   1.577   4.963  0.00  0.00    +0.008 A 
BRANCH  20  24
ATOM     24  O   UNL     1       0.112   2.546   8.695  0.00  0.00    -0.507 OA
ATOM     25  H   UNL     1       0.268   1.862   9.543  0.00  0.00    +0.292 HD
ENDBRANCH  20  24
ENDBRANCH   1  23
BRANCH   8  26
ATOM     26  O   UNL     1      -0.011   0.963   0.007  0.00  0.00    -0.364 OA
ATOM     27  H   UNL     1      -0.683   1.093  -0.854  0.00  0.00    +0.213 HD
ENDBRANCH   8  26
TORSDOF 4
