REMARK  Name = ZINC21232511
REMARK  12 active torsions:
REMARK  status: ('A' for Active; 'I' for Inactive)
REMARK    1  A    between atoms: C_1  and  C_2
REMARK    2  A    between atoms: C_2  and  C_3
REMARK    3  A    between atoms: C_2  and  O_4
REMARK    4  A    between atoms: O_4  and  C_5
REMARK    5  A    between atoms: C_8  and  C_11
REMARK    6  A    between atoms: C_16  and  C_26
REMARK    7  A    between atoms: C_30  and  O_36
REMARK    8  A    between atoms: C_31  and  O_32
REMARK    9  A    between atoms: O_32  and  C_33
REMARK   10  A    between atoms: C_33  and  C_34
REMARK   11  A    between atoms: C_33  and  C_35
REMARK   12  A    between atoms: O_36  and  C_37
REMARK                            x       y       z     vdW  Elec       q    Type
REMARK                         _______ _______ _______ _____ _____    ______ ____
ROOT
ATOM      1  C   UNL     1      -5.636   5.742   1.161  0.00  0.00    +0.032 C 
ATOM      2  C   UNL     1      -4.378   6.573   1.411  0.00  0.00    +0.059 C 
ATOM      3  C   UNL     1      -4.724   8.052   1.395  0.00  0.00    +0.017 C 
ATOM      4  C   UNL     1      -5.709   8.514   0.606  0.00  0.00    +0.037 C 
ATOM      5  C   UNL     1      -6.152   9.953   0.491  0.00  0.00    +0.140 C 
ATOM      6  N   UNL     1      -5.260  10.908   1.114  0.00  0.00    -0.331 N 
ATOM      7  C   UNL     1      -5.056  10.908   2.493  0.00  0.00    +0.049 A 
ATOM      8  C   UNL     1      -5.505  11.948   3.289  0.00  0.00    +0.025 A 
ATOM      9  C   UNL     1      -5.382  11.854   4.665  0.00  0.00    +0.002 A 
ATOM     10  C   UNL     1      -4.816  10.731   5.241  0.00  0.00    +0.002 A 
ATOM     11  C   UNL     1      -4.347   9.699   4.446  0.00  0.00    +0.025 A 
ATOM     12  C   UNL     1      -4.453   9.800   3.070  0.00  0.00    +0.052 A 
ATOM     13  N   UNL     1      -3.962   8.824   2.212  0.00  0.00    -0.316 N 
ATOM     14  C   UNL     1      -6.447   7.622  -0.207  0.00  0.00    +0.163 C 
ATOM     15  O   UNL     1      -7.316   8.069  -0.929  0.00  0.00    -0.292 OA
ATOM     16  C   UNL     1      -6.196   6.143  -0.209  0.00  0.00    +0.088 C 
ATOM     17  H   UNL     1      -4.730  11.648   0.497  0.00  0.00    +0.147 HD
ATOM     18  H   UNL     1      -2.869   8.698   2.225  0.00  0.00    +0.152 HD
ENDROOT
BRANCH   1  22
ATOM     19  C   UNL     1      -4.647   1.584   1.158  0.00  0.00    +0.121 A 
ATOM     20  C   UNL     1      -4.053   2.441   0.242  0.00  0.00    +0.046 A 
ATOM     21  C   UNL     1      -4.378   3.783   0.242  0.00  0.00    +0.007 A 
ATOM     22  C   UNL     1      -5.287   4.276   1.160  0.00  0.00    -0.043 A 
ATOM     23  C   UNL     1      -5.876   3.425   2.077  0.00  0.00    +0.007 A 
ATOM     24  C   UNL     1      -5.558   2.081   2.078  0.00  0.00    +0.046 A 
BRANCH  19  25
ATOM     25  O   UNL     1      -4.332   0.262   1.157  0.00  0.00    -0.489 OA
BRANCH  25  27
ATOM     26  C   UNL     1      -4.039  -1.802   2.380  0.00  0.00    +0.051 C 
ATOM     27  C   UNL     1      -4.882  -0.536   2.207  0.00  0.00    +0.167 C 
ATOM     28  C   UNL     1      -6.319  -0.925   1.853  0.00  0.00    +0.051 C 
ENDBRANCH  25  27
ENDBRANCH  19  25
ENDBRANCH   1  22
BRANCH   5  29
ATOM     29  C   UNL     1      -7.511  10.084   1.129  0.00  0.00    +0.023 A 
ATOM     30  C   UNL     1      -7.937   9.143   2.048  0.00  0.00    +0.009 A 
ATOM     31  C   UNL     1      -9.183   9.260   2.635  0.00  0.00    +0.004 A 
ATOM     32  C   UNL     1     -10.009  10.319   2.306  0.00  0.00    +0.049 A 
ATOM     33  C   UNL     1      -9.588  11.265   1.386  0.00  0.00    +0.162 A 
ATOM     34  C   UNL     1      -8.331  11.150   0.799  0.00  0.00    +0.168 A 
BRANCH  33  35
ATOM     35  O   UNL     1     -10.399  12.308   1.061  0.00  0.00    -0.491 OA
ATOM     36  C   UNL     1     -11.672  12.365   1.708  0.00  0.00    +0.277 C 
ENDBRANCH  33  35
BRANCH  34  37
ATOM     37  O   UNL     1      -7.912  12.080  -0.101  0.00  0.00    -0.485 OA
BRANCH  37  38
ATOM     38  C   UNL     1      -8.542  12.072  -1.384  0.00  0.00    +0.168 C 
ATOM     39  C   UNL     1      -8.776  13.512  -1.845  0.00  0.00    +0.051 C 
ATOM     40  C   UNL     1      -7.642  11.353  -2.390  0.00  0.00    +0.051 C 
ENDBRANCH  37  38
ENDBRANCH  34  37
ENDBRANCH   5  29
TORSDOF 7
