REMARK  Name = ZINC41717280
REMARK  5 active torsions:
REMARK  status: ('A' for Active; 'I' for Inactive)
REMARK    1  A    between atoms: C_1  and  C_2
REMARK    2  A    between atoms: N_6  and  C_7
REMARK    3  A    between atoms: C_7  and  C_8
REMARK    4  A    between atoms: C_11  and  N_14
REMARK    5  A    between atoms: C_20  and  O_22
REMARK                            x       y       z     vdW  Elec       q    Type
REMARK                         _______ _______ _______ _____ _____    ______ ____
ROOT
ATOM      1  C   UNL     1      -0.018   1.503   0.010  0.00  0.00    +0.063 C 
ATOM      2  C   UNL     1       0.002  -0.004   0.002  0.00  0.00    +0.017 A 
ATOM      3  C   UNL     1       0.008  -0.789  -1.097  0.00  0.00    +0.029 A 
ATOM      4  C   UNL     1       0.029  -2.121  -0.657  0.00  0.00    +0.002 A 
ATOM      5  C   UNL     1       0.034  -2.105   0.695  0.00  0.00    +0.025 A 
ATOM      6  N   UNL     1       0.024  -0.810   1.104  0.00  0.00    -0.343 N 
ATOM      7  C   UNL     1       0.051  -3.346   1.554  0.00  0.00    +0.054 C 
ATOM      8  C   UNL     1      -0.353  -4.542   0.684  0.00  0.00    +0.009 C 
ATOM      9  C   UNL     1       0.480  -4.545  -0.601  0.00  0.00    +0.036 C 
ATOM     10  C   UNL     1       0.047  -3.375  -1.493  0.00  0.00    +0.146 C 
ENDROOT
BRANCH  10  11
ATOM     11  O   UNL     1       0.973  -3.223  -2.571  0.00  0.00    -0.387 OA
ATOM     12  H   UNL     1       1.033  -3.995  -3.150  0.00  0.00    +0.210 HD
ENDBRANCH  10  11
BRANCH   6  13
ATOM     13  C   UNL     1       0.031  -0.353   2.496  0.00  0.00    +0.156 C 
BRANCH  13  14
ATOM     14  C   UNL     1      -1.388  -0.217   2.987  0.00  0.00    -0.028 A 
ATOM     15  C   UNL     1      -2.059   0.982   2.834  0.00  0.00    +0.007 A 
ATOM     16  C   UNL     1      -3.360   1.107   3.285  0.00  0.00    +0.033 A 
ATOM     17  C   UNL     1      -3.990   0.034   3.888  0.00  0.00    +0.126 A 
ATOM     18  C   UNL     1      -3.318  -1.165   4.040  0.00  0.00    +0.033 A 
ATOM     19  C   UNL     1      -2.019  -1.291   3.585  0.00  0.00    +0.007 A 
BRANCH  17  20
ATOM     20  N   UNL     1      -5.382   0.169   4.371  0.00  0.00    +0.056 N 
ATOM     21  O   UNL     1      -5.969   1.217   4.238  0.00  0.00    -0.126 OA
ATOM     22  O   UNL     1      -5.933  -0.770   4.898  0.00  0.00    -0.126 OA
ENDBRANCH  17  20
ENDBRANCH  13  14
ENDBRANCH   6  13
TORSDOF 4
