REMARK  Name = ZINC09716366
REMARK  8 active torsions:
REMARK  status: ('A' for Active; 'I' for Inactive)
REMARK    1  A    between atoms: C_9  and  S_11
REMARK    2  A    between atoms: S_11  and  C_12
REMARK    3  A    between atoms: C_12  and  C_13
REMARK    4  A    between atoms: C_16  and  C_19
REMARK    5  A    between atoms: N_21  and  N_22
REMARK    6  A    between atoms: C_23  and  C_25
REMARK    7  A    between atoms: C_25  and  O_26
REMARK    8  A    between atoms: O_26  and  C_27
REMARK                            x       y       z     vdW  Elec       q    Type
REMARK                         _______ _______ _______ _____ _____    ______ ____
ROOT
ATOM      1  C   UNL     1       2.329  10.773   0.037  0.00  0.00    -0.037 A 
ATOM      2  C   UNL     1       3.616  10.265   0.022  0.00  0.00    +0.005 A 
ATOM      3  C   UNL     1       3.822   8.901   0.013  0.00  0.00    +0.013 A 
ATOM      4  C   UNL     1       2.729   8.033   0.019  0.00  0.00    +0.038 A 
ATOM      5  C   UNL     1       1.434   8.552   0.029  0.00  0.00    +0.013 A 
ATOM      6  C   UNL     1       1.242   9.918   0.043  0.00  0.00    +0.005 A 
ENDROOT
BRANCH   4   7
ATOM      7  C   UNL     1       2.943   6.570   0.009  0.00  0.00    +0.260 C 
ATOM      8  O   UNL     1       4.072   6.120  -0.004  0.00  0.00    -0.269 OA
ATOM      9  N   UNL     1       1.885   5.734   0.015  0.00  0.00    -0.230 N 
ATOM     10  H   UNL     1       0.984   6.093   0.025  0.00  0.00    +0.173 HD
BRANCH   9  11
ATOM     11  N   UNL     1       2.088   4.348   0.005  0.00  0.00    -0.231 N 
ATOM     12  C   UNL     1       1.030   3.513   0.011  0.00  0.00    +0.267 C 
ATOM     13  O   UNL     1      -0.097   3.961   0.024  0.00  0.00    -0.271 OA
ATOM     14  H   UNL     1       2.989   3.990  -0.005  0.00  0.00    +0.173 HD
BRANCH  12  15
ATOM     15  C   UNL     1       1.248   2.021   0.001  0.00  0.00    +0.326 C 
BRANCH  15  16
ATOM     16  O   UNL     1      -0.016   1.355   0.009  0.00  0.00    -0.480 OA
BRANCH  16  17
ATOM     17  C   UNL     1       0.002  -0.004   0.002  0.00  0.00    +0.156 A 
ATOM     18  C   UNL     1       1.211  -0.682  -0.019  0.00  0.00    +0.048 A 
ATOM     19  C   UNL     1       1.228  -2.064  -0.022  0.00  0.00    +0.004 A 
ATOM     20  C   UNL     1       0.040  -2.772  -0.015  0.00  0.00    +0.003 A 
ATOM     21  C   UNL     1      -1.168  -2.099   0.002  0.00  0.00    +0.042 A 
ATOM     22  C   UNL     1      -1.190  -0.716   0.010  0.00  0.00    +0.165 A 
ATOM     23  F   UNL     1      -2.371  -0.059   0.024  0.00  0.00    -0.202 F 
ENDBRANCH  16  17
ENDBRANCH  15  16
ENDBRANCH  12  15
ENDBRANCH   9  11
ENDBRANCH   4   7
BRANCH   1  24
ATOM     24  C   UNL     1       2.112  12.264   0.047  0.00  0.00    +0.112 C 
BRANCH  24  25
ATOM     25  S   UNL     1       2.008  12.869  -1.656  0.00  0.00    -0.083 S 
BRANCH  25  34
ATOM     26  C   UNL     1       1.105  19.077  -1.199  0.00  0.00    +0.002 A 
ATOM     27  C   UNL     1       1.155  18.810   0.161  0.00  0.00    +0.002 A 
ATOM     28  C   UNL     1       1.348  17.525   0.614  0.00  0.00    +0.030 A 
ATOM     29  C   UNL     1       1.493  16.480  -0.303  0.00  0.00    +0.090 A 
ATOM     30  C   UNL     1       1.440  16.756  -1.679  0.00  0.00    +0.067 A 
ATOM     31  C   UNL     1       1.246  18.057  -2.117  0.00  0.00    +0.028 A 
ATOM     32  N   UNL     1       1.612  15.541  -2.322  0.00  0.00    -0.333 N 
ATOM     33  H   UNL     1       1.625  15.390  -3.311  0.00  0.00    +0.168 HD
ATOM     34  C   UNL     1       1.760  14.588  -1.355  0.00  0.00    +0.168 A 
ATOM     35  N   UNL     1       1.684  15.141  -0.170  0.00  0.00    -0.222 NA
ENDBRANCH  25  34
ENDBRANCH  24  25
ENDBRANCH   1  24
TORSDOF 8
