REMARK  Name = ZINC20918152
REMARK  12 active torsions:
REMARK  status: ('A' for Active; 'I' for Inactive)
REMARK    1  A    between atoms: C_1  and  C_2
REMARK    2  A    between atoms: C_5  and  C_8
REMARK    3  A    between atoms: N_9  and  N_10
REMARK    4  A    between atoms: C_14  and  S_17
REMARK    5  A    between atoms: N_15  and  N_16
REMARK    6  A    between atoms: S_17  and  C_18
REMARK    7  A    between atoms: C_18  and  C_19
REMARK    8  A    between atoms: C_19  and  C_20
REMARK    9  A    between atoms: N_22  and  C_23
REMARK   10  A    between atoms: C_24  and  C_32
REMARK   11  A    between atoms: C_32  and  O_34
REMARK   12  A    between atoms: O_34  and  C_35
REMARK                            x       y       z     vdW  Elec       q    Type
REMARK                         _______ _______ _______ _____ _____    ______ ____
ROOT
ATOM      1  S   UNL     1       1.770  -3.508  -0.033  0.00  0.00    -0.084 S 
ENDROOT
BRANCH   1   6
ATOM      2  N   UNL     1      -0.017   1.383   0.010  0.00  0.00    -0.204 N 
ATOM      3  C   UNL     1       0.002  -0.004   0.002  0.00  0.00    +0.254 A 
ATOM      4  N   UNL     1      -1.048  -0.789   0.014  0.00  0.00    -0.109 NA
ATOM      5  N   UNL     1      -0.597  -2.115  -0.003  0.00  0.00    -0.119 NA
ATOM      6  C   UNL     1       0.715  -2.097  -0.015  0.00  0.00    +0.210 A 
ATOM      7  N   UNL     1       1.119  -0.793  -0.013  0.00  0.00    -0.211 N 
ATOM      8  H   UNL     1       0.928   1.946   0.008  0.00  0.00    +0.177 HD
BRANCH   7   9
ATOM      9  N   UNL     1       2.412  -0.353  -0.023  0.00  0.00    -0.294 N 
ATOM     10  H   UNL     1       3.240  -1.077  -0.035  0.00  0.00    +0.163 HD
ATOM     11  H   UNL     1       2.626   0.726  -0.020  0.00  0.00    +0.163 HD
ENDBRANCH   7   9
BRANCH   2  13
ATOM     12  C   UNL     1      -1.257   3.366   0.026  0.00  0.00    +0.138 C 
ATOM     13  N   UNL     1      -1.239   2.067   0.019  0.00  0.00    -0.188 NA
BRANCH  12  18
ATOM     14  C   UNL     1      -6.276   6.173   0.066  0.00  0.00    +0.044 C 
ATOM     15  C   UNL     1      -4.961   5.438   0.055  0.00  0.00    -0.050 A 
ATOM     16  C   UNL     1      -3.774   6.149   0.053  0.00  0.00    +0.004 A 
ATOM     17  C   UNL     1      -2.567   5.482   0.044  0.00  0.00    +0.010 A 
ATOM     18  C   UNL     1      -2.544   4.085   0.036  0.00  0.00    -0.005 A 
ATOM     19  C   UNL     1      -3.746   3.374   0.032  0.00  0.00    +0.010 A 
ATOM     20  C   UNL     1      -4.946   4.054   0.047  0.00  0.00    +0.004 A 
ENDBRANCH  12  18
ENDBRANCH   2  13
ENDBRANCH   1   6
BRANCH   1  21
ATOM     21  C   UNL     1       0.623  -4.914  -0.029  0.00  0.00    +0.086 C 
BRANCH  21  22
ATOM     22  C   UNL     1       1.418  -6.221  -0.043  0.00  0.00    +0.107 C 
BRANCH  22  23
ATOM     23  C   UNL     1       0.466  -7.389  -0.039  0.00  0.00    +0.218 C 
ATOM     24  O   UNL     1      -0.732  -7.194  -0.027  0.00  0.00    -0.275 OA
ATOM     25  N   UNL     1       0.944  -8.649  -0.050  0.00  0.00    -0.279 N 
ATOM     26  H   UNL     1       2.030  -8.825  -0.061  0.00  0.00    +0.155 HD
BRANCH  25  27
ATOM     27  C   UNL     1       0.068  -9.723  -0.047  0.00  0.00    +0.086 A 
ATOM     28  C   UNL     1       0.365 -11.079  -0.062  0.00  0.00    +0.091 A 
ATOM     29  C   UNL     1      -0.751 -12.011  -0.050  0.00  0.00    -0.021 A 
ATOM     30  C   UNL     1      -1.975 -11.441  -0.037  0.00  0.00    -0.004 A 
ATOM     31  S   UNL     1      -1.665  -9.698  -0.031  0.00  0.00    -0.077 S 
ATOM     32  C   UNL     1      -3.298 -12.144  -0.029  0.00  0.00    +0.043 C 
ATOM     33  C   UNL     1      -3.068 -13.612  -0.417  0.00  0.00    +0.005 C 
ATOM     34  C   UNL     1      -1.900 -14.163   0.407  0.00  0.00    +0.005 C 
ATOM     35  C   UNL     1      -0.590 -13.526  -0.059  0.00  0.00    +0.037 C 
BRANCH  28  36
ATOM     36  C   UNL     1       1.750 -11.553  -0.085  0.00  0.00    +0.342 C 
ATOM     37  O   UNL     1       2.340 -11.759   0.958  0.00  0.00    -0.245 OA
BRANCH  36  38
ATOM     38  O   UNL     1       2.372 -11.761  -1.264  0.00  0.00    -0.464 OA
ATOM     39  C   UNL     1       3.745 -12.231  -1.211  0.00  0.00    +0.280 C 
ENDBRANCH  36  38
ENDBRANCH  28  36
ENDBRANCH  25  27
ENDBRANCH  22  23
ENDBRANCH  21  22
ENDBRANCH   1  21
TORSDOF 10
