REMARK  Name = ZINC21123008
REMARK  8 active torsions:
REMARK  status: ('A' for Active; 'I' for Inactive)
REMARK    1  A    between atoms: C_1  and  C_2
REMARK    2  A    between atoms: C_2  and  C_4
REMARK    3  A    between atoms: C_2  and  S_17
REMARK    4  A    between atoms: N_6  and  C_7
REMARK    5  A    between atoms: C_10  and  S_13
REMARK    6  A    between atoms: S_13  and  N_16
REMARK    7  A    between atoms: S_17  and  C_18
REMARK    8  A    between atoms: C_20  and  C_27
REMARK                            x       y       z     vdW  Elec       q    Type
REMARK                         _______ _______ _______ _____ _____    ______ ____
ROOT
ATOM      1  C   UNL     1       2.339  -4.894   1.240  0.00  0.00    +0.029 C 
ATOM      2  C   UNL     1       2.472  -4.256  -0.144  0.00  0.00    +0.136 C 
ENDROOT
BRANCH   2   3
ATOM      3  C   UNL     1       2.459  -2.755  -0.009  0.00  0.00    +0.230 C 
ATOM      4  O   UNL     1       3.501  -2.134  -0.036  0.00  0.00    -0.274 OA
ATOM      5  N   UNL     1       1.290  -2.102   0.142  0.00  0.00    -0.285 N 
ATOM      6  H   UNL     1       0.352  -2.669   0.245  0.00  0.00    +0.155 HD
BRANCH   5   7
ATOM      7  C   UNL     1       1.268  -0.703   0.170  0.00  0.00    +0.034 A 
ATOM      8  C   UNL     1       0.199  -0.013  -0.388  0.00  0.00    +0.025 A 
ATOM      9  C   UNL     1       0.180   1.367  -0.359  0.00  0.00    +0.030 A 
ATOM     10  C   UNL     1       1.224   2.063   0.224  0.00  0.00    +0.105 A 
ATOM     11  C   UNL     1       2.289   1.379   0.780  0.00  0.00    +0.030 A 
ATOM     12  C   UNL     1       2.314  -0.002   0.755  0.00  0.00    +0.025 A 
BRANCH  10  13
ATOM     13  S   UNL     1       1.195   3.824   0.259  0.00  0.00    +0.056 S 
ATOM     14  O   UNL     1       2.546   4.250   0.374  0.00  0.00    -0.153 OA
ATOM     15  O   UNL     1       0.355   4.238  -0.810  0.00  0.00    -0.153 OA
BRANCH  13  16
ATOM     16  N   UNL     1       0.436   4.274   1.660  0.00  0.00    -0.204 NA
ATOM     17  H   UNL     1       0.398   5.372   1.720  0.00  0.00    +0.144 HD
ATOM     18  H   UNL     1       0.993   3.879   2.522  0.00  0.00    +0.144 HD
ENDBRANCH  13  16
ENDBRANCH  10  13
ENDBRANCH   5   7
ENDBRANCH   2   3
BRANCH   2  19
ATOM     19  S   UNL     1       4.030  -4.780  -0.903  0.00  0.00    -0.093 S 
BRANCH  19  20
ATOM     20  C   UNL     1       3.720  -6.505  -1.076  0.00  0.00    +0.110 A 
ATOM     21  C   UNL     1       4.704  -7.359  -1.647  0.00  0.00    +0.047 A 
ATOM     22  C   UNL     1       6.032  -7.037  -2.159  0.00  0.00    +0.001 A 
ATOM     23  C   UNL     1       6.795  -8.034  -2.662  0.00  0.00    +0.056 A 
ATOM     24  S   UNL     1       5.767  -9.479  -2.478  0.00  0.00    -0.076 S 
ATOM     25  C   UNL     1       4.347  -8.719  -1.736  0.00  0.00    +0.113 A 
ATOM     26  N   UNL     1       3.175  -9.152  -1.311  0.00  0.00    -0.228 NA
ATOM     27  C   UNL     1       2.302  -8.312  -0.788  0.00  0.00    +0.223 A 
ATOM     28  N   UNL     1       2.572  -7.024  -0.671  0.00  0.00    -0.228 NA
BRANCH  22  29
ATOM     29  C   UNL     1       6.535  -5.643  -2.126  0.00  0.00    -0.016 A 
ATOM     30  C   UNL     1       6.920  -5.011  -3.308  0.00  0.00    +0.011 A 
ATOM     31  C   UNL     1       7.383  -3.712  -3.274  0.00  0.00    +0.039 A 
ATOM     32  C   UNL     1       7.478  -3.039  -2.066  0.00  0.00    +0.123 A 
ATOM     33  C   UNL     1       7.102  -3.665  -0.889  0.00  0.00    +0.039 A 
ATOM     34  C   UNL     1       6.632  -4.962  -0.914  0.00  0.00    +0.011 A 
ATOM     35  F   UNL     1       7.938  -1.769  -2.037  0.00  0.00    -0.205 F 
ENDBRANCH  22  29
ENDBRANCH  19  20
ENDBRANCH   2  19
TORSDOF 7
