REMARK  Name = ZINC02107470
REMARK  10 active torsions:
REMARK  status: ('A' for Active; 'I' for Inactive)
REMARK    1  A    between atoms: C_1  and  O_2
REMARK    2  A    between atoms: O_2  and  C_3
REMARK    3  A    between atoms: C_5  and  C_13
REMARK    4  A    between atoms: C_7  and  O_11
REMARK    5  A    between atoms: C_8  and  O_9
REMARK    6  A    between atoms: O_9  and  C_10
REMARK    7  A    between atoms: O_11  and  C_12
REMARK    8  A    between atoms: N_32  and  C_35
REMARK    9  A    between atoms: C_35  and  C_36
REMARK   10  A    between atoms: C_36  and  C_37
REMARK                            x       y       z     vdW  Elec       q    Type
REMARK                         _______ _______ _______ _____ _____    ______ ____
ROOT
ATOM      1  C   UNL     1       0.296   9.941   1.270  0.00  0.00    +0.154 C 
ATOM      2  C   UNL     1       1.290  10.346   2.335  0.00  0.00    +0.046 A 
ATOM      3  C   UNL     1       2.234   9.516   2.829  0.00  0.00    -0.015 A 
ATOM      4  C   UNL     1       2.984  10.266   3.816  0.00  0.00    +0.003 A 
ATOM      5  C   UNL     1       4.063   9.933   4.640  0.00  0.00    +0.010 A 
ATOM      6  C   UNL     1       4.533  10.918   5.474  0.00  0.00    +0.001 A 
ATOM      7  C   UNL     1       3.973  12.184   5.506  0.00  0.00    +0.002 A 
ATOM      8  C   UNL     1       2.905  12.540   4.702  0.00  0.00    +0.026 A 
ATOM      9  C   UNL     1       2.406  11.562   3.845  0.00  0.00    +0.047 A 
ATOM     10  N   UNL     1       1.386  11.572   2.938  0.00  0.00    -0.356 N 
ATOM     11  H   UNL     1       0.814  12.332   2.750  0.00  0.00    +0.166 HD
ATOM     12  C   UNL     1       2.426   8.083   2.401  0.00  0.00    +0.069 C 
ATOM     13  C   UNL     1       1.712   7.869   1.058  0.00  0.00    +0.167 C 
ATOM     14  N   UNL     1       0.382   8.473   1.120  0.00  0.00    -0.276 N 
ATOM     15  C   UNL     1      -0.746   7.762   1.050  0.00  0.00    +0.234 C 
ATOM     16  O   UNL     1      -1.796   8.353   1.182  0.00  0.00    -0.274 OA
ATOM     17  C   UNL     1      -0.801   6.287   0.819  0.00  0.00    +0.203 C 
ATOM     18  N   UNL     1       0.522   5.711   0.646  0.00  0.00    -0.291 N 
ATOM     19  C   UNL     1       1.653   6.407   0.754  0.00  0.00    +0.237 C 
ATOM     20  O   UNL     1       2.700   5.817   0.591  0.00  0.00    -0.274 OA
ENDROOT
BRANCH   1  23
ATOM     21  C   UNL     1      -2.842  10.337   3.338  0.00  0.00    +0.165 A 
ATOM     22  C   UNL     1      -1.562   9.979   2.946  0.00  0.00    +0.055 A 
ATOM     23  C   UNL     1      -1.097  10.332   1.693  0.00  0.00    -0.014 A 
ATOM     24  C   UNL     1      -1.903  11.048   0.828  0.00  0.00    +0.055 A 
ATOM     25  C   UNL     1      -3.187  11.405   1.211  0.00  0.00    +0.165 A 
ATOM     26  C   UNL     1      -3.659  11.052   2.470  0.00  0.00    +0.204 A 
BRANCH  21  28
ATOM     27  C   UNL     1      -2.405   9.256   5.411  0.00  0.00    +0.277 C 
ATOM     28  O   UNL     1      -3.299   9.990   4.571  0.00  0.00    -0.491 OA
ENDBRANCH  21  28
BRANCH  26  29
ATOM     29  O   UNL     1      -4.916  11.406   2.851  0.00  0.00    -0.488 OA
ATOM     30  C   UNL     1      -5.065  12.666   3.509  0.00  0.00    +0.277 C 
ENDBRANCH  26  29
BRANCH  25  31
ATOM     31  O   UNL     1      -3.982  12.105   0.358  0.00  0.00    -0.491 OA
ATOM     32  C   UNL     1      -3.432  12.433  -0.919  0.00  0.00    +0.277 C 
ENDBRANCH  25  31
ENDBRANCH   1  23
BRANCH  18  33
ATOM     33  C   UNL     1       0.619   4.281   0.342  0.00  0.00    +0.112 C 
BRANCH  33  34
ATOM     34  C   UNL     1       0.597   4.080  -1.174  0.00  0.00    +0.049 C 
BRANCH  34  35
ATOM     35  C   UNL     1       0.696   2.609  -1.487  0.00  0.00    -0.072 C 
ATOM     36  C   UNL     1      -0.403   1.955  -1.684  0.00  0.00    -0.028 C 
ATOM     37  C   UNL     1      -0.465   0.488  -1.994  0.00  0.00    +0.027 C 
ATOM     38  C   UNL     1       0.905  -0.011  -2.457  0.00  0.00    +0.004 C 
ATOM     39  C   UNL     1       1.961   0.470  -1.453  0.00  0.00    +0.005 C 
ATOM     40  C   UNL     1       2.063   1.994  -1.552  0.00  0.00    +0.030 C 
ENDBRANCH  34  35
ENDBRANCH  33  34
ENDBRANCH  18  33
TORSDOF 7
