REMARK  Name = ZINC38704041
REMARK  9 active torsions:
REMARK  status: ('A' for Active; 'I' for Inactive)
REMARK    1  A    between atoms: C_1  and  C_2
REMARK    2  A    between atoms: C_4  and  C_36
REMARK    3  A    between atoms: C_5  and  C_9
REMARK    4  A    between atoms: C_6  and  O_8
REMARK    5  A    between atoms: C_12  and  C_14
REMARK    6  A    between atoms: N_16  and  C_17
REMARK    7  A    between atoms: C_19  and  C_27
REMARK    8  A    between atoms: N_29  and  C_30
REMARK    9  A    between atoms: C_30  and  C_31
REMARK                            x       y       z     vdW  Elec       q    Type
REMARK                         _______ _______ _______ _____ _____    ______ ____
ROOT
ATOM      1  C   UNL     1      -1.086  -7.863  -0.069  0.00  0.00    +0.261 C 
ATOM      2  O   UNL     1      -2.299  -7.954  -0.070  0.00  0.00    -0.269 OA
ATOM      3  N   UNL     1      -0.327  -8.977  -0.079  0.00  0.00    -0.297 N 
ATOM      4  H   UNL     1       0.641  -8.904  -0.078  0.00  0.00    +0.150 HD
ENDROOT
BRANCH   3   5
ATOM      5  C   UNL     1      -0.962 -10.296  -0.090  0.00  0.00    +0.152 C 
ATOM      6  C   UNL     1      -0.222 -11.275  -1.030  0.00  0.00    +0.132 C 
ATOM      7  C   UNL     1       0.832 -12.072  -0.286  0.00  0.00    -0.046 C 
ATOM      8  C   UNL     1       0.729 -12.143   1.029  0.00  0.00    -0.013 C 
ATOM      9  S   UNL     1      -0.703 -11.186   1.500  0.00  0.00    -0.106 S 
ATOM     10  C   UNL     1       1.822 -12.982   1.647  0.00  0.00    +0.042 C 
ATOM     11  C   UNL     1       2.406 -13.786   0.466  0.00  0.00    +0.009 C 
ATOM     12  C   UNL     1       2.069 -12.866  -0.723  0.00  0.00    +0.033 C 
BRANCH   6  13
ATOM     13  C   UNL     1       0.444 -10.491  -2.132  0.00  0.00    +0.223 C 
ATOM     14  O   UNL     1       1.650 -10.523  -2.255  0.00  0.00    -0.275 OA
ATOM     15  N   UNL     1      -0.301  -9.755  -2.980  0.00  0.00    -0.308 N 
ATOM     16  H   UNL     1      -1.266  -9.730  -2.882  0.00  0.00    +0.149 HD
BRANCH  15  17
ATOM     17  C   UNL     1       0.346  -8.993  -4.051  0.00  0.00    +0.178 C 
BRANCH  17  18
ATOM     18  C   UNL     1      -0.701  -8.262  -4.851  0.00  0.00    +0.122 A 
ATOM     19  C   UNL     1      -1.153  -7.020  -4.606  0.00  0.00    +0.046 A 
ATOM     20  C   UNL     1      -2.122  -6.734  -5.595  0.00  0.00    +0.041 A 
ATOM     21  C   UNL     1      -2.204  -7.819  -6.386  0.00  0.00    +0.195 A 
ATOM     22  O   UNL     1      -1.336  -8.740  -5.934  0.00  0.00    -0.466 OA
ENDBRANCH  17  18
ENDBRANCH  15  17
ENDBRANCH   6  13
ENDBRANCH   3   5
BRANCH   1  26
ATOM     23  C   UNL     1       0.058  -4.243  -0.037  0.00  0.00    +0.080 C 
ATOM     24  N   UNL     1       1.110  -5.031  -0.044  0.00  0.00    -0.153 NA
ATOM     25  N   UNL     1       0.831  -6.276  -0.055  0.00  0.00    -0.148 NA
ATOM     26  C   UNL     1      -0.450  -6.543  -0.057  0.00  0.00    +0.131 C 
ATOM     27  C   UNL     1      -1.134  -5.186  -0.040  0.00  0.00    +0.120 C 
BRANCH  23  32
ATOM     28  C   UNL     1      -0.018   1.503   0.010  0.00  0.00    +0.044 C 
ATOM     29  C   UNL     1       0.002  -0.004   0.002  0.00  0.00    -0.047 A 
ATOM     30  C   UNL     1       0.006  -0.686  -1.206  0.00  0.00    +0.007 A 
ATOM     31  C   UNL     1       0.024  -2.062  -1.228  0.00  0.00    -0.038 A 
ATOM     32  C   UNL     1       0.039  -2.779  -0.023  0.00  0.00    +0.043 A 
ATOM     33  C   UNL     1       0.036  -2.082   1.199  0.00  0.00    +0.126 A 
ATOM     34  C   UNL     1       0.023  -0.696   1.197  0.00  0.00    +0.049 A 
ATOM     35  C   UNL     1       0.026  -2.796  -2.544  0.00  0.00    +0.044 C 
BRANCH  33  36
ATOM     36  O   UNL     1       0.051  -2.762   2.372  0.00  0.00    -0.506 OA
ATOM     37  H   UNL     1       0.938  -2.948   2.708  0.00  0.00    +0.292 HD
ENDBRANCH  33  36
ENDBRANCH  23  32
ENDBRANCH   1  26
TORSDOF 7
