REMARK  Name = ZINC13139915
REMARK  17 active torsions:
REMARK  status: ('A' for Active; 'I' for Inactive)
REMARK    1  A    between atoms: C_1  and  C_2
REMARK    2  A    between atoms: C_5  and  S_8
REMARK    3  A    between atoms: S_8  and  N_11
REMARK    4  A    between atoms: N_11  and  C_12
REMARK    5  A    between atoms: N_11  and  C_13
REMARK    6  A    between atoms: C_13  and  C_14
REMARK    7  A    between atoms: N_16  and  N_17
REMARK    8  A    between atoms: C_18  and  C_20
REMARK    9  A    between atoms: C_20  and  C_22
REMARK   10  A    between atoms: C_20  and  N_25
REMARK   11  A    between atoms: C_22  and  C_23
REMARK   12  A    between atoms: C_22  and  C_24
REMARK   13  A    between atoms: C_26  and  C_28
REMARK   14  A    between atoms: C_30  and  O_36
REMARK   15  A    between atoms: C_32  and  O_34
REMARK   16  A    between atoms: O_34  and  C_35
REMARK   17  A    between atoms: O_36  and  C_37
REMARK                            x       y       z     vdW  Elec       q    Type
REMARK                         _______ _______ _______ _____ _____    ______ ____
ROOT
ATOM      1  N   UNL     1       1.066   4.011  -5.444  0.00  0.00    -0.233 N 
ATOM      2  C   UNL     1       1.841   5.104  -5.588  0.00  0.00    +0.250 C 
ATOM      3  O   UNL     1       1.626   6.093  -4.919  0.00  0.00    -0.272 OA
ATOM      4  H   UNL     1       1.194   3.245  -6.026  0.00  0.00    +0.173 HD
ENDROOT
BRANCH   1   7
ATOM      5  C   UNL     1      -0.698   2.886  -4.308  0.00  0.00    +0.245 C 
ATOM      6  O   UNL     1      -0.538   1.929  -5.036  0.00  0.00    -0.273 OA
ATOM      7  N   UNL     1       0.077   3.979  -4.453  0.00  0.00    -0.233 N 
ATOM      8  H   UNL     1      -0.051   4.745  -3.871  0.00  0.00    +0.173 HD
BRANCH   5   9
ATOM      9  C   UNL     1      -1.763   2.853  -3.242  0.00  0.00    +0.206 C 
BRANCH   9  10
ATOM     10  N   UNL     1      -2.461   1.565  -3.290  0.00  0.00    -0.171 NA
ATOM     11  C   UNL     1      -3.580   1.373  -4.215  0.00  0.00    +0.132 C 
BRANCH  10  12
ATOM     12  S   UNL     1      -1.985   0.328  -2.297  0.00  0.00    +0.061 S 
ATOM     13  O   UNL     1      -2.410  -0.877  -2.918  0.00  0.00    -0.153 OA
ATOM     14  O   UNL     1      -0.626   0.575  -1.962  0.00  0.00    -0.153 OA
BRANCH  12  19
ATOM     15  C   UNL     1      -5.139   0.835   2.822  0.00  0.00    +0.044 C 
ATOM     16  C   UNL     1      -4.352   0.708   1.544  0.00  0.00    -0.050 A 
ATOM     17  C   UNL     1      -4.848  -0.047   0.498  0.00  0.00    +0.005 A 
ATOM     18  C   UNL     1      -4.125  -0.164  -0.675  0.00  0.00    +0.029 A 
ATOM     19  C   UNL     1      -2.907   0.476  -0.802  0.00  0.00    +0.105 A 
ATOM     20  C   UNL     1      -2.408   1.228   0.245  0.00  0.00    +0.029 A 
ATOM     21  C   UNL     1      -3.133   1.348   1.417  0.00  0.00    +0.005 A 
ENDBRANCH  12  19
ENDBRANCH  10  12
ENDBRANCH   9  10
ENDBRANCH   5   9
ENDBRANCH   1   7
BRANCH   2  22
ATOM     22  C   UNL     1       2.974   5.099  -6.581  0.00  0.00    +0.163 C 
BRANCH  22  23
ATOM     23  N   UNL     1       3.247   6.470  -7.019  0.00  0.00    -0.300 N 
ATOM     24  C   UNL     1       3.824   6.693  -8.216  0.00  0.00    +0.245 C 
ATOM     25  O   UNL     1       4.117   5.757  -8.934  0.00  0.00    -0.270 OA
ATOM     26  H   UNL     1       3.013   7.217  -6.446  0.00  0.00    +0.150 HD
BRANCH  24  27
ATOM     27  C   UNL     1       4.099   8.078  -8.658  0.00  0.00    +0.044 A 
ATOM     28  C   UNL     1       3.758   9.154  -7.838  0.00  0.00    +0.059 A 
ATOM     29  C   UNL     1       4.023  10.449  -8.253  0.00  0.00    +0.124 A 
ATOM     30  C   UNL     1       4.616  10.676  -9.486  0.00  0.00    +0.091 A 
ATOM     31  C   UNL     1       4.952   9.609 -10.307  0.00  0.00    +0.124 A 
ATOM     32  C   UNL     1       4.696   8.311  -9.897  0.00  0.00    +0.059 A 
BRANCH  31  33
ATOM     33  O   UNL     1       5.534   9.838 -11.514  0.00  0.00    -0.495 OA
ATOM     34  C   UNL     1       5.769  11.200 -11.873  0.00  0.00    +0.277 C 
ENDBRANCH  31  33
BRANCH  29  35
ATOM     35  O   UNL     1       3.696  11.498  -7.453  0.00  0.00    -0.495 OA
ATOM     36  C   UNL     1       3.993  12.806  -7.946  0.00  0.00    +0.277 C 
ENDBRANCH  29  35
ENDBRANCH  24  27
ENDBRANCH  22  23
BRANCH  22  37
ATOM     37  C   UNL     1       4.226   4.515  -5.923  0.00  0.00    +0.012 C 
ATOM     38  C   UNL     1       4.537   5.290  -4.641  0.00  0.00    +0.009 C 
ATOM     39  C   UNL     1       3.984   3.043  -5.583  0.00  0.00    +0.009 C 
ENDBRANCH  22  37
ENDBRANCH   2  22
TORSDOF 11
