REMARK  Name = ZINC32527880
REMARK  11 active torsions:
REMARK  status: ('A' for Active; 'I' for Inactive)
REMARK    1  A    between atoms: C_1  and  C_2
REMARK    2  A    between atoms: C_2  and  C_3
REMARK    3  A    between atoms: C_3  and  C_5
REMARK    4  A    between atoms: C_3  and  N_23
REMARK    5  A    between atoms: N_7  and  C_8
REMARK    6  A    between atoms: C_9  and  C_20
REMARK    7  A    between atoms: C_10  and  C_13
REMARK    8  A    between atoms: C_16  and  C_19
REMARK    9  A    between atoms: C_27  and  C_36
REMARK   10  A    between atoms: C_30  and  O_34
REMARK   11  A    between atoms: O_34  and  C_35
REMARK                            x       y       z     vdW  Elec       q    Type
REMARK                         _______ _______ _______ _____ _____    ______ ____
ROOT
ATOM      1  C   UNL     1      -2.487   1.969  -3.589  0.00  0.00    +0.241 C 
ATOM      2  O   UNL     1      -3.667   2.202  -3.436  0.00  0.00    -0.273 OA
ATOM      3  N   UNL     1      -1.768   1.444  -2.578  0.00  0.00    -0.278 N 
ATOM      4  H   UNL     1      -0.697   1.232  -2.716  0.00  0.00    +0.155 HD
ENDROOT
BRANCH   3   5
ATOM      5  C   UNL     1      -2.377   1.169  -1.363  0.00  0.00    +0.085 A 
ATOM      6  C   UNL     1      -1.806   0.634  -0.217  0.00  0.00    +0.073 A 
ATOM      7  C   UNL     1      -2.681   0.455   0.926  0.00  0.00    +0.003 A 
ATOM      8  C   UNL     1      -3.978   0.824   0.765  0.00  0.00    +0.056 A 
ATOM      9  S   UNL     1      -4.031   1.411  -0.915  0.00  0.00    -0.081 S 
BRANCH   7  10
ATOM     10  C   UNL     1      -2.184  -0.104   2.206  0.00  0.00    -0.017 A 
ATOM     11  C   UNL     1      -1.452  -1.290   2.214  0.00  0.00    +0.009 A 
ATOM     12  C   UNL     1      -0.988  -1.802   3.408  0.00  0.00    +0.004 A 
ATOM     13  C   UNL     1      -1.256  -1.147   4.596  0.00  0.00    -0.050 A 
ATOM     14  C   UNL     1      -1.987   0.027   4.595  0.00  0.00    +0.004 A 
ATOM     15  C   UNL     1      -2.452   0.552   3.406  0.00  0.00    +0.009 A 
ATOM     16  C   UNL     1      -0.752  -1.716   5.898  0.00  0.00    +0.044 C 
ENDBRANCH   7  10
BRANCH   6  17
ATOM     17  C   UNL     1      -0.388   0.272  -0.163  0.00  0.00    +0.244 C 
ATOM     18  O   UNL     1      -0.034  -0.851  -0.472  0.00  0.00    -0.270 OA
ATOM     19  N   UNL     1       0.526   1.184   0.225  0.00  0.00    -0.325 N 
ATOM     20  H   UNL     1       1.591   0.912   0.266  0.00  0.00    +0.145 HD
ATOM     21  H   UNL     1       0.206   2.200   0.500  0.00  0.00    +0.145 HD
ENDBRANCH   6  17
ENDBRANCH   3   5
BRANCH   1  22
ATOM     22  C   UNL     1      -1.825   2.267  -4.910  0.00  0.00    +0.176 C 
BRANCH  22  23
ATOM     23  N   UNL     1      -2.812   2.827  -5.835  0.00  0.00    -0.293 N 
ATOM     24  C   UNL     1      -3.163   4.121  -5.728  0.00  0.00    +0.253 A 
ATOM     25  O   UNL     1      -2.650   4.805  -4.858  0.00  0.00    -0.268 OA
ATOM     26  C   UNL     1      -4.109   4.706  -6.596  0.00  0.00    +0.074 A 
ATOM     27  C   UNL     1      -4.691   3.966  -7.571  0.00  0.00    -0.036 A 
ATOM     28  C   UNL     1      -4.317   2.556  -7.697  0.00  0.00    +0.005 A 
ATOM     29  C   UNL     1      -3.365   2.021  -6.810  0.00  0.00    +0.095 A 
ATOM     30  C   UNL     1      -3.006   0.677  -6.919  0.00  0.00    +0.144 A 
ATOM     31  C   UNL     1      -3.581  -0.106  -7.902  0.00  0.00    +0.048 A 
ATOM     32  C   UNL     1      -4.516   0.430  -8.777  0.00  0.00    +0.004 A 
ATOM     33  C   UNL     1      -4.885   1.742  -8.683  0.00  0.00    +0.010 A 
ATOM     34  C   UNL     1      -5.703   4.580  -8.504  0.00  0.00    +0.044 C 
BRANCH  30  35
ATOM     35  O   UNL     1      -2.092   0.142  -6.066  0.00  0.00    -0.493 OA
ATOM     36  C   UNL     1      -1.770  -1.239  -6.243  0.00  0.00    +0.277 C 
ENDBRANCH  30  35
ENDBRANCH  22  23
BRANCH  22  38
ATOM     37  C   UNL     1       0.057   3.484  -6.013  0.00  0.00    +0.006 C 
ATOM     38  C   UNL     1      -0.695   3.276  -4.697  0.00  0.00    +0.031 C 
ENDBRANCH  22  38
ENDBRANCH   1  22
TORSDOF 7
