REMARK  Name = ZINC30714926
REMARK  3 active torsions:
REMARK  status: ('A' for Active; 'I' for Inactive)
REMARK    1  A    between atoms: C_6  and  N_7
REMARK    2  A    between atoms: C_13  and  C_15
REMARK    3  A    between atoms: C_18  and  N_22
REMARK                            x       y       z     vdW  Elec       q    Type
REMARK                         _______ _______ _______ _____ _____    ______ ____
ROOT
ATOM      1  C   UNL     1       4.155  -0.512  -0.040  0.00  0.00    +0.030 A 
ATOM      2  C   UNL     1       5.535  -0.507  -0.053  0.00  0.00    +0.050 A 
ATOM      3  C   UNL     1       6.223   0.696  -0.054  0.00  0.00    +0.156 A 
ATOM      4  C   UNL     1       5.514   1.909  -0.041  0.00  0.00    +0.112 A 
ATOM      5  C   UNL     1       4.118   1.894  -0.033  0.00  0.00    +0.057 A 
ATOM      6  C   UNL     1       3.446   0.686  -0.027  0.00  0.00    +0.051 A 
ATOM      7  N   UNL     1       6.440   2.902  -0.045  0.00  0.00    -0.209 NA
ATOM      8  C   UNL     1       7.635   2.364  -0.060  0.00  0.00    +0.228 A 
ATOM      9  O   UNL     1       7.536   1.021  -0.066  0.00  0.00    -0.435 OA
ENDROOT
BRANCH   8  10
ATOM     10  C   UNL     1       8.903   3.119  -0.069  0.00  0.00    +0.039 A 
ATOM     11  C   UNL     1       8.886   4.516  -0.067  0.00  0.00    +0.030 A 
ATOM     12  C   UNL     1      10.072   5.219  -0.070  0.00  0.00    +0.040 A 
ATOM     13  C   UNL     1      11.285   4.538  -0.086  0.00  0.00    +0.053 A 
ATOM     14  C   UNL     1      11.305   3.146  -0.093  0.00  0.00    +0.040 A 
ATOM     15  C   UNL     1      10.123   2.439  -0.085  0.00  0.00    +0.030 A 
ATOM     16 BR   UNL     1      12.957   2.226  -0.115  0.00  0.00    -0.048 Br
ATOM     17 BR   UNL     1      10.049   7.109  -0.059  0.00  0.00    -0.048 Br
BRANCH  13  18
ATOM     18  N   UNL     1      12.483   5.251  -0.095  0.00  0.00    -0.356 N 
ATOM     19  H   UNL     1      13.443   4.714  -0.108  0.00  0.00    +0.142 HD
ATOM     20  H   UNL     1      12.468   6.351  -0.090  0.00  0.00    +0.142 HD
ENDBRANCH  13  18
ENDBRANCH   8  10
BRANCH   6  21
ATOM     21  N   UNL     1       2.042   0.666  -0.014  0.00  0.00    -0.288 N 
ATOM     22  C   UNL     1       1.206   1.742  -0.000  0.00  0.00    +0.229 A 
ATOM     23  N   UNL     1      -0.015   1.281   0.009  0.00  0.00    -0.138 NA
ATOM     24  N   UNL     1       0.002  -0.004   0.002  0.00  0.00    -0.138 NA
ATOM     25  C   UNL     1       1.236  -0.431  -0.012  0.00  0.00    +0.229 A 
ENDBRANCH   6  21
TORSDOF 3
