REMARK  Name = ZINC49587675
REMARK  7 active torsions:
REMARK  status: ('A' for Active; 'I' for Inactive)
REMARK    1  A    between atoms: C_4  and  C_18
REMARK    2  A    between atoms: C_5  and  C_7
REMARK    3  A    between atoms: C_7  and  N_8
REMARK    4  A    between atoms: N_8  and  S_9
REMARK    5  A    between atoms: S_9  and  C_12
REMARK    6  A    between atoms: C_19  and  C_20
REMARK    7  A    between atoms: C_20  and  N_21
REMARK                            x       y       z     vdW  Elec       q    Type
REMARK                         _______ _______ _______ _____ _____    ______ ____
ROOT
ATOM      1  C   UNL     1      -0.017   1.379   0.010  0.00  0.00    +0.000 A 
ATOM      2  C   UNL     1       1.169   2.093   0.002  0.00  0.00    +0.001 A 
ATOM      3  C   UNL     1       2.377   1.429  -0.013  0.00  0.00    +0.017 A 
ATOM      4  C   UNL     1       2.403   0.033  -0.021  0.00  0.00    +0.029 A 
ATOM      5  C   UNL     1       1.205  -0.681  -0.013  0.00  0.00    -0.017 A 
ATOM      6  C   UNL     1       0.002  -0.004   0.002  0.00  0.00    +0.006 A 
ENDROOT
BRANCH   4   7
ATOM      7  C   UNL     1       3.655  -0.663  -0.037  0.00  0.00    -0.068 C 
ATOM      8  C   UNL     1       4.681  -1.233  -0.050  0.00  0.00    -0.117 C 
BRANCH   8   9
ATOM      9  C   UNL     1       5.967  -1.948  -0.067  0.00  0.00    +0.005 C 
BRANCH   9  10
ATOM     10  N   UNL     1       5.722  -3.397  -0.072  0.00  0.00    +0.385 N 
ATOM     11  H   UNL     1       5.205  -3.654   0.755  0.00  0.00    -0.089 HD
ATOM     12  H   UNL     1       5.189  -3.645  -0.892  0.00  0.00    -0.089 HD
ATOM     13  H   UNL     1       6.604  -3.887  -0.084  0.00  0.00    -0.089 HD
ENDBRANCH   9  10
ENDBRANCH   8   9
ENDBRANCH   4   7
BRANCH   5  14
ATOM     14  C   UNL     1       1.223  -2.188  -0.022  0.00  0.00    +0.142 C 
BRANCH  14  15
ATOM     15  N   UNL     1       1.482  -2.681   1.333  0.00  0.00    -0.185 NA
ATOM     16  H   UNL     1       1.822  -2.077   2.012  0.00  0.00    +0.148 HD
BRANCH  15  17
ATOM     17  S   UNL     1       1.195  -4.269   1.705  0.00  0.00    +0.065 S 
ATOM     18  O   UNL     1       1.565  -4.440   3.067  0.00  0.00    -0.153 OA
ATOM     19  O   UNL     1      -0.108  -4.569   1.226  0.00  0.00    -0.153 OA
BRANCH  17  20
ATOM     20  C   UNL     1       2.318  -5.238   0.753  0.00  0.00    +0.144 A 
ATOM     21  C   UNL     1       3.566  -5.657   1.073  0.00  0.00    +0.038 A 
ATOM     22  C   UNL     1       4.273  -6.417   0.160  0.00  0.00    +0.030 A 
ATOM     23  C   UNL     1       3.694  -6.721  -1.030  0.00  0.00    +0.080 A 
ATOM     24  S   UNL     1       2.102  -5.928  -0.878  0.00  0.00    -0.057 S 
ATOM     25 CL   UNL     1       4.334  -7.646  -2.352  0.00  0.00    -0.076 Cl
ENDBRANCH  17  20
ENDBRANCH  15  17
ENDBRANCH  14  15
ENDBRANCH   5  14
TORSDOF 7
