REMARK  Name = ZINC62049262
REMARK  10 active torsions:
REMARK  status: ('A' for Active; 'I' for Inactive)
REMARK    1  A    between atoms: C_1  and  C_2
REMARK    2  A    between atoms: C_9  and  C_26
REMARK    3  A    between atoms: C_10  and  C_11
REMARK    4  A    between atoms: C_11  and  C_12
REMARK    5  A    between atoms: N_14  and  C_15
REMARK    6  A    between atoms: C_15  and  C_16
REMARK    7  A    between atoms: C_19  and  S_22
REMARK    8  A    between atoms: S_22  and  N_25
REMARK    9  A    between atoms: C_29  and  C_33
REMARK   10  A    between atoms: C_30  and  C_32
REMARK                            x       y       z     vdW  Elec       q    Type
REMARK                         _______ _______ _______ _____ _____    ______ ____
ROOT
ATOM      1  C   UNL     1       0.882   1.419  -0.039  0.00  0.00    +0.044 C 
ATOM      2  C   UNL     1       0.622  -0.065  -0.032  0.00  0.00    -0.046 A 
ATOM      3  C   UNL     1       0.519  -0.769  -1.243  0.00  0.00    +0.021 A 
ATOM      4  C   UNL     1       0.287  -2.099  -1.240  0.00  0.00    +0.093 A 
ATOM      5  N   UNL     1       0.149  -2.778  -0.064  0.00  0.00    -0.303 N 
ATOM      6  C   UNL     1       0.245  -2.118   1.135  0.00  0.00    +0.139 A 
ATOM      7  C   UNL     1       0.492  -0.730   1.148  0.00  0.00    +0.050 A 
ATOM      8  N   UNL     1       0.075  -2.999   2.109  0.00  0.00    -0.228 NA
ATOM      9  C   UNL     1      -0.129  -4.213   1.574  0.00  0.00    +0.093 A 
ATOM     10  C   UNL     1      -0.086  -4.095   0.217  0.00  0.00    +0.060 A 
ENDROOT
BRANCH   9  11
ATOM     11  C   UNL     1      -0.361  -5.469   2.330  0.00  0.00    +0.002 A 
ATOM     12  C   UNL     1       0.267  -6.649   1.936  0.00  0.00    +0.010 A 
ATOM     13  C   UNL     1       0.048  -7.814   2.642  0.00  0.00    +0.004 A 
ATOM     14  C   UNL     1      -0.793  -7.812   3.740  0.00  0.00    -0.047 A 
ATOM     15  C   UNL     1      -1.419  -6.644   4.136  0.00  0.00    -0.047 A 
ATOM     16  C   UNL     1      -1.203  -5.471   3.440  0.00  0.00    +0.013 A 
ATOM     17  C   UNL     1      -2.335  -6.649   5.333  0.00  0.00    +0.044 C 
ATOM     18  C   UNL     1      -1.029  -9.087   4.508  0.00  0.00    +0.044 C 
ENDBRANCH   9  11
BRANCH  10  19
ATOM     19  C   UNL     1      -0.265  -5.206  -0.784  0.00  0.00    +0.151 C 
BRANCH  19  20
ATOM     20  C   UNL     1       1.086  -5.732  -1.197  0.00  0.00    +0.219 C 
ATOM     21  O   UNL     1       2.094  -5.251  -0.725  0.00  0.00    -0.275 OA
ATOM     22  N   UNL     1       1.174  -6.736  -2.092  0.00  0.00    -0.311 N 
ATOM     23  H   UNL     1       0.367  -7.120  -2.470  0.00  0.00    +0.149 HD
BRANCH  22  24
ATOM     24  C   UNL     1       2.487  -7.247  -2.493  0.00  0.00    +0.139 C 
BRANCH  24  25
ATOM     25  C   UNL     1       2.308  -8.358  -3.495  0.00  0.00    -0.030 A 
ATOM     26  C   UNL     1       2.183  -9.665  -3.063  0.00  0.00    +0.007 A 
ATOM     27  C   UNL     1       2.019 -10.685  -3.982  0.00  0.00    +0.029 A 
ATOM     28  C   UNL     1       1.981 -10.398  -5.333  0.00  0.00    +0.105 A 
ATOM     29  C   UNL     1       2.105  -9.091  -5.766  0.00  0.00    +0.029 A 
ATOM     30  C   UNL     1       2.264  -8.070  -4.847  0.00  0.00    +0.007 A 
BRANCH  28  31
ATOM     31  S   UNL     1       1.774 -11.697  -6.505  0.00  0.00    +0.056 S 
ATOM     32  O   UNL     1       2.317 -11.229  -7.732  0.00  0.00    -0.153 OA
ATOM     33  O   UNL     1       2.228 -12.887  -5.876  0.00  0.00    -0.153 OA
BRANCH  31  34
ATOM     34  N   UNL     1       0.146 -11.882  -6.748  0.00  0.00    -0.204 NA
ATOM     35  H   UNL     1      -0.483 -11.317  -6.273  0.00  0.00    +0.144 HD
ATOM     36  H   UNL     1      -0.179 -12.556  -7.366  0.00  0.00    +0.144 HD
ENDBRANCH  31  34
ENDBRANCH  28  31
ENDBRANCH  24  25
ENDBRANCH  22  24
ENDBRANCH  19  20
ENDBRANCH  10  19
TORSDOF 7
