REMARK  Name = ZINC23215012
REMARK  5 active torsions:
REMARK  status: ('A' for Active; 'I' for Inactive)
REMARK    1  A    between atoms: C_1  and  C_2
REMARK    2  A    between atoms: C_6  and  C_7
REMARK    3  A    between atoms: C_14  and  C_18
REMARK    4  A    between atoms: C_21  and  C_25
REMARK    5  A    between atoms: C_23  and  C_24
REMARK                            x       y       z     vdW  Elec       q    Type
REMARK                         _______ _______ _______ _____ _____    ______ ____
ROOT
ATOM      1  C   UNL     1      -4.209   4.548  -1.221  0.00  0.00    +0.282 C 
ATOM      2  O   UNL     1      -5.348   4.138  -1.349  0.00  0.00    -0.267 OA
ATOM      3  N   UNL     1      -3.381   3.969  -0.329  0.00  0.00    -0.290 N 
ATOM      4  C   UNL     1      -3.801   2.779   0.426  0.00  0.00    +0.114 C 
ATOM      5  C   UNL     1      -2.911   1.593   0.033  0.00  0.00    +0.074 C 
ATOM      6  C   UNL     1      -1.473   2.048   0.017  0.00  0.00    +0.043 A 
ATOM      7  C   UNL     1      -1.079   3.344  -0.038  0.00  0.00    +0.018 A 
ATOM      8  C   UNL     1       0.322   3.373  -0.053  0.00  0.00    +0.099 A 
ATOM      9  N   UNL     1       0.751   2.127   0.002  0.00  0.00    -0.173 NA
ATOM     10  N   UNL     1      -0.367   1.282   0.051  0.00  0.00    -0.281 N 
ATOM     11  H   UNL     1      -0.459   0.187   0.109  0.00  0.00    +0.189 HD
ATOM     12  C   UNL     1      -2.033   4.514  -0.076  0.00  0.00    +0.147 C 
ENDROOT
BRANCH   8  13
ATOM     13  C   UNL     1       1.172   4.588  -0.118  0.00  0.00    +0.023 A 
ATOM     14  C   UNL     1       0.928   5.575  -1.077  0.00  0.00    +0.014 A 
ATOM     15  C   UNL     1       1.745   6.692  -1.092  0.00  0.00    +0.033 A 
ATOM     16  C   UNL     1       2.774   6.790  -0.174  0.00  0.00    +0.144 A 
ATOM     17  N   UNL     1       2.983   5.840   0.717  0.00  0.00    -0.247 NA
ATOM     18  C   UNL     1       2.228   4.761   0.773  0.00  0.00    +0.048 A 
ATOM     19  C   UNL     1       2.511   3.705   1.810  0.00  0.00    +0.066 C 
BRANCH  16  20
ATOM     20  C   UNL     1       3.670   8.002  -0.190  0.00  0.00    +0.434 C 
ATOM     21  F   UNL     1       4.699   7.833   0.743  0.00  0.00    -0.164 F 
ATOM     22  F   UNL     1       4.219   8.158  -1.467  0.00  0.00    -0.164 F 
ATOM     23  F   UNL     1       2.924   9.138   0.139  0.00  0.00    -0.164 F 
ENDBRANCH  16  20
ENDBRANCH   8  13
BRANCH   1  29
ATOM     24  C   UNL     1      -5.972   6.255  -3.159  0.00  0.00    +0.048 C 
ATOM     25  C   UNL     1      -4.499   6.422  -2.886  0.00  0.00    -0.000 A 
ATOM     26  C   UNL     1      -3.645   7.380  -3.454  0.00  0.00    +0.045 A 
ATOM     27  C   UNL     1      -2.415   7.174  -2.935  0.00  0.00    +0.196 A 
ATOM     28  O   UNL     1      -2.476   6.147  -2.077  0.00  0.00    -0.458 OA
ATOM     29  C   UNL     1      -3.737   5.671  -2.037  0.00  0.00    +0.192 A 
ENDBRANCH   1  29
TORSDOF 3
