REMARK  Name = ZINC15968162
REMARK  7 active torsions:
REMARK  status: ('A' for Active; 'I' for Inactive)
REMARK    1  A    between atoms: C_1  and  C_2
REMARK    2  A    between atoms: C_2  and  C_3
REMARK    3  A    between atoms: C_17  and  C_20
REMARK    4  A    between atoms: C_20  and  C_22
REMARK    5  A    between atoms: C_20  and  O_23
REMARK    6  A    between atoms: N_26  and  C_29
REMARK    7  A    between atoms: C_29  and  C_30
REMARK                            x       y       z     vdW  Elec       q    Type
REMARK                         _______ _______ _______ _____ _____    ______ ____
ROOT
ATOM      1  C   UNL     1       0.731  -0.503   1.223  0.00  0.00    -0.026 A 
ATOM      2  C   UNL     1       2.075  -0.807   1.145  0.00  0.00    +0.005 A 
ATOM      3  C   UNL     1       2.752  -1.265   2.260  0.00  0.00    +0.001 A 
ATOM      4  C   UNL     1       2.079  -1.420   3.460  0.00  0.00    +0.008 A 
ATOM      5  C   UNL     1       0.739  -1.119   3.541  0.00  0.00    +0.004 A 
ATOM      6  C   UNL     1       0.047  -0.651   2.427  0.00  0.00    +0.042 A 
ATOM      7  N   UNL     1      -1.288  -0.408   2.755  0.00  0.00    -0.283 N 
ATOM      8  C   UNL     1      -1.552  -0.682   4.047  0.00  0.00    +0.243 C 
ATOM      9  O   UNL     1      -2.621  -0.565   4.609  0.00  0.00    -0.273 OA
ATOM     10  C   UNL     1      -0.268  -1.173   4.655  0.00  0.00    +0.136 C 
ATOM     11  C   UNL     1       0.155  -0.291   5.837  0.00  0.00    +0.123 C 
ATOM     12  C   UNL     1       0.817  -1.275   6.841  0.00  0.00    +0.109 C 
ATOM     13  C   UNL     1       0.745  -2.654   6.151  0.00  0.00    +0.096 C 
ATOM     14  N   UNL     1      -0.399  -2.538   5.198  0.00  0.00    -0.293 NA
ATOM     15  C   UNL     1      -0.118  -1.245   8.028  0.00  0.00    +0.228 C 
ATOM     16  O   UNL     1       0.025  -1.884   9.049  0.00  0.00    -0.275 OA
ATOM     17  N   UNL     1      -1.127  -0.404   7.778  0.00  0.00    -0.237 N 
ATOM     18  C   UNL     1      -1.074   0.201   6.569  0.00  0.00    +0.229 C 
ATOM     19  O   UNL     1      -1.873   1.003   6.135  0.00  0.00    -0.275 OA
ATOM     20  H   UNL     1      -1.949  -0.080   2.125  0.00  0.00    +0.155 HD
ATOM     21  H   UNL     1      -1.285  -2.657   5.665  0.00  0.00    +0.124 HD
ENDROOT
BRANCH   1  23
ATOM     22  C   UNL     1      -0.019   1.526   0.010  0.00  0.00    +0.009 C 
ATOM     23  C   UNL     1       0.002  -0.004   0.002  0.00  0.00    +0.033 C 
ENDBRANCH   1  23
BRANCH  13  24
ATOM     24  C   UNL     1       0.454  -3.749   7.179  0.00  0.00    +0.129 C 
ATOM     25  C   UNL     1       0.386  -5.105   6.475  0.00  0.00    +0.039 C 
BRANCH  24  26
ATOM     26  O   UNL     1       1.495  -3.772   8.158  0.00  0.00    -0.390 OA
ATOM     27  H   UNL     1       1.376  -4.444   8.843  0.00  0.00    +0.210 HD
ENDBRANCH  24  26
ENDBRANCH  13  24
BRANCH  17  28
ATOM     28  C   UNL     1      -2.204  -0.150   8.738  0.00  0.00    +0.151 C 
BRANCH  28  29
ATOM     29  C   UNL     1      -1.822   1.005   9.627  0.00  0.00    -0.026 A 
ATOM     30  C   UNL     1      -1.133   0.772  10.803  0.00  0.00    +0.009 A 
ATOM     31  C   UNL     1      -0.780   1.829  11.622  0.00  0.00    +0.050 A 
ATOM     32  C   UNL     1      -1.116   3.125  11.266  0.00  0.00    +0.166 A 
ATOM     33  C   UNL     1      -1.810   3.359  10.081  0.00  0.00    +0.167 A 
ATOM     34  C   UNL     1      -2.156   2.296   9.263  0.00  0.00    +0.054 A 
ATOM     35  O   UNL     1      -2.020   4.702   9.958  0.00  0.00    -0.453 OA
ATOM     36  C   UNL     1      -1.809   5.247  11.274  0.00  0.00    +0.466 C 
ATOM     37  O   UNL     1      -0.892   4.321  11.884  0.00  0.00    -0.453 OA
ENDBRANCH  28  29
ENDBRANCH  17  28
TORSDOF 5
