REMARK  Name = ZINC39372360
REMARK  6 active torsions:
REMARK  status: ('A' for Active; 'I' for Inactive)
REMARK    1  A    between atoms: C_1  and  C_2
REMARK    2  A    between atoms: C_2  and  C_13
REMARK    3  A    between atoms: C_16  and  O_21
REMARK    4  A    between atoms: C_17  and  O_19
REMARK    5  A    between atoms: O_19  and  C_20
REMARK    6  A    between atoms: O_21  and  C_22
REMARK                            x       y       z     vdW  Elec       q    Type
REMARK                         _______ _______ _______ _____ _____    ______ ____
ROOT
ATOM      1  C   UNL     1      -0.019   1.526   0.010  0.00  0.00    +0.084 C 
ATOM      2  C   UNL     1       0.002  -0.004   0.002  0.00  0.00    +0.202 C 
ATOM      3  N   UNL     1       0.658  -0.469  -1.220  0.00  0.00    -0.270 N 
ATOM      4  C   UNL     1       1.269  -1.677  -1.246  0.00  0.00    +0.251 C 
ATOM      5  O   UNL     1       1.768  -2.107  -2.267  0.00  0.00    -0.270 OA
ATOM      6  C   UNL     1       1.307  -2.454   0.010  0.00  0.00    +0.078 A 
ATOM      7  C   UNL     1       1.631  -3.807   0.025  0.00  0.00    +0.017 A 
ATOM      8  C   UNL     1       1.653  -4.487   1.226  0.00  0.00    +0.001 A 
ATOM      9  C   UNL     1       1.356  -3.829   2.408  0.00  0.00    +0.004 A 
ATOM     10  C   UNL     1       1.033  -2.485   2.404  0.00  0.00    +0.046 A 
ATOM     11  C   UNL     1       1.006  -1.788   1.209  0.00  0.00    +0.136 A 
ATOM     12  O   UNL     1       0.694  -0.470   1.161  0.00  0.00    -0.464 OA
ATOM     13  H   UNL     1       0.654   0.088  -2.014  0.00  0.00    +0.153 HD
ENDROOT
BRANCH   2  14
ATOM     14  C   UNL     1      -1.414  -0.519   0.030  0.00  0.00    +0.018 A 
ATOM     15  C   UNL     1      -2.050  -0.852  -1.151  0.00  0.00    +0.013 A 
ATOM     16  C   UNL     1      -3.349  -1.324  -1.131  0.00  0.00    +0.050 A 
ATOM     17  C   UNL     1      -4.016  -1.465   0.075  0.00  0.00    +0.162 A 
ATOM     18  C   UNL     1      -3.376  -1.131   1.264  0.00  0.00    +0.162 A 
ATOM     19  C   UNL     1      -2.072  -0.662   1.237  0.00  0.00    +0.058 A 
BRANCH  18  20
ATOM     20  O   UNL     1      -4.026  -1.268   2.451  0.00  0.00    -0.491 OA
ATOM     21  C   UNL     1      -3.307  -0.905   3.631  0.00  0.00    +0.277 C 
ENDBRANCH  18  20
BRANCH  17  22
ATOM     22  O   UNL     1      -5.295  -1.929   0.097  0.00  0.00    -0.491 OA
ATOM     23  C   UNL     1      -5.889  -2.252  -1.162  0.00  0.00    +0.277 C 
ENDBRANCH  17  22
ENDBRANCH   2  14
TORSDOF 3
