REMARK  Name = ZINC21221273
REMARK  8 active torsions:
REMARK  status: ('A' for Active; 'I' for Inactive)
REMARK    1  A    between atoms: C_1  and  C_2
REMARK    2  A    between atoms: C_2  and  O_3
REMARK    3  A    between atoms: O_3  and  C_4
REMARK    4  A    between atoms: C_7  and  C_10
REMARK    5  A    between atoms: C_15  and  C_20
REMARK    6  A    between atoms: C_23  and  N_26
REMARK    7  A    between atoms: N_26  and  C_27
REMARK    8  A    between atoms: N_26  and  C_28
REMARK                            x       y       z     vdW  Elec       q    Type
REMARK                         _______ _______ _______ _____ _____    ______ ____
ROOT
ATOM      1  C   UNL     1       2.192  -6.143  -0.037  0.00  0.00    +0.136 C 
ATOM      2  C   UNL     1       2.027  -4.642  -0.073  0.00  0.00    +0.036 C 
ATOM      3  C   UNL     1       1.936  -3.833   0.995  0.00  0.00    +0.017 C 
ATOM      4  C   UNL     1       1.796  -2.330   0.813  0.00  0.00    +0.059 C 
ATOM      5  C   UNL     1       1.009  -2.032  -0.462  0.00  0.00    +0.032 C 
ATOM      6  C   UNL     1       1.780  -2.641  -1.640  0.00  0.00    +0.088 C 
ATOM      7  C   UNL     1       1.970  -4.105  -1.381  0.00  0.00    +0.163 C 
ATOM      8  O   UNL     1       2.077  -4.858  -2.329  0.00  0.00    -0.292 OA
ATOM      9  N   UNL     1       1.961  -4.247   2.287  0.00  0.00    -0.316 N 
ATOM     10  C   UNL     1       2.879  -5.150   2.812  0.00  0.00    +0.052 A 
ATOM     11  C   UNL     1       3.798  -4.790   3.783  0.00  0.00    +0.025 A 
ATOM     12  C   UNL     1       4.654  -5.750   4.295  0.00  0.00    +0.002 A 
ATOM     13  C   UNL     1       4.589  -7.055   3.843  0.00  0.00    +0.002 A 
ATOM     14  C   UNL     1       3.682  -7.413   2.861  0.00  0.00    +0.025 A 
ATOM     15  C   UNL     1       2.838  -6.450   2.331  0.00  0.00    +0.049 A 
ATOM     16  N   UNL     1       1.986  -6.737   1.266  0.00  0.00    -0.331 N 
ATOM     17  H   UNL     1       1.218  -3.864   3.002  0.00  0.00    +0.152 HD
ATOM     18  H   UNL     1       1.145  -7.427   1.429  0.00  0.00    +0.147 HD
ENDROOT
BRANCH   1  22
ATOM     19  C   UNL     1       6.141  -7.105  -1.357  0.00  0.00    +0.121 A 
ATOM     20  C   UNL     1       5.041  -7.535  -2.085  0.00  0.00    +0.046 A 
ATOM     21  C   UNL     1       3.765  -7.223  -1.656  0.00  0.00    +0.009 A 
ATOM     22  C   UNL     1       3.584  -6.482  -0.503  0.00  0.00    -0.023 A 
ATOM     23  C   UNL     1       4.679  -6.048   0.221  0.00  0.00    +0.009 A 
ATOM     24  C   UNL     1       5.957  -6.362  -0.200  0.00  0.00    +0.046 A 
BRANCH  19  25
ATOM     25  O   UNL     1       7.397  -7.412  -1.777  0.00  0.00    -0.492 OA
BRANCH  25  27
ATOM     26  C   UNL     1       9.807  -7.375  -1.603  0.00  0.00    +0.048 C 
ATOM     27  C   UNL     1       8.482  -6.936  -0.978  0.00  0.00    +0.225 C 
ENDBRANCH  25  27
ENDBRANCH  19  25
ENDBRANCH   1  22
BRANCH   5  28
ATOM     28  C   UNL     1       0.885  -0.542  -0.648  0.00  0.00    -0.043 A 
ATOM     29  C   UNL     1      -0.366   0.043  -0.713  0.00  0.00    +0.006 A 
ATOM     30  C   UNL     1      -0.484   1.409  -0.883  0.00  0.00    +0.023 A 
ATOM     31  C   UNL     1       0.657   2.195  -0.991  0.00  0.00    +0.029 A 
ATOM     32  C   UNL     1       1.912   1.603  -0.926  0.00  0.00    +0.023 A 
ATOM     33  C   UNL     1       2.023   0.237  -0.755  0.00  0.00    +0.006 A 
BRANCH  31  34
ATOM     34  N   UNL     1       0.542   3.576  -1.163  0.00  0.00    -0.336 N 
ATOM     35  C   UNL     1      -0.776   4.213  -1.108  0.00  0.00    +0.129 C 
ATOM     36  C   UNL     1       1.738   4.387  -1.400  0.00  0.00    +0.129 C 
ENDBRANCH  31  34
ENDBRANCH   5  28
TORSDOF 5
