REMARK  Name = ZINC08791832
REMARK  15 active torsions:
REMARK  status: ('A' for Active; 'I' for Inactive)
REMARK    1  A    between atoms: C_1  and  C_2
REMARK    2  A    between atoms: C_2  and  C_3
REMARK    3  A    between atoms: C_3  and  C_5
REMARK    4  A    between atoms: C_3  and  N_6
REMARK    5  A    between atoms: C_7  and  C_9
REMARK    6  A    between atoms: C_9  and  C_10
REMARK    7  A    between atoms: C_10  and  C_11
REMARK    8  A    between atoms: C_11  and  O_13
REMARK    9  A    between atoms: O_13  and  C_14
REMARK   10  A    between atoms: C_14  and  C_15
REMARK   11  A    between atoms: C_15  and  C_17
REMARK   12  A    between atoms: C_17  and  O_42
REMARK   13  A    between atoms: C_22  and  C_41
REMARK   14  A    between atoms: C_24  and  O_40
REMARK   15  A    between atoms: C_38  and  C_39
REMARK                            x       y       z     vdW  Elec       q    Type
REMARK                         _______ _______ _______ _____ _____    ______ ____
ROOT
ATOM      1  C   UNL     1      -0.199   1.188   2.597  0.00  0.00    +0.133 C 
ATOM      2  C   UNL     1       0.885   2.204   3.011  0.00  0.00    +0.043 C 
ATOM      3  C   UNL     1       0.385   2.872   4.311  0.00  0.00    +0.008 C 
ATOM      4  C   UNL     1      -0.596   1.822   4.915  0.00  0.00    +0.002 C 
ATOM      5  C   UNL     1      -1.303   1.298   3.657  0.00  0.00    +0.009 C 
ATOM      6  C   UNL     1      -2.029  -0.014   3.914  0.00  0.00    +0.041 C 
ATOM      7  C   UNL     1      -1.059  -1.053   4.470  0.00  0.00    +0.119 C 
ATOM      8  C   UNL     1      -0.488  -0.544   5.803  0.00  0.00    +0.031 C 
ATOM      9  C   UNL     1       0.278   0.746   5.573  0.00  0.00    -0.001 C 
ATOM     10  C   UNL     1       0.820   1.336   6.873  0.00  0.00    +0.008 C 
ATOM     11  C   UNL     1       1.195   0.278   7.892  0.00  0.00    +0.032 C 
ATOM     12  C   UNL     1       1.516  -1.014   7.182  0.00  0.00    -0.060 C 
ATOM     13  C   UNL     1       2.718  -1.569   7.299  0.00  0.00    +0.046 C 
ATOM     14  C   UNL     1       3.045  -2.811   6.601  0.00  0.00    +0.156 C 
ATOM     15  O   UNL     1       4.141  -3.313   6.737  0.00  0.00    -0.293 OA
ATOM     16  C   UNL     1       2.019  -3.466   5.711  0.00  0.00    +0.080 C 
ATOM     17  C   UNL     1       1.076  -2.389   5.164  0.00  0.00    +0.019 C 
ATOM     18  C   UNL     1       0.441  -1.643   6.338  0.00  0.00    -0.005 C 
ATOM     19  C   UNL     1      -0.368  -2.623   7.189  0.00  0.00    +0.016 C 
ATOM     20  C   UNL     1      -2.334   2.331   3.198  0.00  0.00    +0.015 C 
ENDROOT
BRANCH   1  21
ATOM     21  C   UNL     1      -0.747   1.538   1.237  0.00  0.00    +0.202 C 
ATOM     22  O   UNL     1      -0.721   2.682   0.852  0.00  0.00    -0.291 OA
BRANCH  21  23
ATOM     23  C   UNL     1      -1.328   0.460   0.359  0.00  0.00    +0.309 C 
BRANCH  23  24
ATOM     24  O   UNL     1      -1.785   1.046  -0.889  0.00  0.00    -0.457 OA
BRANCH  24  25
ATOM     25  C   UNL     1      -2.333   0.214  -1.788  0.00  0.00    +0.308 C 
ATOM     26  O   UNL     1      -2.427  -0.965  -1.542  0.00  0.00    -0.251 OA
BRANCH  25  27
ATOM     27  C   UNL     1      -2.830   0.751  -3.106  0.00  0.00    +0.130 C 
BRANCH  27  28
ATOM     28  C   UNL     1      -3.403  -0.396  -3.941  0.00  0.00    +0.107 C 
BRANCH  28  30
ATOM     29  N   UNL     1      -4.450  -0.695  -6.162  0.00  0.00    -0.313 N 
ATOM     30  C   UNL     1      -3.900   0.140  -5.258  0.00  0.00    +0.214 C 
ATOM     31  O   UNL     1      -3.805   1.324  -5.505  0.00  0.00    -0.276 OA
ATOM     32  H   UNL     1      -4.526  -1.641  -5.964  0.00  0.00    +0.149 HD
BRANCH  29  33
ATOM     33  C   UNL     1      -4.933  -0.173  -7.442  0.00  0.00    +0.070 C 
ATOM     34  C   UNL     1      -3.771  -0.101  -8.435  0.00  0.00    +0.028 C 
BRANCH  33  36
ATOM     35  C   UNL     1      -7.231  -1.076  -7.064  0.00  0.00    +0.005 C 
ATOM     36  C   UNL     1      -6.018  -1.101  -7.994  0.00  0.00    +0.018 C 
ENDBRANCH  33  36
ENDBRANCH  29  33
ENDBRANCH  28  30
ENDBRANCH  27  28
ENDBRANCH  25  27
ENDBRANCH  24  25
ENDBRANCH  23  24
ENDBRANCH  21  23
ENDBRANCH   1  21
BRANCH   7  37
ATOM     37  O   UNL     1      -1.749  -2.286   4.686  0.00  0.00    -0.391 OA
ATOM     38  H   UNL     1      -2.136  -2.665   3.885  0.00  0.00    +0.210 HD
ENDBRANCH   7  37
BRANCH   1  39
ATOM     39  O   UNL     1       0.343  -0.134   2.583  0.00  0.00    -0.380 OA
ATOM     40  H   UNL     1       1.058  -0.260   1.944  0.00  0.00    +0.211 HD
ENDBRANCH   1  39
TORSDOF 11
