REMARK  Name = ZINC21992257
REMARK  16 active torsions:
REMARK  status: ('A' for Active; 'I' for Inactive)
REMARK    1  A    between atoms: C_1  and  C_2
REMARK    2  A    between atoms: C_2  and  C_4
REMARK    3  A    between atoms: C_2  and  N_13
REMARK    4  A    between atoms: C_4  and  C_5
REMARK    5  A    between atoms: C_8  and  O_11
REMARK    6  A    between atoms: O_11  and  C_12
REMARK    7  A    between atoms: N_13  and  C_14
REMARK    8  A    between atoms: N_13  and  C_21
REMARK    9  A    between atoms: C_14  and  C_15
REMARK   10  A    between atoms: C_21  and  C_22
REMARK   11  A    between atoms: C_22  and  C_24
REMARK   12  A    between atoms: C_22  and  O_41
REMARK   13  A    between atoms: C_27  and  O_33
REMARK   14  A    between atoms: C_28  and  N_30
REMARK   15  A    between atoms: O_33  and  C_34
REMARK   16  A    between atoms: C_34  and  C_35
REMARK                            x       y       z     vdW  Elec       q    Type
REMARK                         _______ _______ _______ _____ _____    ______ ____
ROOT
ATOM      1  C   UNL     1       1.669   1.295  -1.816  0.00  0.00    -0.041 C 
ENDROOT
BRANCH   1   2
ATOM      2  N   UNL     1       1.506   1.852  -3.165  0.00  0.00    +0.386 N 
ATOM      3  H   UNL     1       0.440   1.790  -3.430  0.00  0.00    -0.081 HD
BRANCH   2   5
ATOM      4  C   UNL     1       1.518  -0.234  -4.448  0.00  0.00    -0.013 C 
ATOM      5  C   UNL     1       2.261   1.069  -4.152  0.00  0.00    -0.067 C 
BRANCH   5   6
ATOM      6  C   UNL     1       3.650   0.749  -3.595  0.00  0.00    +0.019 C 
BRANCH   6   7
ATOM      7  C   UNL     1       4.452   2.020  -3.485  0.00  0.00    -0.049 A 
ATOM      8  C   UNL     1       4.965   2.613  -4.624  0.00  0.00    +0.007 A 
ATOM      9  C   UNL     1       5.696   3.781  -4.526  0.00  0.00    +0.046 A 
ATOM     10  C   UNL     1       5.926   4.353  -3.283  0.00  0.00    +0.120 A 
ATOM     11  C   UNL     1       5.415   3.753  -2.142  0.00  0.00    +0.046 A 
ATOM     12  C   UNL     1       4.679   2.588  -2.245  0.00  0.00    +0.007 A 
BRANCH  10  13
ATOM     13  O   UNL     1       6.649   5.499  -3.184  0.00  0.00    -0.495 OA
ATOM     14  C   UNL     1       7.144   6.061  -4.401  0.00  0.00    +0.277 C 
ENDBRANCH  10  13
ENDBRANCH   6   7
ENDBRANCH   5   6
ENDBRANCH   2   5
BRANCH   2  15
ATOM     15  C   UNL     1       1.899   3.267  -3.202  0.00  0.00    -0.042 C 
BRANCH  15  16
ATOM     16  C   UNL     1       1.325   3.916  -4.435  0.00  0.00    -0.064 A 
ATOM     17  C   UNL     1       2.037   3.900  -5.620  0.00  0.00    +0.002 A 
ATOM     18  C   UNL     1       1.508   4.490  -6.752  0.00  0.00    +0.000 A 
ATOM     19  C   UNL     1       0.272   5.107  -6.697  0.00  0.00    +0.000 A 
ATOM     20  C   UNL     1      -0.438   5.128  -5.511  0.00  0.00    +0.000 A 
ATOM     21  C   UNL     1       0.089   4.532  -4.380  0.00  0.00    +0.002 A 
ENDBRANCH  15  16
ENDBRANCH   2  15
ENDBRANCH   1   2
BRANCH   1  22
ATOM     22  C   UNL     1       0.559   1.827  -0.907  0.00  0.00    +0.128 C 
BRANCH  22  23
ATOM     23  C   UNL     1       0.796   1.355   0.505  0.00  0.00    -0.019 A 
ATOM     24  C   UNL     1       0.430   0.073   0.874  0.00  0.00    +0.010 A 
ATOM     25  C   UNL     1       0.649  -0.367   2.166  0.00  0.00    +0.048 A 
ATOM     26  C   UNL     1       1.228   0.479   3.098  0.00  0.00    +0.142 A 
ATOM     27  C   UNL     1       1.592   1.772   2.728  0.00  0.00    +0.076 A 
ATOM     28  C   UNL     1       1.374   2.205   1.428  0.00  0.00    +0.033 A 
BRANCH  27  29
ATOM     29  N   UNL     1       2.178   2.632   3.666  0.00  0.00    -0.285 N 
ATOM     30  C   UNL     1       3.094   3.538   3.271  0.00  0.00    +0.330 C 
ATOM     31  O   UNL     1       3.345   3.671   2.092  0.00  0.00    -0.279 OA
ATOM     32  H   UNL     1       1.889   2.568   4.726  0.00  0.00    +0.155 HD
ENDBRANCH  27  29
BRANCH  26  33
ATOM     33  O   UNL     1       1.439   0.049   4.370  0.00  0.00    -0.486 OA
BRANCH  33  34
ATOM     34  C   UNL     1       1.040  -1.288   4.678  0.00  0.00    +0.264 C 
BRANCH  34  35
ATOM     35  C   UNL     1       1.350  -1.585   6.122  0.00  0.00    -0.010 A 
ATOM     36  C   UNL     1       2.575  -2.123   6.470  0.00  0.00    +0.007 A 
ATOM     37  C   UNL     1       2.861  -2.390   7.796  0.00  0.00    +0.000 A 
ATOM     38  C   UNL     1       1.918  -2.130   8.773  0.00  0.00    +0.000 A 
ATOM     39  C   UNL     1       0.691  -1.599   8.424  0.00  0.00    +0.000 A 
ATOM     40  C   UNL     1       0.407  -1.326   7.099  0.00  0.00    +0.007 A 
ENDBRANCH  34  35
ENDBRANCH  33  34
ENDBRANCH  26  33
ENDBRANCH  22  23
BRANCH  22  41
ATOM     41  O   UNL     1      -0.705   1.344  -1.365  0.00  0.00    -0.389 OA
ATOM     42  H   UNL     1      -1.626   1.623  -0.833  0.00  0.00    +0.210 HD
ENDBRANCH  22  41
ENDBRANCH   1  22
TORSDOF 14
