REMARK  Name = ZINC02369935
REMARK  8 active torsions:
REMARK  status: ('A' for Active; 'I' for Inactive)
REMARK    1  A    between atoms: C_1  and  C_2
REMARK    2  A    between atoms: C_4  and  C_26
REMARK    3  A    between atoms: C_6  and  S_8
REMARK    4  A    between atoms: S_8  and  C_9
REMARK    5  A    between atoms: C_9  and  C_10
REMARK    6  A    between atoms: N_12  and  N_13
REMARK    7  A    between atoms: C_14  and  C_15
REMARK    8  A    between atoms: C_24  and  O_25
REMARK                            x       y       z     vdW  Elec       q    Type
REMARK                         _______ _______ _______ _____ _____    ______ ____
ROOT
ATOM      1  C   UNL     1      -2.563   9.406   0.072  0.00  0.00    +0.242 C 
ATOM      2  O   UNL     1      -1.508  10.005   0.065  0.00  0.00    -0.273 OA
ATOM      3  N   UNL     1      -2.572   8.058   0.066  0.00  0.00    -0.206 N 
ATOM      4  H   UNL     1      -3.415   7.579   0.072  0.00  0.00    +0.177 HD
ENDROOT
BRANCH   3   5
ATOM      5  N   UNL     1      -1.363   7.350   0.052  0.00  0.00    -0.188 NA
ATOM      6  C   UNL     1      -1.372   6.050   0.046  0.00  0.00    +0.142 C 
BRANCH   6   7
ATOM      7  C   UNL     1      -0.104   5.307   0.031  0.00  0.00    +0.044 A 
ATOM      8  C   UNL     1      -0.096   3.845   0.024  0.00  0.00    -0.006 A 
ATOM      9  C   UNL     1      -1.286   3.107   0.031  0.00  0.00    +0.009 A 
ATOM     10  C   UNL     1      -1.234   1.745   0.017  0.00  0.00    +0.001 A 
ATOM     11  C   UNL     1      -0.013   1.076   0.008  0.00  0.00    +0.001 A 
ATOM     12  C   UNL     1       1.163   1.762   0.000  0.00  0.00    +0.008 A 
ATOM     13  C   UNL     1       1.148   3.168   0.008  0.00  0.00    -0.017 A 
ATOM     14  C   UNL     1       2.342   3.910   0.000  0.00  0.00    +0.012 A 
ATOM     15  C   UNL     1       2.316   5.269   0.007  0.00  0.00    +0.046 A 
ATOM     16  C   UNL     1       1.117   5.981   0.022  0.00  0.00    +0.126 A 
BRANCH  16  17
ATOM     17  O   UNL     1       1.138   7.338   0.028  0.00  0.00    -0.506 OA
ATOM     18  H   UNL     1       1.135   7.735  -0.854  0.00  0.00    +0.292 HD
ENDBRANCH  16  17
ENDBRANCH   6   7
ENDBRANCH   3   5
BRANCH   1  19
ATOM     19  C   UNL     1      -3.863  10.168   0.088  0.00  0.00    +0.174 C 
BRANCH  19  20
ATOM     20  S   UNL     1      -3.520  11.945   0.092  0.00  0.00    -0.077 S 
BRANCH  20  26
ATOM     21  C   UNL     1      -8.582  11.191   0.137  0.00  0.00    +0.066 C 
ATOM     22  C   UNL     1      -7.431  12.164   0.130  0.00  0.00    +0.043 A 
ATOM     23  C   UNL     1      -7.667  13.530   0.138  0.00  0.00    +0.046 A 
ATOM     24  C   UNL     1      -6.580  14.390   0.132  0.00  0.00    +0.043 A 
ATOM     25  N   UNL     1      -5.357  13.886   0.118  0.00  0.00    -0.227 NA
ATOM     26  C   UNL     1      -5.166  12.574   0.111  0.00  0.00    +0.189 A 
ATOM     27  N   UNL     1      -6.183  11.725   0.111  0.00  0.00    -0.227 NA
ATOM     28  C   UNL     1      -6.789  15.883   0.141  0.00  0.00    +0.066 C 
ENDBRANCH  20  26
ENDBRANCH  19  20
ENDBRANCH   1  19
TORSDOF 6
