REMARK  Name = ZINC03165455
REMARK  9 active torsions:
REMARK  status: ('A' for Active; 'I' for Inactive)
REMARK    1  A    between atoms: C_1  and  C_2
REMARK    2  A    between atoms: C_8  and  C_16
REMARK    3  A    between atoms: C_16  and  O_18
REMARK    4  A    between atoms: O_18  and  C_19
REMARK    5  A    between atoms: C_19  and  C_21
REMARK    6  A    between atoms: C_19  and  C_22
REMARK    7  A    between atoms: N_24  and  C_25
REMARK    8  A    between atoms: C_28  and  S_31
REMARK    9  A    between atoms: S_31  and  N_34
REMARK                            x       y       z     vdW  Elec       q    Type
REMARK                         _______ _______ _______ _____ _____    ______ ____
ROOT
ATOM      1  O   UNL     1       2.585  -1.009   1.138  0.00  0.00    -0.449 OA
ENDROOT
BRANCH   1   2
ATOM      2  C   UNL     1       2.524  -0.334  -0.026  0.00  0.00    +0.341 C 
ATOM      3  O   UNL     1       2.540  -0.937  -1.080  0.00  0.00    -0.245 OA
BRANCH   2  10
ATOM      4  C   UNL     1       7.396   1.498   0.076  0.00  0.00    +0.008 C 
ATOM      5  C   UNL     1       6.043   2.162   0.338  0.00  0.00    -0.009 C 
ATOM      6  C   UNL     1       5.926   3.443  -0.497  0.00  0.00    +0.010 C 
ATOM      7  C   UNL     1       4.690   4.210  -0.035  0.00  0.00    +0.056 C 
ATOM      8  C   UNL     1       3.479   3.310  -0.028  0.00  0.00    +0.046 A 
ATOM      9  C   UNL     1       3.590   1.926  -0.038  0.00  0.00    -0.011 A 
ATOM     10  C   UNL     1       2.437   1.141  -0.021  0.00  0.00    +0.073 A 
ATOM     11  C   UNL     1       1.181   1.795   0.004  0.00  0.00    +0.015 A 
ATOM     12  C   UNL     1      -0.021   1.076   0.022  0.00  0.00    +0.011 A 
ATOM     13  C   UNL     1      -1.206   1.747   0.038  0.00  0.00    +0.001 A 
ATOM     14  C   UNL     1      -1.238   3.140   0.049  0.00  0.00    +0.002 A 
ATOM     15  C   UNL     1      -0.089   3.869   0.033  0.00  0.00    +0.028 A 
ATOM     16  C   UNL     1       1.155   3.212   0.010  0.00  0.00    +0.072 A 
ATOM     17  N   UNL     1       2.297   3.896  -0.005  0.00  0.00    -0.251 NA
ATOM     18  C   UNL     1       4.917   1.216  -0.073  0.00  0.00    +0.041 C 
ENDBRANCH   2  10
ENDBRANCH   1   2
BRANCH   1  19
ATOM     19  C   UNL     1       2.669  -2.457   1.056  0.00  0.00    +0.259 C 
ATOM     20  C   UNL     1       1.259  -3.050   1.054  0.00  0.00    +0.062 C 
BRANCH  19  21
ATOM     21  C   UNL     1       3.434  -2.983   2.244  0.00  0.00    +0.258 C 
ATOM     22  O   UNL     1       3.787  -2.225   3.122  0.00  0.00    -0.271 OA
ATOM     23  N   UNL     1       3.725  -4.296   2.329  0.00  0.00    -0.282 N 
ATOM     24  H   UNL     1       3.386  -4.913   1.661  0.00  0.00    +0.155 HD
BRANCH  23  25
ATOM     25  C   UNL     1       4.517  -4.770   3.381  0.00  0.00    +0.034 A 
ATOM     26  C   UNL     1       5.398  -5.822   3.169  0.00  0.00    +0.025 A 
ATOM     27  C   UNL     1       6.183  -6.284   4.207  0.00  0.00    +0.030 A 
ATOM     28  C   UNL     1       6.084  -5.707   5.460  0.00  0.00    +0.105 A 
ATOM     29  C   UNL     1       5.203  -4.662   5.676  0.00  0.00    +0.030 A 
ATOM     30  C   UNL     1       4.420  -4.192   4.640  0.00  0.00    +0.025 A 
BRANCH  28  31
ATOM     31  S   UNL     1       7.082  -6.303   6.784  0.00  0.00    +0.056 S 
ATOM     32  O   UNL     1       8.215  -6.923   6.192  0.00  0.00    -0.153 OA
ATOM     33  O   UNL     1       7.197  -5.238   7.718  0.00  0.00    -0.153 OA
BRANCH  31  34
ATOM     34  N   UNL     1       6.227  -7.503   7.540  0.00  0.00    -0.204 NA
ATOM     35  H   UNL     1       6.695  -8.234   7.973  0.00  0.00    +0.144 HD
ATOM     36  H   UNL     1       5.257  -7.476   7.548  0.00  0.00    +0.144 HD
ENDBRANCH  31  34
ENDBRANCH  28  31
ENDBRANCH  23  25
ENDBRANCH  19  21
ENDBRANCH   1  19
TORSDOF 7
