REMARK  Name = ZINC33668217
REMARK  8 active torsions:
REMARK  status: ('A' for Active; 'I' for Inactive)
REMARK    1  A    between atoms: C_1  and  C_2
REMARK    2  A    between atoms: C_2  and  C_3
REMARK    3  A    between atoms: C_3  and  C_5
REMARK    4  A    between atoms: C_3  and  C_6
REMARK    5  A    between atoms: C_6  and  C_8
REMARK    6  A    between atoms: C_6  and  N_23
REMARK    7  A    between atoms: C_14  and  C_16
REMARK    8  A    between atoms: N_26  and  C_27
REMARK                            x       y       z     vdW  Elec       q    Type
REMARK                         _______ _______ _______ _____ _____    ______ ____
ROOT
ATOM      1  C   UNL     1       2.590   4.327  -0.238  0.00  0.00    +0.163 C 
ENDROOT
BRANCH   1   2
ATOM      2  C   UNL     1       2.643   5.819  -0.029  0.00  0.00    +0.239 C 
ATOM      3  O   UNL     1       1.761   6.376   0.589  0.00  0.00    -0.273 OA
ATOM      4  N   UNL     1       3.671   6.533  -0.529  0.00  0.00    -0.262 N 
ATOM      5  C   UNL     1       3.775   7.890  -0.249  0.00  0.00    +0.188 A 
ATOM      6  N   UNL     1       2.985   8.675   0.473  0.00  0.00    -0.125 NA
ATOM      7  N   UNL     1       3.231   9.901   0.634  0.00  0.00    -0.140 NA
ATOM      8  C   UNL     1       4.287  10.483   0.080  0.00  0.00    +0.134 A 
ATOM      9  S   UNL     1       5.010   9.079  -0.764  0.00  0.00    -0.030 S 
ATOM     10  H   UNL     1       4.427   6.042  -1.159  0.00  0.00    +0.157 HD
BRANCH   8  11
ATOM     11  C   UNL     1       4.739  11.890   0.142  0.00  0.00    +0.009 A 
ATOM     12  C   UNL     1       5.901  12.283  -0.524  0.00  0.00    +0.013 A 
ATOM     13  C   UNL     1       6.315  13.597  -0.466  0.00  0.00    +0.039 A 
ATOM     14  C   UNL     1       5.585  14.525   0.260  0.00  0.00    +0.123 A 
ATOM     15  C   UNL     1       4.433  14.139   0.927  0.00  0.00    +0.039 A 
ATOM     16  C   UNL     1       4.007  12.828   0.872  0.00  0.00    +0.013 A 
ATOM     17  F   UNL     1       5.997  15.810   0.317  0.00  0.00    -0.205 F 
ENDBRANCH   8  11
ENDBRANCH   1   2
BRANCH   1  18
ATOM     18  N   UNL     1       1.452   3.771   0.499  0.00  0.00    -0.288 N 
ATOM     19  C   UNL     1       1.558   2.565   1.091  0.00  0.00    +0.305 C 
ATOM     20  O   UNL     1       2.621   1.974   1.082  0.00  0.00    -0.252 OA
ATOM     21  N   UNL     1       0.486   2.013   1.692  0.00  0.00    -0.267 N 
ATOM     22  H   UNL     1       0.512   4.338   0.569  0.00  0.00    +0.151 HD
ATOM     23  H   UNL     1      -0.497   2.501   1.619  0.00  0.00    +0.156 HD
BRANCH  21  24
ATOM     24  C   UNL     1       0.623   0.818   2.410  0.00  0.00    +0.070 A 
ATOM     25  C   UNL     1       1.871   0.423   2.870  0.00  0.00    +0.026 A 
ATOM     26  C   UNL     1       2.003  -0.754   3.583  0.00  0.00    +0.002 A 
ATOM     27  C   UNL     1       0.894  -1.543   3.829  0.00  0.00    +0.003 A 
ATOM     28  C   UNL     1      -0.350  -1.156   3.368  0.00  0.00    +0.040 A 
ATOM     29  C   UNL     1      -0.490   0.023   2.659  0.00  0.00    +0.145 A 
ATOM     30  F   UNL     1      -1.706   0.401   2.208  0.00  0.00    -0.204 F 
ENDBRANCH  21  24
ENDBRANCH   1  18
BRANCH   1  31
ATOM     31  C   UNL     1       2.427   4.027  -1.730  0.00  0.00    +0.015 C 
ATOM     32  C   UNL     1       2.537   2.519  -1.962  0.00  0.00    +0.010 C 
BRANCH  31  34
ATOM     33  C   UNL     1       1.022   6.046  -2.170  0.00  0.00    +0.004 C 
ATOM     34  C   UNL     1       1.056   4.516  -2.202  0.00  0.00    +0.002 C 
ENDBRANCH  31  34
ENDBRANCH   1  31
TORSDOF 6
