REMARK  Name = ZINC39623923
REMARK  8 active torsions:
REMARK  status: ('A' for Active; 'I' for Inactive)
REMARK    1  A    between atoms: C_1  and  C_2
REMARK    2  A    between atoms: C_2  and  C_3
REMARK    3  A    between atoms: C_3  and  C_4
REMARK    4  A    between atoms: C_4  and  N_5
REMARK    5  A    between atoms: C_6  and  C_8
REMARK    6  A    between atoms: C_19  and  C_21
REMARK    7  A    between atoms: C_22  and  C_34
REMARK    8  A    between atoms: C_25  and  C_26
REMARK                            x       y       z     vdW  Elec       q    Type
REMARK                         _______ _______ _______ _____ _____    ______ ____
ROOT
ATOM      1  C   UNL     1       2.906  -2.684   4.005  0.00  0.00    +0.100 C 
ATOM      2  C   UNL     1       2.027  -2.632   5.275  0.00  0.00    +0.121 C 
ATOM      3  N   UNL     1       1.416  -3.979   5.363  0.00  0.00    -0.296 N 
ATOM      4  C   UNL     1       2.501  -4.904   4.957  0.00  0.00    +0.115 C 
ATOM      5  C   UNL     1       3.218  -4.177   3.802  0.00  0.00    -0.004 C 
ATOM      6  C   UNL     1       2.670  -4.653   2.460  0.00  0.00    -0.010 C 
ATOM      7  C   UNL     1       3.042  -6.125   2.256  0.00  0.00    -0.082 C 
ATOM      8  N   UNL     1       4.502  -6.272   2.291  0.00  0.00    +0.379 N 
ATOM      9  C   UNL     1       5.011  -5.899   3.616  0.00  0.00    -0.082 C 
ATOM     10  C   UNL     1       4.722  -4.418   3.878  0.00  0.00    -0.010 C 
ATOM     11  C   UNL     1       0.157  -4.293   5.729  0.00  0.00    +0.252 C 
ATOM     12  O   UNL     1      -0.197  -5.456   5.752  0.00  0.00    -0.270 OA
ATOM     13  H   UNL     1       4.747  -7.231   2.096  0.00  0.00    -0.086 HD
ATOM     14  H   UNL     1       4.916  -5.673   1.593  0.00  0.00    -0.086 HD
ENDROOT
BRANCH  11  15
ATOM     15  C   UNL     1      -0.788  -3.227   6.102  0.00  0.00    +0.106 A 
ATOM     16  C   UNL     1      -1.728  -2.655   5.296  0.00  0.00    +0.147 A 
ATOM     17  O   UNL     1      -2.382  -1.731   6.005  0.00  0.00    -0.359 OA
ATOM     18  N   UNL     1      -1.861  -1.689   7.318  0.00  0.00    -0.077 NA
ATOM     19  C   UNL     1      -0.906  -2.579   7.417  0.00  0.00    +0.128 A 
ATOM     20  C   UNL     1      -1.984  -3.005   3.853  0.00  0.00    +0.090 C 
BRANCH  19  21
ATOM     21  C   UNL     1      -0.094  -2.873   8.622  0.00  0.00    +0.041 A 
ATOM     22  C   UNL     1       0.670  -1.867   9.215  0.00  0.00    +0.052 A 
ATOM     23  C   UNL     1       1.424  -2.148  10.338  0.00  0.00    +0.021 A 
ATOM     24  C   UNL     1       1.422  -3.423  10.874  0.00  0.00    +0.003 A 
ATOM     25  C   UNL     1       0.667  -4.424  10.291  0.00  0.00    +0.021 A 
ATOM     26  C   UNL     1      -0.096  -4.155   9.172  0.00  0.00    +0.052 A 
ATOM     27 CL   UNL     1      -1.049  -5.411   8.446  0.00  0.00    -0.083 Cl
ATOM     28 CL   UNL     1       0.673  -0.267   8.542  0.00  0.00    -0.083 Cl
ENDBRANCH  19  21
ENDBRANCH  11  15
BRANCH   1  30
ATOM     29  N   UNL     1       2.818  -1.576   1.795  0.00  0.00    -0.315 N 
ATOM     30  C   UNL     1       2.150  -2.141   2.820  0.00  0.00    +0.218 C 
ATOM     31  O   UNL     1       0.939  -2.211   2.790  0.00  0.00    -0.275 OA
ATOM     32  H   UNL     1       3.786  -1.520   1.820  0.00  0.00    +0.149 HD
BRANCH  29  33
ATOM     33  C   UNL     1       2.083  -1.047   0.644  0.00  0.00    +0.104 C 
BRANCH  33  34
ATOM     34  C   UNL     1       3.071  -0.467  -0.369  0.00  0.00    +0.018 C 
BRANCH  34  36
ATOM     35  C   UNL     1       3.292   0.667  -2.585  0.00  0.00    +0.004 C 
ATOM     36  C   UNL     1       2.303   0.086  -1.572  0.00  0.00    -0.002 C 
ENDBRANCH  34  36
ENDBRANCH  33  34
ENDBRANCH  29  33
ENDBRANCH   1  30
TORSDOF 6
