REMARK  Name = ZINC63258992
REMARK  4 active torsions:
REMARK  status: ('A' for Active; 'I' for Inactive)
REMARK    1  A    between atoms: C_1  and  C_2
REMARK    2  A    between atoms: C_2  and  C_16
REMARK    3  A    between atoms: N_3  and  N_4
REMARK    4  A    between atoms: C_5  and  C_7
REMARK                            x       y       z     vdW  Elec       q    Type
REMARK                         _______ _______ _______ _____ _____    ______ ____
ROOT
ATOM      1  C   UNL     1      -0.018   1.503   0.010  0.00  0.00    +0.068 C 
ATOM      2  C   UNL     1       0.002  -0.004   0.002  0.00  0.00    +0.063 C 
ATOM      3  N   UNL     1       0.022  -0.660   1.125  0.00  0.00    -0.184 NA
ENDROOT
BRANCH   2   4
ATOM      4  C   UNL     1      -0.000  -0.733  -1.277  0.00  0.00    -0.001 A 
ATOM      5  C   UNL     1      -0.015  -0.029  -2.485  0.00  0.00    +0.011 A 
ATOM      6  C   UNL     1      -0.015  -0.717  -3.678  0.00  0.00    +0.017 A 
ATOM      7  C   UNL     1      -0.001  -2.108  -3.688  0.00  0.00    +0.034 A 
ATOM      8  C   UNL     1       0.010  -2.821  -2.489  0.00  0.00    +0.046 A 
ATOM      9  C   UNL     1       0.019  -2.131  -1.286  0.00  0.00    +0.034 A 
ATOM     10  N   UNL     1       0.011  -4.213  -2.461  0.00  0.00    -0.313 N 
ATOM     11  C   UNL     1       0.473  -5.029  -3.490  0.00  0.00    +0.045 A 
ATOM     12  C   UNL     1       0.897  -6.319  -3.185  0.00  0.00    +0.024 A 
ATOM     13  C   UNL     1       1.356  -7.157  -4.182  0.00  0.00    +0.002 A 
ATOM     14  C   UNL     1       1.399  -6.721  -5.493  0.00  0.00    +0.001 A 
ATOM     15  C   UNL     1       0.982  -5.441  -5.808  0.00  0.00    +0.017 A 
ATOM     16  C   UNL     1       0.521  -4.592  -4.811  0.00  0.00    +0.034 A 
ATOM     17  S   UNL     1       0.005  -2.962  -5.229  0.00  0.00    -0.086 S 
ATOM     18  H   UNL     1      -0.337  -4.647  -1.666  0.00  0.00    +0.152 HD
ENDBRANCH   2   4
BRANCH   3  19
ATOM     19  N   UNL     1       0.024   0.034   2.342  0.00  0.00    -0.203 N 
ATOM     20  C   UNL     1       0.044  -0.646   3.505  0.00  0.00    +0.262 C 
ATOM     21  O   UNL     1       0.060  -1.864   3.498  0.00  0.00    -0.269 OA
ATOM     22  H   UNL     1       0.011   1.004   2.347  0.00  0.00    +0.178 HD
BRANCH  20  23
ATOM     23  C   UNL     1       0.046   0.079   4.777  0.00  0.00    +0.044 C 
ATOM     24  C   UNL     1       0.071  -0.463   6.046  0.00  0.00    +0.008 A 
ATOM     25  C   UNL     1       0.101  -1.798   6.522  0.00  0.00    +0.010 A 
ATOM     26  C   UNL     1       0.121  -2.046   7.850  0.00  0.00    +0.001 A 
ATOM     27  C   UNL     1       0.114  -1.020   8.808  0.00  0.00    +0.002 A 
ATOM     28  C   UNL     1       0.086   0.285   8.458  0.00  0.00    +0.026 A 
ATOM     29  C   UNL     1       0.063   0.643   7.032  0.00  0.00    +0.043 A 
ATOM     30  N   UNL     1       0.035   1.797   6.424  0.00  0.00    -0.380 N 
ATOM     31  C   UNL     1       0.028   1.579   4.974  0.00  0.00    +0.154 C 
ATOM     32  H   UNL     1       0.025   2.663   6.862  0.00  0.00    +0.160 HD
ENDBRANCH  20  23
ENDBRANCH   3  19
TORSDOF 3
