REMARK  Name = ZINC51097815
REMARK  10 active torsions:
REMARK  status: ('A' for Active; 'I' for Inactive)
REMARK    1  A    between atoms: C_1  and  C_2
REMARK    2  A    between atoms: C_5  and  C_7
REMARK    3  A    between atoms: N_9  and  C_10
REMARK    4  A    between atoms: N_13  and  C_16
REMARK    5  A    between atoms: C_16  and  C_18
REMARK    6  A    between atoms: C_16  and  C_19
REMARK    7  A    between atoms: N_21  and  C_22
REMARK    8  A    between atoms: C_23  and  C_30
REMARK    9  A    between atoms: C_25  and  C_29
REMARK   10  A    between atoms: C_27  and  C_28
REMARK                            x       y       z     vdW  Elec       q    Type
REMARK                         _______ _______ _______ _____ _____    ______ ____
ROOT
ATOM      1  C   UNL     1       4.160  -9.023  -1.312  0.00  0.00    +0.070 C 
ATOM      2  C   UNL     1       4.420  -9.303   0.171  0.00  0.00    +0.004 C 
ATOM      3  C   UNL     1       5.845  -8.871   0.523  0.00  0.00    -0.076 C 
ATOM      4  N   UNL     1       6.005  -7.436   0.260  0.00  0.00    +0.387 N 
ATOM      5  C   UNL     1       5.828  -7.170  -1.173  0.00  0.00    -0.076 C 
ATOM      6  C   UNL     1       4.402  -7.537  -1.591  0.00  0.00    +0.004 C 
ATOM      7  H   UNL     1       5.315  -6.920   0.784  0.00  0.00    -0.081 HD
ENDROOT
BRANCH   1  10
ATOM      8  C   UNL     1       2.449 -10.631  -1.963  0.00  0.00    +0.280 C 
ATOM      9  O   UNL     1       3.308 -11.492  -1.984  0.00  0.00    -0.267 OA
ATOM     10  N   UNL     1       2.773  -9.363  -1.639  0.00  0.00    -0.306 N 
ATOM     11  H   UNL     1       2.088  -8.677  -1.622  0.00  0.00    +0.149 HD
BRANCH   8  16
ATOM     12  C   UNL     1      -2.471 -10.178  -2.775  0.00  0.00    +0.086 C 
ATOM     13  C   UNL     1      -1.096 -10.780  -2.647  0.00  0.00    +0.103 A 
ATOM     14  C   UNL     1      -0.781 -12.077  -2.859  0.00  0.00    +0.045 A 
ATOM     15  C   UNL     1       0.598 -12.210  -2.634  0.00  0.00    +0.055 A 
ATOM     16  C   UNL     1       1.061 -10.972  -2.290  0.00  0.00    +0.189 A 
ATOM     17  O   UNL     1       0.018 -10.116  -2.309  0.00  0.00    -0.455 OA
ENDBRANCH   8  16
ENDBRANCH   1  10
BRANCH   4  18
ATOM     18  C   UNL     1       7.349  -7.010   0.672  0.00  0.00    +0.016 C 
ATOM     19  C   UNL     1       7.503  -5.506   0.435  0.00  0.00    -0.004 C 
BRANCH  18  20
ATOM     20  C   UNL     1       7.544  -7.311   2.136  0.00  0.00    +0.203 C 
ATOM     21  O   UNL     1       6.588  -7.334   2.883  0.00  0.00    -0.277 OA
ATOM     22  N   UNL     1       8.780  -7.553   2.616  0.00  0.00    -0.286 N 
ATOM     23  H   UNL     1       9.553  -7.452   2.038  0.00  0.00    +0.155 HD
BRANCH  22  24
ATOM     24  C   UNL     1       8.948  -7.950   3.947  0.00  0.00    +0.039 A 
ATOM     25  C   UNL     1       9.608  -9.136   4.241  0.00  0.00    -0.029 A 
ATOM     26  C   UNL     1       9.773  -9.526   5.556  0.00  0.00    +0.008 A 
ATOM     27  C   UNL     1       9.281  -8.736   6.579  0.00  0.00    -0.050 A 
ATOM     28  C   UNL     1       8.623  -7.555   6.289  0.00  0.00    +0.008 A 
ATOM     29  C   UNL     1       8.460  -7.157   4.977  0.00  0.00    -0.029 A 
ATOM     30  C   UNL     1       7.749  -5.866   4.663  0.00  0.00    +0.045 C 
ATOM     31  C   UNL     1       9.462  -9.164   8.012  0.00  0.00    +0.044 C 
ATOM     32  C   UNL     1      10.144  -9.997   3.126  0.00  0.00    +0.045 C 
ENDBRANCH  22  24
ENDBRANCH  18  20
ENDBRANCH   4  18
TORSDOF 5
