REMARK  Name = ZINC42014655
REMARK  3 active torsions:
REMARK  status: ('A' for Active; 'I' for Inactive)
REMARK    1  A    between atoms: C_3  and  N_8
REMARK    2  A    between atoms: C_9  and  C_13
REMARK    3  A    between atoms: C_18  and  N_19
REMARK                            x       y       z     vdW  Elec       q    Type
REMARK                         _______ _______ _______ _____ _____    ______ ____
ROOT
ATOM      1  N   UNL     1       3.595   2.110  -0.044  0.00  0.00    -0.193 N 
ATOM      2  C   UNL     1       4.732   1.831   0.658  0.00  0.00    +0.189 A 
ATOM      3  N   UNL     1       5.597   2.785   0.381  0.00  0.00    -0.108 NA
ATOM      4  N   UNL     1       5.086   3.632  -0.438  0.00  0.00    -0.022 NA
ATOM      5  N   UNL     1       3.882   3.293  -0.748  0.00  0.00    -0.039 NA
ENDROOT
BRANCH   1   8
ATOM      6  C   UNL     1       0.563   0.434  -1.282  0.00  0.00    +0.003 A 
ATOM      7  C   UNL     1       1.738   1.161  -1.264  0.00  0.00    +0.028 A 
ATOM      8  C   UNL     1       2.403   1.373  -0.065  0.00  0.00    +0.070 A 
ATOM      9  C   UNL     1       1.886   0.854   1.115  0.00  0.00    +0.043 A 
ATOM     10  C   UNL     1       0.711   0.128   1.091  0.00  0.00    +0.020 A 
ATOM     11  C   UNL     1       0.050  -0.082  -0.107  0.00  0.00    +0.015 A 
ATOM     12 BR   UNL     1       0.005  -0.580   2.696  0.00  0.00    -0.050 Br
ENDBRANCH   1   8
BRANCH   2  13
ATOM     13  C   UNL     1       4.949   0.679   1.559  0.00  0.00    +0.043 A 
ATOM     14  C   UNL     1       4.627  -0.611   1.138  0.00  0.00    +0.033 A 
ATOM     15  C   UNL     1       4.832  -1.683   1.983  0.00  0.00    +0.042 A 
ATOM     16  C   UNL     1       5.358  -1.483   3.250  0.00  0.00    +0.022 A 
ATOM     17  C   UNL     1       5.681  -0.210   3.678  0.00  0.00    +0.025 A 
ATOM     18  C   UNL     1       5.487   0.877   2.838  0.00  0.00    +0.036 A 
ATOM     19 CL   UNL     1       4.430  -3.288   1.457  0.00  0.00    -0.084 Cl
BRANCH  18  20
ATOM     20  N   UNL     1       5.818   2.161   3.267  0.00  0.00    -0.357 N 
ATOM     21  H   UNL     1       5.677   2.920   2.680  0.00  0.00    +0.142 HD
ATOM     22  H   UNL     1       6.190   2.296   4.153  0.00  0.00    +0.142 HD
ENDBRANCH  18  20
ENDBRANCH   2  13
TORSDOF 3
