REMARK  Name = ZINC41358698
REMARK  5 active torsions:
REMARK  status: ('A' for Active; 'I' for Inactive)
REMARK    1  A    between atoms: C_1  and  O_2
REMARK    2  A    between atoms: O_2  and  C_3
REMARK    3  A    between atoms: C_8  and  C_9
REMARK    4  A    between atoms: C_11  and  O_12
REMARK    5  A    between atoms: C_21  and  C_23
REMARK                            x       y       z     vdW  Elec       q    Type
REMARK                         _______ _______ _______ _____ _____    ______ ____
ROOT
ATOM      1  C   UNL     1      -0.418  -3.064  -0.680  0.00  0.00    +0.143 A 
ATOM      2  C   UNL     1       0.735  -2.374  -1.003  0.00  0.00    +0.093 A 
ATOM      3  C   UNL     1       1.959  -3.041  -1.019  0.00  0.00    +0.131 A 
ATOM      4  C   UNL     1       1.978  -4.422  -0.699  0.00  0.00    +0.059 A 
ATOM      5  C   UNL     1       3.182  -5.143  -0.699  0.00  0.00    +0.017 A 
ATOM      6  C   UNL     1       3.182  -6.467  -0.389  0.00  0.00    +0.024 A 
ATOM      7  C   UNL     1       1.979  -7.120  -0.068  0.00  0.00    +0.037 A 
ATOM      8  C   UNL     1       0.773  -6.415  -0.063  0.00  0.00    +0.070 A 
ATOM      9  C   UNL     1       0.765  -5.068  -0.377  0.00  0.00    +0.141 A 
ATOM     10  O   UNL     1      -0.390  -4.370  -0.372  0.00  0.00    -0.454 OA
ATOM     11  N   UNL     1       1.989  -8.444   0.240  0.00  0.00    -0.281 N 
ATOM     12  C   UNL     1       0.933  -8.999   0.819  0.00  0.00    +0.248 C 
ATOM     13  O   UNL     1       0.002  -8.300   1.188  0.00  0.00    -0.270 OA
ATOM     14  H   UNL     1       2.769  -8.983   0.036  0.00  0.00    +0.155 HD
ENDROOT
BRANCH  12  15
ATOM     15  C   UNL     1       0.883 -10.467   1.019  0.00  0.00    +0.038 A 
ATOM     16  C   UNL     1       1.947 -11.266   0.604  0.00  0.00    +0.013 A 
ATOM     17  C   UNL     1       1.895 -12.632   0.792  0.00  0.00    +0.002 A 
ATOM     18  C   UNL     1       0.791 -13.210   1.392  0.00  0.00    +0.020 A 
ATOM     19  C   UNL     1      -0.269 -12.421   1.806  0.00  0.00    +0.042 A 
ATOM     20  C   UNL     1      -0.226 -11.052   1.628  0.00  0.00    +0.033 A 
ATOM     21 CL   UNL     1      -1.652 -13.154   2.557  0.00  0.00    -0.084 Cl
ENDBRANCH  12  15
BRANCH   1  27
ATOM     22  C   UNL     1      -2.903  -3.054  -0.473  0.00  0.00    +0.131 A 
ATOM     23  C   UNL     1      -4.108  -2.369  -0.457  0.00  0.00    +0.046 A 
ATOM     24  C   UNL     1      -4.129  -0.999  -0.634  0.00  0.00    +0.004 A 
ATOM     25  C   UNL     1      -2.949  -0.299  -0.830  0.00  0.00    +0.001 A 
ATOM     26  C   UNL     1      -1.742  -0.963  -0.850  0.00  0.00    +0.015 A 
ATOM     27  C   UNL     1      -1.705  -2.349  -0.666  0.00  0.00    +0.059 A 
BRANCH  22  29
ATOM     28  C   UNL     1      -4.139  -5.049  -0.108  0.00  0.00    +0.277 C 
ATOM     29  O   UNL     1      -2.881  -4.399  -0.299  0.00  0.00    -0.494 OA
ENDBRANCH  22  29
ENDBRANCH   1  27
BRANCH   3  30
ATOM     30  O   UNL     1       3.099  -2.388  -1.332  0.00  0.00    -0.506 OA
ATOM     31  H   UNL     1       2.973  -1.450  -1.533  0.00  0.00    +0.292 HD
ENDBRANCH   3  30
TORSDOF 4
