REMARK  Name = ZINC12402257
REMARK  13 active torsions:
REMARK  status: ('A' for Active; 'I' for Inactive)
REMARK    1  A    between atoms: C_1  and  C_2
REMARK    2  A    between atoms: C_2  and  C_36
REMARK    3  A    between atoms: N_16  and  C_19
REMARK    4  A    between atoms: C_19  and  C_20
REMARK    5  A    between atoms: N_22  and  C_23
REMARK    6  A    between atoms: C_23  and  C_24
REMARK    7  A    between atoms: C_23  and  C_25
REMARK    8  A    between atoms: C_23  and  C_26
REMARK    9  A    between atoms: C_27  and  C_34
REMARK   10  A    between atoms: C_28  and  N_33
REMARK   11  A    between atoms: N_29  and  N_30
REMARK   12  A    between atoms: N_30  and  C_31
REMARK   13  A    between atoms: N_30  and  C_32
REMARK                            x       y       z     vdW  Elec       q    Type
REMARK                         _______ _______ _______ _____ _____    ______ ____
ROOT
ATOM      1  C   UNL     1      -1.771  -1.277   1.732  0.00  0.00    +0.011 C 
ATOM      2  C   UNL     1      -2.420  -0.367   2.776  0.00  0.00    -0.023 C 
ATOM      3  C   UNL     1      -3.583   0.399   2.141  0.00  0.00    +0.059 C 
ATOM      4  C   UNL     1      -3.065   1.263   1.018  0.00  0.00    +0.038 C 
ATOM      5  C   UNL     1      -1.821   1.788   1.061  0.00  0.00    +0.038 C 
ATOM      6  C   UNL     1      -0.962   1.527   2.143  0.00  0.00    +0.163 C 
ATOM      7  O   UNL     1       0.148   2.021   2.155  0.00  0.00    -0.292 OA
ATOM      8  C   UNL     1      -1.391   0.648   3.285  0.00  0.00    +0.086 C 
ATOM      9  C   UNL     1      -1.317   2.667  -0.053  0.00  0.00    +0.141 C 
ATOM     10  C   UNL     1      -1.289   4.100   0.383  0.00  0.00    -0.001 A 
ATOM     11  C   UNL     1      -2.296   4.952   0.780  0.00  0.00    +0.007 A 
ATOM     12  C   UNL     1      -1.927   6.250   1.119  0.00  0.00    +0.000 A 
ATOM     13  C   UNL     1      -0.612   6.661   1.060  0.00  0.00    +0.002 A 
ATOM     14  C   UNL     1       0.407   5.810   0.661  0.00  0.00    +0.024 A 
ATOM     15  C   UNL     1       0.050   4.504   0.319  0.00  0.00    +0.042 A 
ATOM     16  N   UNL     1       0.849   3.458  -0.105  0.00  0.00    -0.261 N 
ATOM     17  C   UNL     1       0.134   2.339  -0.343  0.00  0.00    +0.241 C 
ATOM     18  O   UNL     1       0.570   1.272  -0.722  0.00  0.00    -0.274 OA
ATOM     19  C   UNL     1      -2.137   2.501  -1.298  0.00  0.00    +0.090 C 
ATOM     20  C   UNL     1      -3.374   1.938  -1.248  0.00  0.00    +0.117 C 
ATOM     21  N   UNL     1      -3.887   1.508  -0.049  0.00  0.00    -0.223 N 
ATOM     22  C   UNL     1      -2.932  -1.210   3.946  0.00  0.00    +0.011 C 
ENDROOT
BRANCH  21  23
ATOM     23  N   UNL     1      -5.234   1.322   0.082  0.00  0.00    -0.227 NA
ATOM     24  C   UNL     1      -5.973   2.528  -0.315  0.00  0.00    +0.128 C 
ATOM     25  C   UNL     1      -5.681   0.154  -0.689  0.00  0.00    +0.128 C 
ENDBRANCH  21  23
BRANCH  20  26
ATOM     26  N   UNL     1      -4.111   1.800  -2.400  0.00  0.00    -0.344 N 
ATOM     27  H   UNL     1      -3.671   1.829  -3.264  0.00  0.00    +0.144 HD
ATOM     28  H   UNL     1      -5.071   1.673  -2.348  0.00  0.00    +0.144 HD
ENDBRANCH  20  26
BRANCH  19  29
ATOM     29  C   UNL     1      -1.610   2.940  -2.555  0.00  0.00    +0.100 C 
ATOM     30  N   UNL     1      -1.192   3.289  -3.552  0.00  0.00    -0.191 NA
ENDBRANCH  19  29
BRANCH  16  31
ATOM     31  C   UNL     1       2.300   3.554  -0.277  0.00  0.00    +0.209 C 
BRANCH  31  32
ATOM     32  C   UNL     1       2.612   3.992  -1.685  0.00  0.00    +0.231 C 
ATOM     33  O   UNL     1       1.710   4.203  -2.468  0.00  0.00    -0.274 OA
ATOM     34  N   UNL     1       3.893   4.149  -2.075  0.00  0.00    -0.309 N 
ATOM     35  H   UNL     1       4.614   3.980  -1.448  0.00  0.00    +0.149 HD
BRANCH  34  36
ATOM     36  C   UNL     1       4.195   4.574  -3.443  0.00  0.00    +0.026 C 
ATOM     37  C   UNL     1       3.559   5.941  -3.705  0.00  0.00    +0.031 C 
ATOM     38  C   UNL     1       5.711   4.674  -3.623  0.00  0.00    +0.031 C 
ATOM     39  C   UNL     1       3.631   3.552  -4.432  0.00  0.00    +0.031 C 
ENDBRANCH  34  36
ENDBRANCH  31  32
ENDBRANCH  16  31
TORSDOF 6
