REMARK  Name = ZINC62571974
REMARK  4 active torsions:
REMARK  status: ('A' for Active; 'I' for Inactive)
REMARK    1  A    between atoms: C_1  and  N_2
REMARK    2  A    between atoms: C_10  and  N_12
REMARK    3  A    between atoms: N_12  and  S_13
REMARK    4  A    between atoms: S_13  and  C_16
REMARK                            x       y       z     vdW  Elec       q    Type
REMARK                         _______ _______ _______ _____ _____    ______ ____
ROOT
ATOM      1  C   UNL     1      -0.018   1.461   0.010  0.00  0.00    +0.129 C 
ATOM      2  N   UNL     1       0.002  -0.004   0.002  0.00  0.00    -0.327 N 
ATOM      3  C   UNL     1      -1.248  -0.783   0.004  0.00  0.00    +0.146 C 
ATOM      4  C   UNL     1      -1.061  -1.957   0.975  0.00  0.00    +0.248 C 
ATOM      5  O   UNL     1       0.059  -2.736   0.548  0.00  0.00    -0.488 OA
ATOM      6  C   UNL     1       1.218  -2.080   0.271  0.00  0.00    +0.143 A 
ATOM      7  C   UNL     1       1.216  -0.716  -0.013  0.00  0.00    +0.072 A 
ATOM      8  C   UNL     1       2.401  -0.060  -0.304  0.00  0.00    +0.028 A 
ATOM      9  C   UNL     1       3.593  -0.759  -0.316  0.00  0.00    +0.026 A 
ATOM     10  C   UNL     1       3.603  -2.119  -0.036  0.00  0.00    +0.052 A 
ATOM     11  C   UNL     1       2.415  -2.779   0.266  0.00  0.00    +0.072 A 
ENDROOT
BRANCH  10  12
ATOM     12  N   UNL     1       4.811  -2.826  -0.048  0.00  0.00    -0.216 N 
ATOM     13  H   UNL     1       4.864  -3.689  -0.487  0.00  0.00    +0.174 HD
BRANCH  12  14
ATOM     14  S   UNL     1       6.149  -2.189   0.691  0.00  0.00    +0.072 S 
ATOM     15  O   UNL     1       7.192  -3.142   0.532  0.00  0.00    -0.150 OA
ATOM     16  O   UNL     1       6.266  -0.849   0.234  0.00  0.00    -0.150 OA
BRANCH  14  17
ATOM     17  C   UNL     1       5.802  -2.105   2.416  0.00  0.00    +0.108 A 
ATOM     18  C   UNL     1       5.216  -0.973   2.949  0.00  0.00    +0.029 A 
ATOM     19  C   UNL     1       4.944  -0.906   4.302  0.00  0.00    +0.002 A 
ATOM     20  C   UNL     1       5.257  -1.973   5.123  0.00  0.00    +0.000 A 
ATOM     21  C   UNL     1       5.843  -3.107   4.591  0.00  0.00    +0.002 A 
ATOM     22  C   UNL     1       6.111  -3.174   3.236  0.00  0.00    +0.029 A 
ENDBRANCH  14  17
ENDBRANCH  12  14
ENDBRANCH  10  12
TORSDOF 3
