REMARK  Name = ZINC34750120
REMARK  10 active torsions:
REMARK  status: ('A' for Active; 'I' for Inactive)
REMARK    1  A    between atoms: C_1  and  C_2
REMARK    2  A    between atoms: C_2  and  C_3
REMARK    3  A    between atoms: C_3  and  C_4
REMARK    4  A    between atoms: C_4  and  N_5
REMARK    5  A    between atoms: C_18  and  S_20
REMARK    6  A    between atoms: S_20  and  C_21
REMARK    7  A    between atoms: C_21  and  C_22
REMARK    8  A    between atoms: C_25  and  N_28
REMARK    9  A    between atoms: C_33  and  C_35
REMARK   10  A    between atoms: C_33  and  C_36
REMARK                            x       y       z     vdW  Elec       q    Type
REMARK                         _______ _______ _______ _____ _____    ______ ____
ROOT
ATOM      1  N   UNL     1       1.889  -1.599  -3.348  0.00  0.00    +0.382 N 
ATOM      2  C   UNL     1       2.476  -1.752  -4.685  0.00  0.00    -0.060 C 
ATOM      3  C   UNL     1       2.578  -3.242  -5.030  0.00  0.00    +0.088 C 
ATOM      4  N   UNL     1       3.324  -3.918  -3.958  0.00  0.00    -0.318 N 
ATOM      5  C   UNL     1       2.903  -3.688  -2.567  0.00  0.00    +0.088 C 
ATOM      6  C   UNL     1       2.786  -2.177  -2.339  0.00  0.00    -0.060 C 
ATOM      7  C   UNL     1       4.392  -4.748  -4.249  0.00  0.00    +0.134 A 
ATOM      8  C   UNL     1       4.201  -6.154  -4.358  0.00  0.00    +0.051 A 
ATOM      9  C   UNL     1       2.971  -6.928  -4.200  0.00  0.00    -0.020 A 
ATOM     10  C   UNL     1       3.062  -8.265  -4.356  0.00  0.00    +0.021 A 
ATOM     11  S   UNL     1       4.766  -8.573  -4.720  0.00  0.00    -0.071 S 
ATOM     12  C   UNL     1       5.358  -6.901  -4.660  0.00  0.00    +0.115 A 
ATOM     13  N   UNL     1       6.531  -6.322  -4.825  0.00  0.00    -0.215 NA
ATOM     14  C   UNL     1       6.650  -5.006  -4.710  0.00  0.00    +0.191 A 
ATOM     15  N   UNL     1       5.599  -4.242  -4.434  0.00  0.00    -0.206 NA
ATOM     16  C   UNL     1       1.939  -9.249  -4.238  0.00  0.00    +0.203 C 
ATOM     17  O   UNL     1       0.827  -8.580  -3.623  0.00  0.00    -0.368 OA
ATOM     18  C   UNL     1       0.526  -7.313  -4.216  0.00  0.00    +0.068 C 
ATOM     19  C   UNL     1       1.619  -6.297  -3.872  0.00  0.00    +0.071 C 
ATOM     20  C   UNL     1       0.440  -7.472  -5.735  0.00  0.00    +0.041 C 
ATOM     21  C   UNL     1      -0.818  -6.811  -3.684  0.00  0.00    +0.041 C 
ATOM     22  H   UNL     1       0.999  -2.074  -3.317  0.00  0.00    -0.082 HD
ENDROOT
BRANCH   1  23
ATOM     23  C   UNL     1       1.690  -0.171  -3.063  0.00  0.00    -0.079 C 
BRANCH  23  24
ATOM     24  C   UNL     1       0.661   0.405  -4.037  0.00  0.00    -0.019 C 
BRANCH  24  26
ATOM     25  C   UNL     1      -0.576   2.467  -4.714  0.00  0.00    +0.004 C 
ATOM     26  C   UNL     1       0.454   1.891  -3.740  0.00  0.00    -0.005 C 
ENDBRANCH  24  26
ENDBRANCH  23  24
ENDBRANCH   1  23
BRANCH  14  27
ATOM     27  S   UNL     1       8.229  -4.257  -4.936  0.00  0.00    -0.081 S 
BRANCH  27  28
ATOM     28  C   UNL     1       9.330  -5.654  -5.293  0.00  0.00    +0.112 C 
BRANCH  28  29
ATOM     29  C   UNL     1      10.732  -5.145  -5.510  0.00  0.00    -0.037 A 
ATOM     30  C   UNL     1      11.148  -4.784  -6.777  0.00  0.00    +0.007 A 
ATOM     31  C   UNL     1      12.434  -4.318  -6.976  0.00  0.00    +0.033 A 
ATOM     32  C   UNL     1      13.304  -4.212  -5.907  0.00  0.00    +0.126 A 
ATOM     33  C   UNL     1      12.887  -4.572  -4.639  0.00  0.00    +0.033 A 
ATOM     34  C   UNL     1      11.600  -5.034  -4.439  0.00  0.00    +0.007 A 
BRANCH  32  35
ATOM     35  N   UNL     1      14.681  -3.713  -6.120  0.00  0.00    +0.056 N 
ATOM     36  O   UNL     1      15.046  -3.399  -7.229  0.00  0.00    -0.126 OA
ATOM     37  O   UNL     1      15.442  -3.620  -5.184  0.00  0.00    -0.126 OA
ENDBRANCH  32  35
ENDBRANCH  28  29
ENDBRANCH  27  28
ENDBRANCH  14  27
TORSDOF 7
