REMARK  Name = ZINC59004740
REMARK  9 active torsions:
REMARK  status: ('A' for Active; 'I' for Inactive)
REMARK    1  A    between atoms: C_2  and  C_3
REMARK    2  A    between atoms: C_3  and  C_4
REMARK    3  A    between atoms: C_8  and  C_11
REMARK    4  A    between atoms: C_9  and  O_10
REMARK    5  A    between atoms: N_12  and  N_13
REMARK    6  A    between atoms: C_16  and  S_19
REMARK    7  A    between atoms: S_19  and  C_20
REMARK    8  A    between atoms: C_20  and  C_21
REMARK    9  A    between atoms: N_23  and  C_24
REMARK                            x       y       z     vdW  Elec       q    Type
REMARK                         _______ _______ _______ _____ _____    ______ ____
ROOT
ATOM      1  N   UNL     1       1.001  -6.828  -0.809  0.00  0.00    -0.205 N 
ATOM      2  C   UNL     1       1.615  -7.211   0.370  0.00  0.00    +0.232 A 
ATOM      3  N   UNL     1       1.714  -6.483   1.463  0.00  0.00    -0.186 NA
ATOM      4  C   UNL     1       2.369  -7.172   2.404  0.00  0.00    +0.211 A 
ATOM      5  N   UNL     1       2.696  -8.347   1.921  0.00  0.00    -0.144 NA
ATOM      6  N   UNL     1       2.212  -8.399   0.604  0.00  0.00    -0.245 N 
ATOM      7  H   UNL     1       0.975  -7.438  -1.562  0.00  0.00    +0.177 HD
ATOM      8  H   UNL     1       2.292  -9.140  -0.015  0.00  0.00    +0.192 HD
ENDROOT
BRANCH   1  10
ATOM      9  C   UNL     1      -0.158  -5.199  -2.021  0.00  0.00    +0.142 C 
ATOM     10  N   UNL     1       0.418  -5.558  -0.914  0.00  0.00    -0.187 NA
BRANCH   9  15
ATOM     11  C   UNL     1      -1.315  -1.726  -1.161  0.00  0.00    -0.002 A 
ATOM     12  C   UNL     1      -1.926  -1.351  -2.343  0.00  0.00    +0.007 A 
ATOM     13  C   UNL     1      -1.964  -2.221  -3.418  0.00  0.00    +0.001 A 
ATOM     14  C   UNL     1      -1.391  -3.472  -3.321  0.00  0.00    +0.013 A 
ATOM     15  C   UNL     1      -0.771  -3.863  -2.132  0.00  0.00    +0.036 A 
ATOM     16  C   UNL     1      -0.731  -2.976  -1.048  0.00  0.00    +0.129 A 
BRANCH  16  17
ATOM     17  O   UNL     1      -0.125  -3.344   0.112  0.00  0.00    -0.506 OA
ATOM     18  H   UNL     1      -0.714  -3.780   0.742  0.00  0.00    +0.292 HD
ENDBRANCH  16  17
BRANCH  11  19
ATOM     19  C   UNL     1      -1.280  -0.771   0.004  0.00  0.00    +0.065 C 
BRANCH  19  21
ATOM     20  C   UNL     1       0.008   1.304  -0.009  0.00  0.00    +0.004 C 
ATOM     21  C   UNL     1       0.019  -0.006  -0.012  0.00  0.00    -0.030 C 
ENDBRANCH  19  21
ENDBRANCH  11  19
ENDBRANCH   9  15
ENDBRANCH   1  10
BRANCH   4  22
ATOM     22  S   UNL     1       2.735  -6.593   4.027  0.00  0.00    -0.075 S 
BRANCH  22  23
ATOM     23  C   UNL     1       3.625  -7.975   4.795  0.00  0.00    +0.173 C 
BRANCH  23  24
ATOM     24  C   UNL     1       4.001  -7.607   6.207  0.00  0.00    +0.227 C 
ATOM     25  O   UNL     1       3.699  -6.520   6.652  0.00  0.00    -0.275 OA
ATOM     26  N   UNL     1       4.674  -8.486   6.976  0.00  0.00    -0.285 N 
ATOM     27  H   UNL     1       4.857  -9.380   6.644  0.00  0.00    +0.155 HD
BRANCH  26  28
ATOM     28  C   UNL     1       5.109  -8.111   8.253  0.00  0.00    +0.036 A 
ATOM     29  C   UNL     1       6.315  -8.591   8.746  0.00  0.00    +0.026 A 
ATOM     30  C   UNL     1       6.742  -8.220  10.006  0.00  0.00    +0.043 A 
ATOM     31  C   UNL     1       5.970  -7.369  10.778  0.00  0.00    +0.159 A 
ATOM     32  C   UNL     1       4.766  -6.888  10.288  0.00  0.00    +0.160 A 
ATOM     33  C   UNL     1       4.337  -7.253   9.025  0.00  0.00    +0.064 A 
ATOM     34  F   UNL     1       4.013  -6.058  11.043  0.00  0.00    -0.202 F 
ATOM     35  F   UNL     1       6.391  -7.008  12.010  0.00  0.00    -0.202 F 
ENDBRANCH  26  28
ENDBRANCH  23  24
ENDBRANCH  22  23
ENDBRANCH   4  22
TORSDOF 9
