REMARK  Name = ZINC58406462
REMARK  5 active torsions:
REMARK  status: ('A' for Active; 'I' for Inactive)
REMARK    1  A    between atoms: C_1  and  C_2
REMARK    2  A    between atoms: C_3  and  C_11
REMARK    3  A    between atoms: C_7  and  N_8
REMARK    4  A    between atoms: C_11  and  N_12
REMARK    5  A    between atoms: C_20  and  C_22
REMARK                            x       y       z     vdW  Elec       q    Type
REMARK                         _______ _______ _______ _____ _____    ______ ____
ROOT
ATOM      1  N   UNL     1       0.375   0.732  -2.960  0.00  0.00    -0.284 NA
ATOM      2  C   UNL     1       1.410  -0.203  -3.422  0.00  0.00    +0.107 C 
ATOM      3  C   UNL     1       2.731   0.547  -3.632  0.00  0.00    +0.137 C 
ATOM      4  N   UNL     1       2.460   1.731  -4.457  0.00  0.00    -0.348 N 
ATOM      5  C   UNL     1       3.349   2.498  -5.137  0.00  0.00    +0.086 A 
ATOM      6  C   UNL     1       2.666   3.480  -5.763  0.00  0.00    +0.019 A 
ATOM      7  C   UNL     1       1.300   3.311  -5.454  0.00  0.00    +0.024 A 
ATOM      8  C   UNL     1       1.202   2.238  -4.654  0.00  0.00    +0.041 A 
ATOM      9  C   UNL     1      -0.042   1.642  -4.041  0.00  0.00    +0.134 C 
ENDROOT
BRANCH   9  10
ATOM     10  C   UNL     1      -0.909   2.738  -3.479  0.00  0.00    -0.024 A 
ATOM     11  C   UNL     1      -0.592   3.315  -2.263  0.00  0.00    +0.005 A 
ATOM     12  C   UNL     1      -1.388   4.321  -1.747  0.00  0.00    +0.000 A 
ATOM     13  C   UNL     1      -2.500   4.750  -2.447  0.00  0.00    +0.000 A 
ATOM     14  C   UNL     1      -2.816   4.175  -3.664  0.00  0.00    +0.000 A 
ATOM     15  C   UNL     1      -2.018   3.171  -4.181  0.00  0.00    +0.005 A 
ENDBRANCH   9  10
BRANCH   1  16
ATOM     16  C   UNL     1      -0.778   0.009  -2.406  0.00  0.00    +0.121 C 
BRANCH  16  19
ATOM     17  C   UNL     1      -0.567   1.441   0.095  0.00  0.00    +0.046 C 
ATOM     18  C   UNL     1      -0.260  -0.034   0.042  0.00  0.00    -0.016 A 
ATOM     19  C   UNL     1      -0.361  -0.719  -1.154  0.00  0.00    -0.028 A 
ATOM     20  C   UNL     1      -0.080  -2.071  -1.202  0.00  0.00    +0.005 A 
ATOM     21  C   UNL     1       0.302  -2.739  -0.054  0.00  0.00    +0.003 A 
ATOM     22  C   UNL     1       0.404  -2.054   1.143  0.00  0.00    +0.033 A 
ATOM     23  C   UNL     1       0.127  -0.700   1.190  0.00  0.00    +0.129 A 
BRANCH  23  24
ATOM     24  N   UNL     1       0.241   0.035   2.470  0.00  0.00    +0.057 N 
ATOM     25  O   UNL     1       0.674   1.163   2.482  0.00  0.00    -0.126 OA
ATOM     26  O   UNL     1      -0.099  -0.494   3.502  0.00  0.00    -0.126 OA
ENDBRANCH  23  24
ENDBRANCH  16  19
ENDBRANCH   1  16
TORSDOF 4
