REMARK  Name = ZINC08920304
REMARK  7 active torsions:
REMARK  status: ('A' for Active; 'I' for Inactive)
REMARK    1  A    between atoms: C_1  and  C_2
REMARK    2  A    between atoms: C_5  and  C_31
REMARK    3  A    between atoms: C_6  and  N_8
REMARK    4  A    between atoms: C_9  and  C_11
REMARK    5  A    between atoms: C_11  and  C_13
REMARK    6  A    between atoms: C_11  and  N_14
REMARK    7  A    between atoms: C_21  and  C_24
REMARK                            x       y       z     vdW  Elec       q    Type
REMARK                         _______ _______ _______ _____ _____    ______ ____
ROOT
ATOM      1  N   UNL     1      -3.516   2.116   0.127  0.00  0.00    -0.287 N 
ATOM      2  C   UNL     1      -3.629   2.929  -0.955  0.00  0.00    +0.204 A 
ATOM      3  N   UNL     1      -4.541   3.863  -1.005  0.00  0.00    -0.230 NA
ATOM      4  C   UNL     1      -5.389   4.047   0.003  0.00  0.00    +0.116 A 
ATOM      5  C   UNL     1      -5.348   3.255   1.162  0.00  0.00    +0.080 A 
ATOM      6  C   UNL     1      -4.340   2.239   1.183  0.00  0.00    +0.263 A 
ATOM      7  O   UNL     1      -4.229   1.497   2.144  0.00  0.00    -0.267 OA
ATOM      8  C   UNL     1      -6.345   3.587   2.173  0.00  0.00    +0.004 A 
ATOM      9  C   UNL     1      -7.209   4.601   1.927  0.00  0.00    +0.056 A 
ATOM     10  S   UNL     1      -6.727   5.172   0.309  0.00  0.00    -0.076 S 
ENDROOT
BRANCH   8  11
ATOM     11  C   UNL     1      -6.412   2.828   3.445  0.00  0.00    -0.017 A 
ATOM     12  C   UNL     1      -6.445   1.435   3.427  0.00  0.00    +0.009 A 
ATOM     13  C   UNL     1      -6.502   0.733   4.614  0.00  0.00    +0.016 A 
ATOM     14  C   UNL     1      -6.538   1.411   5.821  0.00  0.00    +0.018 A 
ATOM     15  C   UNL     1      -6.512   2.795   5.843  0.00  0.00    +0.016 A 
ATOM     16  C   UNL     1      -6.449   3.506   4.663  0.00  0.00    +0.009 A 
ATOM     17 BR   UNL     1      -6.625   0.444   7.443  0.00  0.00    -0.050 Br
ENDBRANCH   8  11
BRANCH   1  18
ATOM     18  C   UNL     1      -2.478   1.082   0.141  0.00  0.00    +0.174 C 
ATOM     19  C   UNL     1      -2.697   0.123  -1.031  0.00  0.00    +0.041 C 
BRANCH  18  21
ATOM     20  N   UNL     1      -0.011   0.966   0.007  0.00  0.00    -0.284 N 
ATOM     21  C   UNL     1      -1.123   1.728   0.016  0.00  0.00    +0.240 C 
ATOM     22  O   UNL     1      -1.032   2.934  -0.076  0.00  0.00    -0.273 OA
ATOM     23  H   UNL     1      -0.086  -0.001   0.016  0.00  0.00    +0.155 HD
BRANCH  20  29
ATOM     24  C   UNL     1       2.892   4.637  -1.498  0.00  0.00    +0.044 C 
ATOM     25  C   UNL     1       2.686   3.349  -0.742  0.00  0.00    -0.049 A 
ATOM     26  C   UNL     1       3.747   2.763  -0.075  0.00  0.00    +0.004 A 
ATOM     27  C   UNL     1       3.562   1.582   0.620  0.00  0.00    +0.005 A 
ATOM     28  C   UNL     1       2.317   0.984   0.649  0.00  0.00    -0.029 A 
ATOM     29  C   UNL     1       1.251   1.569  -0.020  0.00  0.00    +0.037 A 
ATOM     30  C   UNL     1       1.441   2.753  -0.722  0.00  0.00    +0.027 A 
ATOM     31  C   UNL     1       2.117  -0.304   1.405  0.00  0.00    +0.045 C 
ENDBRANCH  20  29
ENDBRANCH  18  21
ENDBRANCH   1  18
TORSDOF 4
