REMARK  Name = ZINC18139104
REMARK  14 active torsions:
REMARK  status: ('A' for Active; 'I' for Inactive)
REMARK    1  A    between atoms: C_1  and  C_2
REMARK    2  A    between atoms: C_2  and  C_3
REMARK    3  A    between atoms: C_3  and  C_4
REMARK    4  A    between atoms: C_4  and  N_5
REMARK    5  A    between atoms: C_6  and  N_33
REMARK    6  A    between atoms: C_7  and  N_14
REMARK    7  A    between atoms: N_14  and  C_15
REMARK    8  A    between atoms: N_14  and  C_20
REMARK    9  A    between atoms: C_15  and  C_16
REMARK   10  A    between atoms: C_16  and  C_17
REMARK   11  A    between atoms: C_17  and  C_18
REMARK   12  A    between atoms: C_17  and  C_19
REMARK   13  A    between atoms: C_20  and  N_22
REMARK   14  A    between atoms: N_22  and  C_23
REMARK                            x       y       z     vdW  Elec       q    Type
REMARK                         _______ _______ _______ _____ _____    ______ ____
ROOT
ATOM      1  N   UNL     1      -1.149  -1.772   0.527  0.00  0.00    -0.276 N 
ENDROOT
BRANCH   1   4
ATOM      2  N   UNL     1      -3.674  -4.443   0.499  0.00  0.00    -0.280 N 
ATOM      3  C   UNL     1      -2.656  -3.618   0.079  0.00  0.00    +0.127 A 
ATOM      4  C   UNL     1      -2.193  -2.634   0.929  0.00  0.00    +0.139 A 
ATOM      5  C   UNL     1      -2.774  -2.509   2.204  0.00  0.00    +0.277 A 
ATOM      6  O   UNL     1      -2.380  -1.652   2.977  0.00  0.00    -0.266 OA
ATOM      7  N   UNL     1      -3.772  -3.340   2.564  0.00  0.00    -0.273 N 
ATOM      8  H   UNL     1      -4.190  -3.247   3.468  0.00  0.00    +0.173 HD
ATOM      9  C   UNL     1      -4.211  -4.293   1.723  0.00  0.00    +0.331 A 
ATOM     10  O   UNL     1      -5.110  -5.032   2.075  0.00  0.00    -0.246 OA
BRANCH   3  11
ATOM     11  N   UNL     1      -2.107  -3.771  -1.172  0.00  0.00    -0.343 N 
ATOM     12  H   UNL     1      -1.382  -3.194  -1.458  0.00  0.00    +0.144 HD
ATOM     13  H   UNL     1      -2.445  -4.457  -1.769  0.00  0.00    +0.144 HD
ENDBRANCH   3  11
BRANCH   2  14
ATOM     14  C   UNL     1      -4.176  -5.491  -0.393  0.00  0.00    +0.128 C 
BRANCH  14  15
ATOM     15  C   UNL     1      -3.381  -6.778  -0.165  0.00  0.00    +0.021 C 
BRANCH  15  17
ATOM     16  C   UNL     1      -3.111  -9.160  -0.868  0.00  0.00    +0.004 C 
ATOM     17  C   UNL     1      -3.906  -7.873  -1.096  0.00  0.00    -0.002 C 
ENDBRANCH  15  17
ENDBRANCH  14  15
ENDBRANCH   2  14
ENDBRANCH   1   4
BRANCH   1  18
ATOM     18  C   UNL     1      -1.374  -0.448   0.416  0.00  0.00    +0.138 C 
ATOM     19  S   UNL     1      -2.951   0.175   0.649  0.00  0.00    -0.018 S 
BRANCH  18  20
ATOM     20  N   UNL     1      -0.357   0.386   0.122  0.00  0.00    -0.323 N 
ATOM     21  H   UNL     1       0.537   0.033  -0.010  0.00  0.00    +0.148 HD
BRANCH  20  22
ATOM     22  C   UNL     1      -0.601   1.825   0.002  0.00  0.00    +0.075 C 
ATOM     23  C   UNL     1      -0.970   2.189  -1.455  0.00  0.00    +0.026 C 
ATOM     24  C   UNL     1       0.149   3.174  -1.911  0.00  0.00    -0.009 C 
ATOM     25  C   UNL     1      -0.122   4.477  -1.098  0.00  0.00    +0.004 C 
ATOM     26  C   UNL     1       0.247   4.113   0.358  0.00  0.00    +0.005 C 
ATOM     27  C   UNL     1       0.707   2.624   0.288  0.00  0.00    +0.010 C 
ATOM     28  C   UNL     1       1.381   2.595  -1.129  0.00  0.00    +0.009 C 
ENDBRANCH  20  22
ENDBRANCH  18  20
ENDBRANCH   1  18
BRANCH   1  29
ATOM     29  C   UNL     1       0.178  -2.317   0.232  0.00  0.00    +0.113 C 
BRANCH  29  30
ATOM     30  C   UNL     1       1.059  -2.220   1.479  0.00  0.00    +0.022 C 
BRANCH  30  31
ATOM     31  C   UNL     1       2.445  -2.789   1.170  0.00  0.00    -0.016 C 
ATOM     32  C   UNL     1       3.133  -1.915   0.119  0.00  0.00    +0.007 C 
ATOM     33  C   UNL     1       3.286  -2.807   2.448  0.00  0.00    +0.007 C 
ENDBRANCH  30  31
ENDBRANCH  29  30
ENDBRANCH   1  29
TORSDOF 11
