REMARK  Name = ZINC36555669
REMARK  18 active torsions:
REMARK  status: ('A' for Active; 'I' for Inactive)
REMARK    1  A    between atoms: C_1  and  C_2
REMARK    2  A    between atoms: C_5  and  C_7
REMARK    3  A    between atoms: C_7  and  N_8
REMARK    4  A    between atoms: N_8  and  C_9
REMARK    5  A    between atoms: C_9  and  C_11
REMARK    6  A    between atoms: C_9  and  C_20
REMARK    7  A    between atoms: C_14  and  N_17
REMARK    8  A    between atoms: N_22  and  C_23
REMARK    9  A    between atoms: C_23  and  C_24
REMARK   10  A    between atoms: C_23  and  C_25
REMARK   11  A    between atoms: C_23  and  C_26
REMARK   12  A    between atoms: C_26  and  C_27
REMARK   13  A    between atoms: C_27  and  C_28
REMARK   14  A    between atoms: C_27  and  C_29
REMARK   15  A    between atoms: C_27  and  C_30
REMARK   16  A    between atoms: C_31  and  C_33
REMARK   17  A    between atoms: C_38  and  O_39
REMARK   18  A    between atoms: O_39  and  C_40
REMARK                            x       y       z     vdW  Elec       q    Type
REMARK                         _______ _______ _______ _____ _____    ______ ____
ROOT
ATOM      1  C   UNL     1       2.350  -3.135  -2.384  0.00  0.00    +0.193 C 
ENDROOT
BRANCH   1   2
ATOM      2  C   UNL     1       3.563  -3.915  -1.946  0.00  0.00    -0.018 A 
ATOM      3  C   UNL     1       3.913  -3.955  -0.609  0.00  0.00    +0.008 A 
ATOM      4  C   UNL     1       5.025  -4.670  -0.207  0.00  0.00    +0.033 A 
ATOM      5  C   UNL     1       5.787  -5.346  -1.142  0.00  0.00    +0.126 A 
ATOM      6  C   UNL     1       5.436  -5.307  -2.478  0.00  0.00    +0.033 A 
ATOM      7  C   UNL     1       4.321  -4.595  -2.880  0.00  0.00    +0.008 A 
BRANCH   5   8
ATOM      8  N   UNL     1       6.979  -6.112  -0.712  0.00  0.00    +0.056 N 
ATOM      9  O   UNL     1       7.286  -6.146   0.457  0.00  0.00    -0.126 OA
ATOM     10  O   UNL     1       7.645  -6.703  -1.529  0.00  0.00    -0.126 OA
ENDBRANCH   5   8
ENDBRANCH   1   2
BRANCH   1  11
ATOM     11  C   UNL     1       2.779  -1.779  -2.885  0.00  0.00    +0.239 C 
ATOM     12  O   UNL     1       2.384  -0.775  -2.330  0.00  0.00    -0.273 OA
ATOM     13  N   UNL     1       3.600  -1.682  -3.948  0.00  0.00    -0.308 N 
ATOM     14  H   UNL     1       3.916  -2.485  -4.392  0.00  0.00    +0.149 HD
BRANCH  13  15
ATOM     15  C   UNL     1       4.017  -0.365  -4.435  0.00  0.00    +0.030 C 
ATOM     16  C   UNL     1       2.831   0.328  -5.110  0.00  0.00    +0.031 C 
ATOM     17  C   UNL     1       4.500   0.484  -3.257  0.00  0.00    +0.031 C 
BRANCH  15  18
ATOM     18  C   UNL     1       5.154  -0.530  -5.445  0.00  0.00    +0.031 C 
BRANCH  18  19
ATOM     19  C   UNL     1       6.133  -1.593  -4.942  0.00  0.00    -0.036 C 
ATOM     20  C   UNL     1       5.454  -2.964  -4.965  0.00  0.00    +0.010 C 
ATOM     21  C   UNL     1       7.366  -1.619  -5.846  0.00  0.00    +0.010 C 
ATOM     22  C   UNL     1       6.557  -1.258  -3.510  0.00  0.00    +0.010 C 
ENDBRANCH  18  19
ENDBRANCH  15  18
ENDBRANCH  13  15
ENDBRANCH   1  11
BRANCH   1  23
ATOM     23  N   UNL     1       1.439  -2.970  -1.249  0.00  0.00    -0.275 N 
ATOM     24  C   UNL     1       0.819  -4.045  -0.722  0.00  0.00    +0.251 C 
ATOM     25  O   UNL     1       0.110  -3.917   0.258  0.00  0.00    -0.270 OA
BRANCH  24  26
ATOM     26  C   UNL     1       1.001  -5.375  -1.332  0.00  0.00    +0.078 A 
ATOM     27  C   UNL     1       1.878  -5.541  -2.407  0.00  0.00    +0.017 A 
ATOM     28  C   UNL     1       2.044  -6.786  -2.973  0.00  0.00    +0.001 A 
ATOM     29  C   UNL     1       1.345  -7.876  -2.481  0.00  0.00    +0.004 A 
ATOM     30  C   UNL     1       0.475  -7.727  -1.419  0.00  0.00    +0.046 A 
ATOM     31  C   UNL     1       0.300  -6.482  -0.834  0.00  0.00    +0.132 A 
BRANCH  31  32
ATOM     32  O   UNL     1      -0.550  -6.334   0.212  0.00  0.00    -0.494 OA
ATOM     33  C   UNL     1      -1.230  -7.507   0.666  0.00  0.00    +0.277 C 
ENDBRANCH  31  32
ENDBRANCH  24  26
BRANCH  23  34
ATOM     34  C   UNL     1       1.201  -1.639  -0.688  0.00  0.00    +0.183 C 
BRANCH  34  39
ATOM     35  C   UNL     1      -1.281   1.244  -4.000  0.00  0.00    +0.086 C 
ATOM     36  C   UNL     1      -1.006   0.281  -2.874  0.00  0.00    +0.102 A 
ATOM     37  C   UNL     1      -1.934  -0.332  -2.118  0.00  0.00    +0.045 A 
ATOM     38  C   UNL     1      -1.239  -1.140  -1.190  0.00  0.00    +0.046 A 
ATOM     39  C   UNL     1       0.073  -0.973  -1.434  0.00  0.00    +0.122 A 
ATOM     40  O   UNL     1       0.208  -0.116  -2.459  0.00  0.00    -0.463 OA
ENDBRANCH  34  39
ENDBRANCH  23  34
ENDBRANCH   1  23
TORSDOF 11
