REMARK  Name = ZINC12318189
REMARK  7 active torsions:
REMARK  status: ('A' for Active; 'I' for Inactive)
REMARK    1  A    between atoms: N_9  and  C_10
REMARK    2  A    between atoms: C_10  and  C_11
REMARK    3  A    between atoms: C_11  and  C_12
REMARK    4  A    between atoms: C_12  and  N_13
REMARK    5  A    between atoms: C_14  and  C_16
REMARK    6  A    between atoms: C_16  and  C_17
REMARK    7  A    between atoms: C_24  and  N_58
REMARK                            x       y       z     vdW  Elec       q    Type
REMARK                         _______ _______ _______ _____ _____    ______ ____
ROOT
ATOM      1  N   UNL     1       3.869   2.083   2.951  0.00  0.00    -0.315 N 
ATOM      2  C   UNL     1       3.600   2.296   1.647  0.00  0.00    +0.212 C 
ATOM      3  O   UNL     1       3.426   1.354   0.903  0.00  0.00    -0.276 OA
ATOM      4  H   UNL     1       4.008   2.836   3.546  0.00  0.00    +0.149 HD
ENDROOT
BRANCH   1   5
ATOM      5  C   UNL     1       3.952   0.715   3.468  0.00  0.00    +0.106 C 
BRANCH   5   6
ATOM      6  C   UNL     1       4.266   0.754   4.965  0.00  0.00    +0.040 C 
BRANCH   6   7
ATOM      7  C   UNL     1       4.353  -0.675   5.505  0.00  0.00    +0.123 C 
BRANCH   7  16
ATOM      8  C   UNL     1       2.355  -0.252  10.346  0.00  0.00    +0.001 A 
ATOM      9  C   UNL     1       1.664  -0.241   9.142  0.00  0.00    +0.002 A 
ATOM     10  C   UNL     1       2.334  -0.362   7.945  0.00  0.00    +0.026 A 
ATOM     11  C   UNL     1       3.719  -0.499   7.940  0.00  0.00    +0.049 A 
ATOM     12  C   UNL     1       4.415  -0.511   9.162  0.00  0.00    -0.000 A 
ATOM     13  C   UNL     1       3.715  -0.385  10.364  0.00  0.00    +0.010 A 
ATOM     14  C   UNL     1       5.831  -0.666   8.820  0.00  0.00    +0.027 A 
ATOM     15  C   UNL     1       5.905  -0.742   7.482  0.00  0.00    +0.087 A 
ATOM     16  N   UNL     1       4.654  -0.638   6.938  0.00  0.00    -0.347 N 
ENDBRANCH   7  16
ENDBRANCH   6   7
ENDBRANCH   5   6
ENDBRANCH   1   5
BRANCH   2  17
ATOM     17  C   UNL     1       3.515   3.703   1.115  0.00  0.00    +0.089 C 
BRANCH  17  18
ATOM     18  C   UNL     1       3.069   3.669  -0.348  0.00  0.00    +0.028 C 
ATOM     19  C   UNL     1       1.694   3.071  -0.436  0.00  0.00    +0.200 C 
ATOM     20  O   UNL     1       0.861   3.404   0.380  0.00  0.00    -0.278 OA
ATOM     21  N   UNL     1       1.349   2.185  -1.378  0.00  0.00    -0.318 N 
ATOM     22  C   UNL     1       2.285   1.692  -2.384  0.00  0.00    +0.085 C 
ATOM     23  C   UNL     1       3.491   2.628  -2.482  0.00  0.00    -0.058 C 
ATOM     24  H   UNL     1       0.437   1.856  -1.393  0.00  0.00    +0.149 HD
ATOM     25  N   UNL     1       4.016   2.841  -1.119  0.00  0.00    +0.390 N 
ATOM     26  H   UNL     1       4.123   1.932  -0.654  0.00  0.00    -0.080 HD
BRANCH  25  27
ATOM     27  C   UNL     1       5.337   3.508  -1.181  0.00  0.00    -0.067 C 
ATOM     28  C   UNL     1       6.385   2.562  -1.817  0.00  0.00    -0.015 C 
ATOM     29  C   UNL     1       7.474   3.512  -2.357  0.00  0.00    -0.002 C 
ATOM     30  C   UNL     1       6.798   4.877  -2.575  0.00  0.00    -0.002 C 
ATOM     31  C   UNL     1       5.322   4.709  -2.160  0.00  0.00    -0.015 C 
ENDBRANCH  25  27
ENDBRANCH  17  18
ENDBRANCH   2  17
TORSDOF 7
