REMARK  Name = ZINC32737612
REMARK  12 active torsions:
REMARK  status: ('A' for Active; 'I' for Inactive)
REMARK    1  A    between atoms: C_1  and  C_2
REMARK    2  A    between atoms: N_8  and  C_9
REMARK    3  A    between atoms: C_9  and  C_11
REMARK    4  A    between atoms: C_9  and  C_12
REMARK    5  A    between atoms: C_12  and  N_13
REMARK    6  A    between atoms: C_14  and  C_16
REMARK    7  A    between atoms: C_19  and  S_21
REMARK    8  A    between atoms: S_21  and  N_24
REMARK    9  A    between atoms: N_24  and  C_25
REMARK   10  A    between atoms: C_25  and  C_26
REMARK   11  A    between atoms: C_25  and  C_27
REMARK   12  A    between atoms: C_25  and  C_28
REMARK                            x       y       z     vdW  Elec       q    Type
REMARK                         _______ _______ _______ _____ _____    ______ ____
ROOT
ATOM      1  N   UNL     1       3.296  -2.384   2.535  0.00  0.00    -0.310 N 
ATOM      2  C   UNL     1       3.320  -3.127   3.659  0.00  0.00    +0.279 C 
ATOM      3  O   UNL     1       3.685  -2.631   4.708  0.00  0.00    -0.267 OA
ATOM      4  H   UNL     1       3.006  -2.780   1.698  0.00  0.00    +0.149 HD
ENDROOT
BRANCH   2   5
ATOM      5  C   UNL     1       2.908  -4.534   3.617  0.00  0.00    +0.192 A 
ATOM      6  C   UNL     1       2.879  -5.394   4.677  0.00  0.00    +0.057 A 
ATOM      7  C   UNL     1       2.422  -6.627   4.185  0.00  0.00    +0.072 A 
ATOM      8  C   UNL     1       2.195  -6.467   2.862  0.00  0.00    +0.258 A 
ATOM      9  O   UNL     1       2.484  -5.204   2.525  0.00  0.00    -0.432 OA
BRANCH   8  10
ATOM     10  S   UNL     1       1.611  -7.715   1.764  0.00  0.00    +0.092 S 
ATOM     11  O   UNL     1       1.878  -7.254   0.447  0.00  0.00    -0.150 OA
ATOM     12  O   UNL     1       2.108  -8.953   2.253  0.00  0.00    -0.150 OA
BRANCH  10  13
ATOM     13  N   UNL     1      -0.037  -7.772   1.920  0.00  0.00    -0.182 NA
ATOM     14  H   UNL     1      -0.461  -8.554   2.307  0.00  0.00    +0.149 HD
BRANCH  13  15
ATOM     15  C   UNL     1      -0.855  -6.641   1.475  0.00  0.00    +0.032 C 
ATOM     16  C   UNL     1      -0.774  -6.523  -0.049  0.00  0.00    +0.029 C 
ATOM     17  C   UNL     1      -2.309  -6.867   1.893  0.00  0.00    +0.029 C 
ATOM     18  C   UNL     1      -0.335  -5.352   2.114  0.00  0.00    +0.029 C 
ENDBRANCH  13  15
ENDBRANCH  10  13
ENDBRANCH   8  10
ENDBRANCH   2   5
BRANCH   1  19
ATOM     19  C   UNL     1       3.709  -0.979   2.577  0.00  0.00    +0.089 C 
BRANCH  19  20
ATOM     20  C   UNL     1       3.427  -0.324   1.223  0.00  0.00    -0.054 C 
ATOM     21  C   UNL     1       4.073   1.062   1.183  0.00  0.00    -0.012 C 
BRANCH  20  28
ATOM     22  C   UNL     1       2.040  -2.300  -0.212  0.00  0.00    -0.013 C 
ATOM     23  C   UNL     1       1.376  -1.530   0.931  0.00  0.00    -0.071 C 
ATOM     24  C   UNL     1      -0.123  -1.398   0.653  0.00  0.00    -0.016 C 
ATOM     25  C   UNL     1      -0.784  -0.627   1.800  0.00  0.00    -0.003 C 
ATOM     26  C   UNL     1      -0.099   0.735   1.947  0.00  0.00    -0.019 C 
ATOM     27  C   UNL     1       1.399   0.524   2.177  0.00  0.00    -0.078 C 
ATOM     28  N   UNL     1       1.976  -0.194   1.034  0.00  0.00    +0.384 N 
ATOM     29  H   UNL     1       1.794   0.322   0.186  0.00  0.00    -0.081 HD
ENDBRANCH  20  28
ENDBRANCH  19  20
ENDBRANCH   1  19
TORSDOF 7
