REMARK  Name = ZINC26718633
REMARK  10 active torsions:
REMARK  status: ('A' for Active; 'I' for Inactive)
REMARK    1  A    between atoms: C_1  and  C_2
REMARK    2  A    between atoms: C_8  and  C_10
REMARK    3  A    between atoms: C_10  and  C_12
REMARK    4  A    between atoms: C_10  and  N_23
REMARK    5  A    between atoms: C_12  and  C_13
REMARK    6  A    between atoms: C_21  and  N_22
REMARK    7  A    between atoms: N_23  and  S_24
REMARK    8  A    between atoms: S_24  and  C_27
REMARK    9  A    between atoms: C_33  and  O_37
REMARK   10  A    between atoms: O_37  and  C_38
REMARK                            x       y       z     vdW  Elec       q    Type
REMARK                         _______ _______ _______ _____ _____    ______ ____
ROOT
ATOM      1  C   UNL     1       0.068   1.937   2.711  0.00  0.00    +0.169 C 
ENDROOT
BRANCH   1   9
ATOM      2  C   UNL     1       2.902  -2.907   5.449  0.00  0.00    +0.007 C 
ATOM      3  C   UNL     1       1.808  -1.837   5.469  0.00  0.00    -0.011 C 
ATOM      4  C   UNL     1       0.596  -2.333   4.676  0.00  0.00    +0.022 C 
ATOM      5  C   UNL     1      -0.510  -1.275   4.728  0.00  0.00    +0.108 C 
ATOM      6  N   UNL     1       0.037   0.005   4.256  0.00  0.00    -0.300 N 
ATOM      7  C   UNL     1       1.258   0.526   4.885  0.00  0.00    +0.108 C 
ATOM      8  C   UNL     1       2.342  -0.550   4.836  0.00  0.00    +0.022 C 
ATOM      9  C   UNL     1      -0.566   0.685   3.261  0.00  0.00    +0.235 C 
ATOM     10  O   UNL     1      -1.619   0.289   2.808  0.00  0.00    -0.274 OA
ENDBRANCH   1   9
BRANCH   1  11
ATOM     11  N   UNL     1      -0.476   2.215   1.379  0.00  0.00    -0.178 NA
ATOM     12  H   UNL     1      -1.491   2.624   1.274  0.00  0.00    +0.149 HD
BRANCH  11  13
ATOM     13  S   UNL     1       0.329   1.690   0.031  0.00  0.00    +0.059 S 
ATOM     14  O   UNL     1       1.686   2.081   0.189  0.00  0.00    -0.153 OA
ATOM     15  O   UNL     1      -0.453   2.085  -1.088  0.00  0.00    -0.153 OA
BRANCH  13  16
ATOM     16  C   UNL     1       0.305  -0.072   0.063  0.00  0.00    +0.106 A 
ATOM     17  C   UNL     1      -0.745  -0.756  -0.546  0.00  0.00    +0.029 A 
ATOM     18  C   UNL     1      -0.793  -2.116  -0.539  0.00  0.00    +0.010 A 
ATOM     19  C   UNL     1       0.230  -2.845   0.090  0.00  0.00    -0.018 A 
ATOM     20  C   UNL     1       0.213  -4.251   0.116  0.00  0.00    +0.012 A 
ATOM     21  C   UNL     1       1.219  -4.926   0.734  0.00  0.00    +0.046 A 
ATOM     22  C   UNL     1       2.275  -4.242   1.345  0.00  0.00    +0.121 A 
ATOM     23  C   UNL     1       2.322  -2.877   1.339  0.00  0.00    +0.054 A 
ATOM     24  C   UNL     1       1.298  -2.150   0.710  0.00  0.00    -0.013 A 
ATOM     25  C   UNL     1       1.316  -0.745   0.678  0.00  0.00    +0.037 A 
BRANCH  22  26
ATOM     26  O   UNL     1       3.265  -4.945   1.955  0.00  0.00    -0.495 OA
ATOM     27  C   UNL     1       3.161  -6.370   1.929  0.00  0.00    +0.277 C 
ENDBRANCH  22  26
ENDBRANCH  13  16
ENDBRANCH  11  13
ENDBRANCH   1  11
BRANCH   1  28
ATOM     28  C   UNL     1      -0.236   3.112   3.642  0.00  0.00    +0.104 C 
BRANCH  28  29
ATOM     29  C   UNL     1       0.505   4.335   3.164  0.00  0.00    +0.108 A 
ATOM     30  C   UNL     1       0.025   5.230   2.289  0.00  0.00    +0.056 A 
ATOM     31  C   UNL     1       1.073   6.241   2.123  0.00  0.00    +0.060 A 
ATOM     32  C   UNL     1       2.131   5.823   2.950  0.00  0.00    +0.140 A 
ATOM     33  O   UNL     1       1.746   4.684   3.549  0.00  0.00    -0.459 OA
ATOM     34  C   UNL     1       3.283   6.608   2.986  0.00  0.00    +0.066 A 
ATOM     35  C   UNL     1       3.341   7.741   2.225  0.00  0.00    +0.116 A 
ATOM     36  N   UNL     1       2.334   8.116   1.454  0.00  0.00    -0.240 NA
ATOM     37  C   UNL     1       1.213   7.415   1.375  0.00  0.00    +0.127 A 
BRANCH  37  38
ATOM     38  N   UNL     1       0.180   7.844   0.553  0.00  0.00    -0.343 N 
ATOM     39  H   UNL     1       0.292   8.767  -0.035  0.00  0.00    +0.144 HD
ATOM     40  H   UNL     1      -0.750   7.261   0.489  0.00  0.00    +0.144 HD
ENDBRANCH  37  38
ENDBRANCH  28  29
ENDBRANCH   1  28
TORSDOF 8
