REMARK  Name = ZINC15162855
REMARK  10 active torsions:
REMARK  status: ('A' for Active; 'I' for Inactive)
REMARK    1  A    between atoms: C_1  and  C_2
REMARK    2  A    between atoms: C_2  and  C_23
REMARK    3  A    between atoms: N_3  and  N_4
REMARK    4  A    between atoms: C_5  and  S_7
REMARK    5  A    between atoms: S_7  and  C_8
REMARK    6  A    between atoms: N_13  and  C_16
REMARK    7  A    between atoms: C_24  and  C_25
REMARK    8  A    between atoms: C_28  and  N_31
REMARK    9  A    between atoms: N_31  and  C_32
REMARK   10  A    between atoms: N_31  and  C_33
REMARK                            x       y       z     vdW  Elec       q    Type
REMARK                         _______ _______ _______ _____ _____    ______ ____
ROOT
ATOM      1  N   UNL     1       0.611   0.682   2.840  0.00  0.00    -0.217 N 
ATOM      2  C   UNL     1       0.475  -0.120   3.951  0.00  0.00    +0.146 C 
ATOM      3  N   UNL     1       0.545  -1.417   3.831  0.00  0.00    -0.380 N 
ATOM      4  H   UNL     1       0.559   1.647   2.929  0.00  0.00    +0.176 HD
ATOM      5  H   UNL     1       0.449  -1.982   4.614  0.00  0.00    +0.158 HD
ATOM      6  H   UNL     1       0.694  -1.817   2.960  0.00  0.00    +0.158 HD
ENDROOT
BRANCH   1   9
ATOM      7  C   UNL     1       0.874   2.362   0.669  0.00  0.00    +0.067 C 
ATOM      8  C   UNL     1       0.955   0.864   0.531  0.00  0.00    +0.056 C 
ATOM      9  N   UNL     1       0.826   0.105   1.581  0.00  0.00    -0.186 NA
BRANCH   8  10
ATOM     10  C   UNL     1       1.172   0.280  -0.743  0.00  0.00    +0.025 C 
ATOM     11  C   UNL     1       1.244  -1.062  -0.866  0.00  0.00    +0.010 C 
BRANCH  11  12
ATOM     12  C   UNL     1       1.470  -1.668  -2.188  0.00  0.00    -0.025 A 
ATOM     13  C   UNL     1       1.614  -0.854  -3.317  0.00  0.00    +0.010 A 
ATOM     14  C   UNL     1       1.825  -1.425  -4.552  0.00  0.00    +0.023 A 
ATOM     15  C   UNL     1       1.895  -2.809  -4.678  0.00  0.00    +0.029 A 
ATOM     16  C   UNL     1       1.751  -3.622  -3.558  0.00  0.00    +0.023 A 
ATOM     17  C   UNL     1       1.545  -3.059  -2.318  0.00  0.00    +0.010 A 
BRANCH  15  18
ATOM     18  N   UNL     1       2.108  -3.384  -5.931  0.00  0.00    -0.336 N 
ATOM     19  C   UNL     1       2.382  -2.531  -7.091  0.00  0.00    +0.129 C 
ATOM     20  C   UNL     1       2.059  -4.840  -6.088  0.00  0.00    +0.129 C 
ENDBRANCH  15  18
ENDBRANCH  11  12
ENDBRANCH   8  10
ENDBRANCH   1   9
BRANCH   2  21
ATOM     21  S   UNL     1       0.205   0.606   5.534  0.00  0.00    -0.078 S 
BRANCH  21  22
ATOM     22  C   UNL     1       0.092  -0.816   6.655  0.00  0.00    +0.149 C 
ATOM     23  C   UNL     1      -0.075  -0.345   8.114  0.00  0.00    +0.120 C 
ATOM     24  C   UNL     1      -1.416  -0.916   8.519  0.00  0.00    +0.228 C 
ATOM     25  O   UNL     1      -1.938  -0.781   9.605  0.00  0.00    -0.275 OA
ATOM     26  N   UNL     1      -1.935  -1.595   7.488  0.00  0.00    -0.209 N 
ATOM     27  C   UNL     1      -1.169  -1.607   6.386  0.00  0.00    +0.240 C 
ATOM     28  O   UNL     1      -1.443  -2.159   5.343  0.00  0.00    -0.274 OA
BRANCH  26  29
ATOM     29  C   UNL     1      -3.176  -2.244   7.555  0.00  0.00    +0.045 A 
ATOM     30  C   UNL     1      -3.268  -3.602   7.279  0.00  0.00    +0.024 A 
ATOM     31  C   UNL     1      -4.492  -4.238   7.346  0.00  0.00    +0.003 A 
ATOM     32  C   UNL     1      -5.626  -3.525   7.687  0.00  0.00    +0.020 A 
ATOM     33  C   UNL     1      -5.539  -2.172   7.963  0.00  0.00    +0.043 A 
ATOM     34  C   UNL     1      -4.315  -1.531   7.903  0.00  0.00    +0.044 A 
ATOM     35 CL   UNL     1      -6.965  -1.280   8.391  0.00  0.00    -0.083 Cl
ENDBRANCH  26  29
ENDBRANCH  21  22
ENDBRANCH   2  21
TORSDOF 7
