REMARK  Name = ZINC12041715
REMARK  9 active torsions:
REMARK  status: ('A' for Active; 'I' for Inactive)
REMARK    1  A    between atoms: C_1  and  N_70
REMARK    2  A    between atoms: C_7  and  C_9
REMARK    3  A    between atoms: C_13  and  C_18
REMARK    4  A    between atoms: C_18  and  O_34
REMARK    5  A    between atoms: C_23  and  C_24
REMARK    6  A    between atoms: C_23  and  N_72
REMARK    7  A    between atoms: C_25  and  C_26
REMARK    8  A    between atoms: C_31  and  O_32
REMARK    9  A    between atoms: O_32  and  C_33
REMARK                            x       y       z     vdW  Elec       q    Type
REMARK                         _______ _______ _______ _____ _____    ______ ____
ROOT
ATOM      1  C   UNL     1      -1.363  11.238  -2.855  0.00  0.00    +0.088 C 
ATOM      2  C   UNL     1      -0.028  11.916  -2.535  0.00  0.00    +0.021 C 
ATOM      3  C   UNL     1      -0.057  13.356  -3.052  0.00  0.00    -0.075 C 
ATOM      4  C   UNL     1      -2.458  13.479  -2.749  0.00  0.00    -0.075 C 
ATOM      5  C   UNL     1      -2.502  12.043  -2.222  0.00  0.00    +0.021 C 
ATOM      6  N   UNL     1      -1.158  14.084  -2.387  0.00  0.00    +0.382 N 
ATOM      7  H   UNL     1      -1.033  14.020  -1.370  0.00  0.00    -0.081 HD
ENDROOT
BRANCH   1  12
ATOM      8  C   UNL     1      -0.767   5.305  -2.064  0.00  0.00    +0.191 A 
ATOM      9  C   UNL     1      -0.524   6.196  -3.061  0.00  0.00    +0.063 A 
ATOM     10  C   UNL     1      -0.919   7.504  -2.540  0.00  0.00    +0.021 A 
ATOM     11  C   UNL     1      -0.917   8.800  -3.061  0.00  0.00    +0.018 A 
ATOM     12  C   UNL     1      -1.365   9.839  -2.294  0.00  0.00    -0.015 A 
ATOM     13  C   UNL     1      -1.821   9.614  -1.002  0.00  0.00    +0.010 A 
ATOM     14  C   UNL     1      -1.830   8.343  -0.470  0.00  0.00    +0.047 A 
ATOM     15  C   UNL     1      -1.380   7.270  -1.231  0.00  0.00    +0.136 A 
ATOM     16  O   UNL     1      -1.277   5.949  -0.993  0.00  0.00    -0.450 OA
BRANCH   8  23
ATOM     17  C   UNL     1       0.912   1.074   2.288  0.00  0.00    -0.096 C 
ATOM     18  C   UNL     1       0.446   1.136  -0.087  0.00  0.00    -0.060 C 
ATOM     19  C   UNL     1      -0.564   1.626  -1.131  0.00  0.00    +0.089 C 
ATOM     20  N   UNL     1      -0.652   3.091  -1.044  0.00  0.00    -0.299 N 
ATOM     21  C   UNL     1      -0.889   3.697   0.276  0.00  0.00    +0.089 C 
ATOM     22  C   UNL     1       0.133   3.126   1.264  0.00  0.00    -0.060 C 
ATOM     23  C   UNL     1      -0.520   3.859  -2.144  0.00  0.00    +0.282 C 
ATOM     24  O   UNL     1      -0.196   3.354  -3.202  0.00  0.00    -0.267 OA
ATOM     25  N   UNL     1       0.043   1.649   1.240  0.00  0.00    +0.380 N 
ATOM     26  H   UNL     1      -0.928   1.372   1.424  0.00  0.00    -0.082 HD
ENDBRANCH   8  23
ENDBRANCH   1  12
BRANCH   1  27
ATOM     27  O   UNL     1      -1.546  11.185  -4.271  0.00  0.00    -0.384 OA
ATOM     28  H   UNL     1      -0.858  10.690  -4.738  0.00  0.00    +0.211 HD
ENDBRANCH   1  27
BRANCH   6  29
ATOM     29  C   UNL     1      -1.135  15.507  -2.785  0.00  0.00    -0.051 C 
BRANCH  29  30
ATOM     30  C   UNL     1       0.272  16.032  -2.661  0.00  0.00    -0.045 C 
ATOM     31  C   UNL     1       0.853  16.623  -3.696  0.00  0.00    +0.005 C 
BRANCH  31  32
ATOM     32  C   UNL     1       2.232  17.137  -3.574  0.00  0.00    +0.016 A 
ATOM     33  C   UNL     1       2.927  17.003  -2.372  0.00  0.00    +0.011 A 
ATOM     34  C   UNL     1       4.215  17.485  -2.264  0.00  0.00    +0.001 A 
ATOM     35  C   UNL     1       4.822  18.101  -3.345  0.00  0.00    +0.004 A 
ATOM     36  C   UNL     1       4.143  18.240  -4.541  0.00  0.00    +0.046 A 
ATOM     37  C   UNL     1       2.851  17.757  -4.667  0.00  0.00    +0.127 A 
BRANCH  37  38
ATOM     38  O   UNL     1       2.185  17.888  -5.843  0.00  0.00    -0.495 OA
ATOM     39  C   UNL     1       2.880  18.530  -6.914  0.00  0.00    +0.277 C 
ENDBRANCH  37  38
ENDBRANCH  31  32
ENDBRANCH  29  30
ENDBRANCH   6  29
TORSDOF 7
