REMARK  Name = ZINC37523418
REMARK  6 active torsions:
REMARK  status: ('A' for Active; 'I' for Inactive)
REMARK    1  A    between atoms: C_1  and  C_2
REMARK    2  A    between atoms: C_2  and  C_3
REMARK    3  A    between atoms: C_3  and  N_4
REMARK    4  A    between atoms: N_10  and  C_16
REMARK    5  A    between atoms: C_13  and  C_15
REMARK    6  A    between atoms: C_19  and  C_23
REMARK                            x       y       z     vdW  Elec       q    Type
REMARK                         _______ _______ _______ _____ _____    ______ ____
ROOT
ATOM      1  N   UNL     1       0.107  -2.530  -0.953  0.00  0.00    -0.299 N 
ATOM      2  C   UNL     1       0.606  -2.883  -2.154  0.00  0.00    +0.303 C 
ATOM      3  O   UNL     1       0.594  -2.088  -3.074  0.00  0.00    -0.253 OA
ATOM      4  N   UNL     1       1.117  -4.117  -2.336  0.00  0.00    -0.273 N 
ATOM      5  C   UNL     1       1.041  -5.140  -1.280  0.00  0.00    +0.129 C 
ATOM      6  C   UNL     1       0.224  -6.318  -1.815  0.00  0.00    +0.132 C 
ATOM      7  N   UNL     1       0.664  -6.687  -3.153  0.00  0.00    -0.268 N 
ATOM      8  C   UNL     1       1.320  -5.877  -3.985  0.00  0.00    +0.240 C 
ATOM      9  O   UNL     1       1.564  -6.272  -5.105  0.00  0.00    -0.273 OA
ATOM     10  C   UNL     1       1.766  -4.497  -3.599  0.00  0.00    +0.161 C 
ATOM     11  C   UNL     1       1.372  -3.507  -4.697  0.00  0.00    +0.038 C 
ATOM     12  H   UNL     1       0.049  -3.186  -0.241  0.00  0.00    +0.150 HD
ENDROOT
BRANCH   7  13
ATOM     13  C   UNL     1       0.379  -7.983  -3.598  0.00  0.00    +0.039 A 
ATOM     14  C   UNL     1       1.294  -9.007  -3.391  0.00  0.00    +0.024 A 
ATOM     15  C   UNL     1       1.011 -10.285  -3.830  0.00  0.00    +0.008 A 
ATOM     16  C   UNL     1      -0.183 -10.548  -4.475  0.00  0.00    -0.015 A 
ATOM     17  C   UNL     1      -1.099  -9.530  -4.683  0.00  0.00    +0.128 A 
ATOM     18  C   UNL     1      -0.823  -8.249  -4.240  0.00  0.00    +0.062 A 
ATOM     19  F   UNL     1      -2.265  -9.789  -5.314  0.00  0.00    -0.205 F 
ATOM     20  C   UNL     1      -0.489 -11.944  -4.954  0.00  0.00    +0.047 C 
ENDBRANCH   7  13
BRANCH   1  21
ATOM     21  C   UNL     1      -0.347  -1.157  -0.723  0.00  0.00    +0.105 C 
BRANCH  21  23
ATOM     22  C   UNL     1      -1.337   0.411   0.952  0.00  0.00    +0.005 C 
ATOM     23  C   UNL     1      -0.863  -1.024   0.712  0.00  0.00    +0.015 C 
ENDBRANCH  21  23
ENDBRANCH   1  21
TORSDOF 3
