REMARK  Name = ZINC02183168
REMARK  10 active torsions:
REMARK  status: ('A' for Active; 'I' for Inactive)
REMARK    1  A    between atoms: C_1  and  C_2
REMARK    2  A    between atoms: C_2  and  C_3
REMARK    3  A    between atoms: C_2  and  C_4
REMARK    4  A    between atoms: C_2  and  C_5
REMARK    5  A    between atoms: C_14  and  N_28
REMARK    6  A    between atoms: C_16  and  S_18
REMARK    7  A    between atoms: S_18  and  C_19
REMARK    8  A    between atoms: C_19  and  C_20
REMARK    9  A    between atoms: C_23  and  O_26
REMARK   10  A    between atoms: O_26  and  C_27
REMARK                            x       y       z     vdW  Elec       q    Type
REMARK                         _______ _______ _______ _____ _____    ______ ____
ROOT
ATOM      1  C   UNL     1       0.416  -0.160  -1.857  0.00  0.00    -0.000 C 
ATOM      2  C   UNL     1       0.456  -1.681  -1.686  0.00  0.00    +0.009 C 
ATOM      3  C   UNL     1       1.062  -2.329  -2.930  0.00  0.00    +0.037 C 
ATOM      4  C   UNL     1       2.404  -1.666  -3.233  0.00  0.00    -0.025 A 
ATOM      5  C   UNL     1       2.707  -0.458  -2.708  0.00  0.00    -0.004 A 
ATOM      6  S   UNL     1       4.333  -0.079  -3.313  0.00  0.00    -0.073 S 
ATOM      7  C   UNL     1       4.605  -1.537  -4.268  0.00  0.00    +0.115 A 
ATOM      8  C   UNL     1       3.411  -2.279  -4.084  0.00  0.00    +0.051 A 
ATOM      9  C   UNL     1       3.324  -3.538  -4.746  0.00  0.00    +0.129 A 
ATOM     10  N   UNL     1       4.382  -3.888  -5.474  0.00  0.00    -0.207 NA
ATOM     11  C   UNL     1       5.470  -3.142  -5.602  0.00  0.00    +0.191 A 
ATOM     12  N   UNL     1       5.612  -1.954  -5.009  0.00  0.00    -0.215 NA
ATOM     13  C   UNL     1       1.852   0.381  -1.808  0.00  0.00    +0.046 C 
ENDROOT
BRANCH   1  15
ATOM     14  C   UNL     1      -0.437   1.983  -0.897  0.00  0.00    +0.011 C 
ATOM     15  C   UNL     1      -0.406   0.463  -0.727  0.00  0.00    -0.035 C 
ATOM     16  C   UNL     1       0.231   0.113   0.619  0.00  0.00    +0.011 C 
ATOM     17  C   UNL     1      -1.834  -0.085  -0.774  0.00  0.00    +0.011 C 
ENDBRANCH   1  15
BRANCH   9  18
ATOM     18  N   UNL     1       2.208  -4.347  -4.640  0.00  0.00    -0.343 N 
ATOM     19  H   UNL     1       1.371  -3.979  -4.317  0.00  0.00    +0.144 HD
ATOM     20  H   UNL     1       2.262  -5.284  -4.887  0.00  0.00    +0.144 HD
ENDBRANCH   9  18
BRANCH  11  21
ATOM     21  S   UNL     1       6.788  -3.745  -6.603  0.00  0.00    -0.081 S 
BRANCH  21  22
ATOM     22  C   UNL     1       6.083  -5.325  -7.135  0.00  0.00    +0.112 C 
BRANCH  22  23
ATOM     23  C   UNL     1       7.065  -6.038  -8.028  0.00  0.00    -0.037 A 
ATOM     24  C   UNL     1       7.030  -5.832  -9.395  0.00  0.00    +0.008 A 
ATOM     25  C   UNL     1       7.933  -6.481 -10.215  0.00  0.00    +0.046 A 
ATOM     26  C   UNL     1       8.867  -7.347  -9.668  0.00  0.00    +0.120 A 
ATOM     27  C   UNL     1       8.897  -7.556  -8.297  0.00  0.00    +0.046 A 
ATOM     28  C   UNL     1       7.996  -6.901  -7.480  0.00  0.00    +0.008 A 
BRANCH  26  29
ATOM     29  O   UNL     1       9.753  -7.990 -10.474  0.00  0.00    -0.495 OA
ATOM     30  C   UNL     1       9.664  -7.727 -11.876  0.00  0.00    +0.277 C 
ENDBRANCH  26  29
ENDBRANCH  22  23
ENDBRANCH  21  22
ENDBRANCH  11  21
TORSDOF 6
