REMARK  Name = ZINC39534271
REMARK  11 active torsions:
REMARK  status: ('A' for Active; 'I' for Inactive)
REMARK    1  A    between atoms: C_1  and  S_2
REMARK    2  A    between atoms: S_2  and  C_3
REMARK    3  A    between atoms: N_6  and  C_10
REMARK    4  A    between atoms: C_10  and  C_12
REMARK    5  A    between atoms: C_10  and  C_21
REMARK    6  A    between atoms: C_12  and  N_13
REMARK    7  A    between atoms: N_13  and  C_14
REMARK    8  A    between atoms: C_19  and  O_20
REMARK    9  A    between atoms: C_24  and  S_27
REMARK   10  A    between atoms: S_27  and  O_30
REMARK   11  A    between atoms: O_30  and  C_31
REMARK                            x       y       z     vdW  Elec       q    Type
REMARK                         _______ _______ _______ _____ _____    ______ ____
ROOT
ATOM      1  C   UNL     1      -3.652  -3.018  -1.980  0.00  0.00    -0.020 C 
ENDROOT
BRANCH   1   4
ATOM      2  C   UNL     1      -2.036  -0.462   0.244  0.00  0.00    +0.095 C 
ATOM      3  C   UNL     1      -2.160  -1.501  -0.872  0.00  0.00    -0.048 C 
ATOM      4  N   UNL     1      -3.538  -2.007  -0.920  0.00  0.00    +0.388 N 
ATOM      5  C   UNL     1      -4.459  -0.897  -1.201  0.00  0.00    -0.062 C 
ATOM      6  C   UNL     1      -4.354   0.147  -0.087  0.00  0.00    +0.063 C 
ATOM      7  N   UNL     1      -2.973   0.642  -0.011  0.00  0.00    -0.308 NA
ATOM      8  H   UNL     1      -2.884   1.361   0.691  0.00  0.00    +0.123 HD
ATOM      9  H   UNL     1      -3.775  -2.423  -0.032  0.00  0.00    -0.081 HD
BRANCH   2  11
ATOM     10  C   UNL     1      -0.555   1.974   0.449  0.00  0.00    +0.086 C 
ATOM     11  S   UNL     1      -0.341   0.180   0.288  0.00  0.00    -0.147 S 
ENDBRANCH   2  11
ENDBRANCH   1   4
BRANCH   1  12
ATOM     12  C   UNL     1      -5.075  -3.509  -2.055  0.00  0.00    -0.059 A 
ATOM     13  C   UNL     1      -5.796  -3.718  -0.894  0.00  0.00    +0.004 A 
ATOM     14  C   UNL     1      -7.101  -4.169  -0.962  0.00  0.00    +0.031 A 
ATOM     15  C   UNL     1      -7.685  -4.410  -2.192  0.00  0.00    +0.128 A 
ATOM     16  C   UNL     1      -6.964  -4.200  -3.353  0.00  0.00    +0.031 A 
ATOM     17  C   UNL     1      -5.661  -3.745  -3.284  0.00  0.00    +0.004 A 
BRANCH  15  18
ATOM     18  S   UNL     1      -9.348  -4.986  -2.279  0.00  0.00    +0.151 S 
ATOM     19  O   UNL     1      -9.481  -5.655  -3.525  0.00  0.00    -0.131 OA
ATOM     20  O   UNL     1      -9.623  -5.623  -1.039  0.00  0.00    -0.131 OA
BRANCH  18  21
ATOM     21  O   UNL     1     -10.246  -3.759  -2.346  0.00  0.00    -0.342 OA
BRANCH  21  22
ATOM     22  C   UNL     1     -10.245  -3.139  -3.555  0.00  0.00    +0.157 A 
ATOM     23  C   UNL     1      -9.325  -2.135  -3.820  0.00  0.00    +0.048 A 
ATOM     24  C   UNL     1      -9.326  -1.506  -5.051  0.00  0.00    +0.004 A 
ATOM     25  C   UNL     1     -10.243  -1.876  -6.016  0.00  0.00    +0.000 A 
ATOM     26  C   UNL     1     -11.162  -2.876  -5.754  0.00  0.00    +0.004 A 
ATOM     27  C   UNL     1     -11.161  -3.512  -4.528  0.00  0.00    +0.048 A 
ENDBRANCH  21  22
ENDBRANCH  18  21
ENDBRANCH  15  18
ENDBRANCH   1  12
BRANCH   1  28
ATOM     28  C   UNL     1      -2.723  -4.192  -1.667  0.00  0.00    +0.091 C 
BRANCH  28  29
ATOM     29  N   UNL     1      -2.776  -5.163  -2.762  0.00  0.00    -0.342 N 
ATOM     30  H   UNL     1      -3.288  -4.964  -3.562  0.00  0.00    +0.146 HD
BRANCH  29  31
ATOM     31  C   UNL     1      -2.091  -6.378  -2.655  0.00  0.00    +0.069 A 
ATOM     32  C   UNL     1      -1.364  -6.668  -1.509  0.00  0.00    +0.026 A 
ATOM     33  C   UNL     1      -0.688  -7.869  -1.405  0.00  0.00    +0.002 A 
ATOM     34  C   UNL     1      -0.733  -8.783  -2.441  0.00  0.00    +0.004 A 
ATOM     35  C   UNL     1      -1.456  -8.502  -3.586  0.00  0.00    +0.047 A 
ATOM     36  C   UNL     1      -2.140  -7.303  -3.696  0.00  0.00    +0.138 A 
BRANCH  36  37
ATOM     37  O   UNL     1      -2.856  -7.027  -4.819  0.00  0.00    -0.505 OA
ATOM     38  H   UNL     1      -2.348  -6.576  -5.508  0.00  0.00    +0.292 HD
ENDBRANCH  36  37
ENDBRANCH  29  31
ENDBRANCH  28  29
ENDBRANCH   1  28
TORSDOF 10
