REMARK  Name = ZINC52781212
REMARK  4 active torsions:
REMARK  status: ('A' for Active; 'I' for Inactive)
REMARK    1  A    between atoms: C_1  and  C_2
REMARK    2  A    between atoms: C_12  and  S_14
REMARK    3  A    between atoms: S_14  and  N_17
REMARK    4  A    between atoms: N_17  and  C_18
REMARK                            x       y       z     vdW  Elec       q    Type
REMARK                         _______ _______ _______ _____ _____    ______ ____
ROOT
ATOM      1  C   UNL     1       1.316  -0.742   0.016  0.00  0.00    +0.109 C 
ATOM      2  C   UNL     1       0.002  -0.004   0.002  0.00  0.00    +0.217 C 
ATOM      3  O   UNL     1      -0.015   1.206   0.076  0.00  0.00    -0.276 OA
ATOM      4  N   UNL     1      -1.155  -0.689  -0.092  0.00  0.00    -0.271 N 
ATOM      5  C   UNL     1      -1.154  -2.159  -0.096  0.00  0.00    +0.114 C 
ATOM      6  C   UNL     1      -2.109  -2.625  -1.203  0.00  0.00    +0.024 C 
ATOM      7  C   UNL     1      -3.524  -2.158  -0.864  0.00  0.00    +0.038 C 
ATOM      8  C   UNL     1      -3.534  -0.683  -0.559  0.00  0.00    -0.024 A 
ATOM      9  C   UNL     1      -2.379  -0.012  -0.183  0.00  0.00    +0.040 A 
ATOM     10  C   UNL     1      -2.423   1.347   0.102  0.00  0.00    +0.026 A 
ATOM     11  C   UNL     1      -3.619   2.033   0.016  0.00  0.00    +0.031 A 
ATOM     12  C   UNL     1      -4.771   1.365  -0.356  0.00  0.00    +0.111 A 
ATOM     13  C   UNL     1      -4.728   0.012  -0.650  0.00  0.00    +0.034 A 
ENDROOT
BRANCH  12  14
ATOM     14  S   UNL     1      -6.296   2.240  -0.467  0.00  0.00    +0.092 S 
ATOM     15  O   UNL     1      -7.329   1.278  -0.305  0.00  0.00    -0.148 OA
ATOM     16  O   UNL     1      -6.175   3.377   0.376  0.00  0.00    -0.148 OA
BRANCH  14  17
ATOM     17  N   UNL     1      -6.421   2.811  -2.017  0.00  0.00    -0.096 NA
BRANCH  17  18
ATOM     18  C   UNL     1      -7.543   3.552  -2.401  0.00  0.00    +0.093 A 
ATOM     19  C   UNL     1      -8.550   3.815  -1.482  0.00  0.00    +0.029 A 
ATOM     20  C   UNL     1      -9.658   4.548  -1.863  0.00  0.00    +0.022 A 
ATOM     21  C   UNL     1      -9.764   5.019  -3.160  0.00  0.00    +0.042 A 
ATOM     22  C   UNL     1      -8.762   4.759  -4.078  0.00  0.00    +0.042 A 
ATOM     23  C   UNL     1      -7.649   4.032  -3.700  0.00  0.00    +0.067 A 
ATOM     24 CL   UNL     1      -6.388   3.712  -4.851  0.00  0.00    -0.081 Cl
ATOM     25 CL   UNL     1     -11.157   5.939  -3.636  0.00  0.00    -0.083 Cl
ENDBRANCH  17  18
ENDBRANCH  14  17
ENDBRANCH  12  14
TORSDOF 3
