REMARK  Name = ZINC35774513
REMARK  12 active torsions:
REMARK  status: ('A' for Active; 'I' for Inactive)
REMARK    1  A    between atoms: C_1  and  C_2
REMARK    2  A    between atoms: C_6  and  C_7
REMARK    3  A    between atoms: C_7  and  N_8
REMARK    4  A    between atoms: N_8  and  C_9
REMARK    5  A    between atoms: C_9  and  C_10
REMARK    6  A    between atoms: C_16  and  C_18
REMARK    7  A    between atoms: C_18  and  N_19
REMARK    8  A    between atoms: N_19  and  C_20
REMARK    9  A    between atoms: C_20  and  C_21
REMARK   10  A    between atoms: C_21  and  N_22
REMARK   11  A    between atoms: C_27  and  C_29
REMARK   12  A    between atoms: C_33  and  N_35
REMARK                            x       y       z     vdW  Elec       q    Type
REMARK                         _______ _______ _______ _____ _____    ______ ____
ROOT
ATOM      1  N   UNL     1      -2.832   3.148   1.781  0.00  0.00    -0.290 N 
ATOM      2  C   UNL     1      -3.807   2.996   0.863  0.00  0.00    +0.247 C 
ATOM      3  O   UNL     1      -4.740   3.774   0.834  0.00  0.00    -0.270 OA
ENDROOT
BRANCH   2   4
ATOM      4  C   UNL     1      -3.742   1.883  -0.107  0.00  0.00    +0.039 A 
ATOM      5  C   UNL     1      -3.418   0.595   0.324  0.00  0.00    +0.013 A 
ATOM      6  C   UNL     1      -3.360  -0.439  -0.587  0.00  0.00    +0.003 A 
ATOM      7  C   UNL     1      -3.621  -0.203  -1.925  0.00  0.00    +0.033 A 
ATOM      8  C   UNL     1      -3.942   1.071  -2.359  0.00  0.00    +0.127 A 
ATOM      9  C   UNL     1      -4.010   2.114  -1.457  0.00  0.00    +0.045 A 
BRANCH   8  10
ATOM     10  N   UNL     1      -4.220   1.315  -3.792  0.00  0.00    +0.056 N 
ATOM     11  O   UNL     1      -4.165   0.402  -4.583  0.00  0.00    -0.126 OA
ATOM     12  O   UNL     1      -4.500   2.428  -4.173  0.00  0.00    -0.126 OA
ENDBRANCH   8  10
ENDBRANCH   2   4
BRANCH   1  13
ATOM     13  C   UNL     1      -1.651   2.282   1.744  0.00  0.00    +0.203 C 
BRANCH  13  15
ATOM     14  N   UNL     1      -0.824   0.281   2.940  0.00  0.00    -0.291 N 
ATOM     15  C   UNL     1      -1.839   1.135   2.704  0.00  0.00    +0.234 C 
ATOM     16  O   UNL     1      -2.904   0.981   3.263  0.00  0.00    -0.274 OA
BRANCH  14  17
ATOM     17  C   UNL     1       0.429   0.406   2.190  0.00  0.00    +0.150 C 
BRANCH  17  23
ATOM     18  C   UNL     1       0.897  -2.598   1.750  0.00  0.00    +0.044 C 
ATOM     19  C   UNL     1       0.505  -1.660   0.638  0.00  0.00    -0.039 A 
ATOM     20  C   UNL     1       0.333  -2.132  -0.649  0.00  0.00    +0.011 A 
ATOM     21  C   UNL     1      -0.020  -1.261  -1.627  0.00  0.00    +0.046 A 
ATOM     22  S   UNL     1      -0.119   0.280  -0.731  0.00  0.00    -0.100 S 
ATOM     23  C   UNL     1       0.311  -0.342   0.887  0.00  0.00    +0.010 A 
ENDBRANCH  17  23
ENDBRANCH  14  17
BRANCH  14  24
ATOM     24  C   UNL     1      -0.972  -0.773   3.947  0.00  0.00    +0.143 C 
BRANCH  24  25
ATOM     25  C   UNL     1      -0.516  -0.256   5.287  0.00  0.00    -0.030 A 
ATOM     26  C   UNL     1       0.807  -0.393   5.666  0.00  0.00    +0.005 A 
ATOM     27  C   UNL     1       1.226   0.081   6.895  0.00  0.00    +0.000 A 
ATOM     28  C   UNL     1       0.322   0.693   7.744  0.00  0.00    +0.000 A 
ATOM     29  C   UNL     1      -1.000   0.830   7.364  0.00  0.00    +0.000 A 
ATOM     30  C   UNL     1      -1.418   0.360   6.134  0.00  0.00    +0.005 A 
ENDBRANCH  24  25
ENDBRANCH  14  24
ENDBRANCH  13  15
ENDBRANCH   1  13
BRANCH   1  31
ATOM     31  C   UNL     1      -2.952   4.179   2.815  0.00  0.00    +0.090 C 
BRANCH  31  32
ATOM     32  C   UNL     1      -2.439   5.512   2.268  0.00  0.00    -0.060 C 
BRANCH  32  33
ATOM     33  N   UNL     1      -2.560   6.546   3.304  0.00  0.00    +0.381 N 
ATOM     34  C   UNL     1      -1.605   6.277   4.409  0.00  0.00    -0.079 C 
ATOM     35  C   UNL     1      -1.443   7.663   5.083  0.00  0.00    -0.020 C 
ATOM     36  C   UNL     1      -1.469   8.637   3.882  0.00  0.00    -0.020 C 
ATOM     37  C   UNL     1      -2.180   7.866   2.755  0.00  0.00    -0.079 C 
ATOM     38  H   UNL     1      -3.504   6.575   3.659  0.00  0.00    -0.082 HD
ENDBRANCH  32  33
ENDBRANCH  31  32
ENDBRANCH   1  31
TORSDOF 11
