REMARK  Name = ZINC01881663
REMARK  12 active torsions:
REMARK  status: ('A' for Active; 'I' for Inactive)
REMARK    1  A    between atoms: C_1  and  C_2
REMARK    2  A    between atoms: C_2  and  C_3
REMARK    3  A    between atoms: C_3  and  C_4
REMARK    4  A    between atoms: C_4  and  C_5
REMARK    5  A    between atoms: C_5  and  C_6
REMARK    6  A    between atoms: C_6  and  C_7
REMARK    7  A    between atoms: C_11  and  C_30
REMARK    8  A    between atoms: C_16  and  O_17
REMARK    9  A    between atoms: N_18  and  N_19
REMARK   10  A    between atoms: C_20  and  C_22
REMARK   11  A    between atoms: C_27  and  O_28
REMARK   12  A    between atoms: O_28  and  C_29
REMARK                            x       y       z     vdW  Elec       q    Type
REMARK                         _______ _______ _______ _____ _____    ______ ____
ROOT
ATOM      1  C   UNL     1      -4.881  -3.270  -0.011  0.00  0.00    -0.005 A 
ATOM      2  C   UNL     1      -3.709  -2.610  -0.190  0.00  0.00    +0.018 A 
ATOM      3  C   UNL     1      -3.670  -1.205  -0.087  0.00  0.00    +0.019 A 
ATOM      4  C   UNL     1      -2.465  -0.508  -0.275  0.00  0.00    +0.030 A 
ATOM      5  C   UNL     1      -2.474   0.884  -0.156  0.00  0.00    +0.098 A 
ATOM      6  C   UNL     1      -3.679   1.546   0.134  0.00  0.00    +0.224 A 
ATOM      7  O   UNL     1      -4.817   0.864   0.304  0.00  0.00    -0.437 OA
ATOM      8  C   UNL     1      -4.851  -0.481   0.204  0.00  0.00    +0.141 A 
ATOM      9  C   UNL     1      -6.038  -1.163   0.384  0.00  0.00    +0.092 A 
ATOM     10  C   UNL     1      -6.061  -2.558   0.279  0.00  0.00    +0.124 A 
ATOM     11  N   UNL     1      -3.688   2.900   0.243  0.00  0.00    -0.273 N 
ATOM     12  H   UNL     1      -2.939   3.501  -0.294  0.00  0.00    +0.188 HD
ENDROOT
BRANCH   5  13
ATOM     13  C   UNL     1      -1.231   1.652  -0.340  0.00  0.00    +0.247 C 
ATOM     14  O   UNL     1      -1.219   2.850  -0.128  0.00  0.00    -0.270 OA
ATOM     15  N   UNL     1      -0.106   1.028  -0.742  0.00  0.00    -0.325 N 
ATOM     16  H   UNL     1       0.822   1.602  -0.879  0.00  0.00    +0.145 HD
ATOM     17  H   UNL     1      -0.117  -0.055  -0.933  0.00  0.00    +0.145 HD
ENDBRANCH   5  13
BRANCH  11  18
ATOM     18  N   UNL     1      -4.651   3.532   1.041  0.00  0.00    -0.223 N 
ATOM     19  C   UNL     1      -4.660   4.875   1.150  0.00  0.00    +0.265 C 
ATOM     20  O   UNL     1      -3.832   5.539   0.555  0.00  0.00    -0.268 OA
ATOM     21  H   UNL     1      -5.399   2.932   1.579  0.00  0.00    +0.175 HD
BRANCH  19  22
ATOM     22  C   UNL     1      -5.674   5.541   1.990  0.00  0.00    +0.080 A 
ATOM     23  C   UNL     1      -6.630   4.783   2.670  0.00  0.00    +0.017 A 
ATOM     24  C   UNL     1      -7.571   5.410   3.457  0.00  0.00    +0.001 A 
ATOM     25  C   UNL     1      -7.581   6.791   3.569  0.00  0.00    +0.004 A 
ATOM     26  C   UNL     1      -6.645   7.552   2.898  0.00  0.00    +0.046 A 
ATOM     27  C   UNL     1      -5.687   6.937   2.106  0.00  0.00    +0.132 A 
BRANCH  27  28
ATOM     28  O   UNL     1      -4.767   7.684   1.445  0.00  0.00    -0.494 OA
ATOM     29  C   UNL     1      -4.842   9.102   1.611  0.00  0.00    +0.277 C 
ENDBRANCH  27  28
ENDBRANCH  19  22
ENDBRANCH  11  18
BRANCH  10  30
ATOM     30  O   UNL     1      -7.115  -3.164   0.440  0.00  0.00    -0.506 OA
ATOM     31  H   UNL     1      -8.039  -2.611   0.667  0.00  0.00    +0.292 HD
ENDBRANCH  10  30
BRANCH   1  32
ATOM     32  C   UNL     1      -4.919  -4.772  -0.122  0.00  0.00    +0.039 C 
BRANCH  32  33
ATOM     33  C   UNL     1      -4.903  -5.388   1.279  0.00  0.00    +0.005 C 
BRANCH  33  34
ATOM     34  C   UNL     1      -4.942  -6.913   1.166  0.00  0.00    +0.000 C 
BRANCH  34  35
ATOM     35  C   UNL     1      -4.927  -7.529   2.567  0.00  0.00    -0.000 C 
BRANCH  35  37
ATOM     36  C   UNL     1      -4.950  -9.669   3.855  0.00  0.00    +0.004 C 
ATOM     37  C   UNL     1      -4.966  -9.054   2.454  0.00  0.00    -0.003 C 
ENDBRANCH  35  37
ENDBRANCH  34  35
ENDBRANCH  33  34
ENDBRANCH  32  33
ENDBRANCH   1  32
TORSDOF 10
