REMARK  Name = ZINC64870385
REMARK  7 active torsions:
REMARK  status: ('A' for Active; 'I' for Inactive)
REMARK    1  A    between atoms: C_1  and  O_2
REMARK    2  A    between atoms: O_2  and  C_3
REMARK    3  A    between atoms: C_7  and  C_9
REMARK    4  A    between atoms: C_9  and  N_10
REMARK    5  A    between atoms: C_16  and  C_23
REMARK    6  A    between atoms: C_26  and  C_30
REMARK    7  A    between atoms: C_34  and  C_36
REMARK                            x       y       z     vdW  Elec       q    Type
REMARK                         _______ _______ _______ _____ _____    ______ ____
ROOT
ATOM      1  N   UNL     1       2.544  -4.586  -1.633  0.00  0.00    -0.256 N 
ATOM      2  C   UNL     1       3.676  -4.722  -2.357  0.00  0.00    +0.265 A 
ATOM      3  O   UNL     1       3.696  -4.450  -3.542  0.00  0.00    -0.267 OA
ATOM      4  C   UNL     1       4.889  -5.207  -1.673  0.00  0.00    +0.063 A 
ATOM      5  C   UNL     1       6.095  -5.372  -2.349  0.00  0.00    +0.016 A 
ATOM      6  C   UNL     1       7.201  -5.829  -1.664  0.00  0.00    +0.008 A 
ATOM      7  C   UNL     1       7.117  -6.122  -0.311  0.00  0.00    -0.000 A 
ATOM      8  C   UNL     1       5.927  -5.962   0.371  0.00  0.00    +0.034 A 
ATOM      9  C   UNL     1       4.805  -5.504  -0.301  0.00  0.00    +0.056 A 
ATOM     10  N   UNL     1       3.590  -5.329   0.346  0.00  0.00    -0.307 N 
ATOM     11  H   UNL     1       3.518  -5.530   1.292  0.00  0.00    +0.170 HD
ATOM     12  C   UNL     1       2.515  -4.879  -0.323  0.00  0.00    +0.330 A 
ATOM     13  O   UNL     1       1.471  -4.735   0.282  0.00  0.00    -0.246 OA
ENDROOT
BRANCH   7  14
ATOM     14  C   UNL     1       8.336  -6.621   0.421  0.00  0.00    +0.242 C 
ATOM     15  N   UNL     1       9.557  -6.074  -0.204  0.00  0.00    -0.265 NA
ATOM     16  C   UNL     1      10.353  -7.240  -0.652  0.00  0.00    +0.180 C 
ATOM     17  N   UNL     1       9.858  -8.351   0.204  0.00  0.00    -0.177 NA
ATOM     18  O   UNL     1       8.411  -8.055   0.327  0.00  0.00    -0.274 OA
ATOM     19  H   UNL     1       9.327  -5.473  -0.981  0.00  0.00    +0.127 HD
ATOM     20  H   UNL     1      10.306  -8.338   1.108  0.00  0.00    +0.156 HD
BRANCH  16  21
ATOM     21  C   UNL     1      11.823  -7.000  -0.418  0.00  0.00    -0.014 A 
ATOM     22  C   UNL     1      12.328  -5.714  -0.455  0.00  0.00    +0.006 A 
ATOM     23  C   UNL     1      13.675  -5.494  -0.241  0.00  0.00    +0.001 A 
ATOM     24  C   UNL     1      14.518  -6.560   0.011  0.00  0.00    +0.012 A 
ATOM     25  C   UNL     1      14.013  -7.846   0.049  0.00  0.00    +0.055 A 
ATOM     26  C   UNL     1      12.665  -8.066  -0.161  0.00  0.00    +0.019 A 
BRANCH  25  27
ATOM     27  C   UNL     1      14.932  -9.009   0.324  0.00  0.00    +0.417 C 
ATOM     28  F   UNL     1      16.237  -8.539   0.505  0.00  0.00    -0.166 F 
ATOM     29  F   UNL     1      14.511  -9.673   1.480  0.00  0.00    -0.166 F 
ATOM     30  F   UNL     1      14.902  -9.893  -0.760  0.00  0.00    -0.166 F 
ENDBRANCH  25  27
ENDBRANCH  16  21
ENDBRANCH   7  14
BRANCH   1  31
ATOM     31  C   UNL     1       1.325  -4.106  -2.289  0.00  0.00    +0.165 C 
BRANCH  31  36
ATOM     32  C   UNL     1       0.606  -0.607  -1.056  0.00  0.00    +0.120 A 
ATOM     33  C   UNL     1       1.173   0.161  -2.063  0.00  0.00    +0.045 A 
ATOM     34  C   UNL     1       1.786  -0.455  -3.136  0.00  0.00    +0.004 A 
ATOM     35  C   UNL     1       1.836  -1.835  -3.208  0.00  0.00    +0.005 A 
ATOM     36  C   UNL     1       1.271  -2.602  -2.207  0.00  0.00    -0.024 A 
ATOM     37  C   UNL     1       0.661  -1.991  -1.128  0.00  0.00    +0.051 A 
BRANCH  32  39
ATOM     38  C   UNL     1      -0.017   1.425   0.010  0.00  0.00    +0.277 C 
ATOM     39  O   UNL     1       0.002  -0.004   0.002  0.00  0.00    -0.495 OA
ENDBRANCH  32  39
ENDBRANCH  31  36
ENDBRANCH   1  31
TORSDOF 6
