REMARK  Name = ZINC07725482
REMARK  4 active torsions:
REMARK  status: ('A' for Active; 'I' for Inactive)
REMARK    1  A    between atoms: C_4  and  N_17
REMARK    2  A    between atoms: C_5  and  C_7
REMARK    3  A    between atoms: C_18  and  C_20
REMARK    4  A    between atoms: C_21  and  C_22
REMARK                            x       y       z     vdW  Elec       q    Type
REMARK                         _______ _______ _______ _____ _____    ______ ____
ROOT
ATOM      1  C   UNL     1      -0.140   1.339  -0.056  0.00  0.00    +0.001 A 
ATOM      2  C   UNL     1       1.022   2.091  -0.078  0.00  0.00    +0.002 A 
ATOM      3  C   UNL     1       2.256   1.471  -0.073  0.00  0.00    +0.024 A 
ATOM      4  C   UNL     1       2.338   0.086  -0.045  0.00  0.00    +0.044 A 
ATOM      5  C   UNL     1       1.163  -0.679  -0.022  0.00  0.00    +0.038 A 
ATOM      6  C   UNL     1      -0.077  -0.038  -0.028  0.00  0.00    +0.013 A 
ENDROOT
BRANCH   5   7
ATOM      7  C   UNL     1       1.237  -2.154   0.007  0.00  0.00    +0.141 A 
ATOM      8  N   UNL     1       0.162  -2.998  -0.075  0.00  0.00    -0.338 N 
ATOM      9  H   UNL     1      -0.768  -2.739  -0.162  0.00  0.00    +0.167 HD
ATOM     10  C   UNL     1       0.651  -4.289  -0.013  0.00  0.00    +0.066 A 
ATOM     11  C   UNL     1       0.062  -5.545  -0.046  0.00  0.00    +0.028 A 
ATOM     12  C   UNL     1       0.851  -6.673   0.041  0.00  0.00    +0.002 A 
ATOM     13  C   UNL     1       2.228  -6.560   0.160  0.00  0.00    +0.002 A 
ATOM     14  C   UNL     1       2.827  -5.333   0.195  0.00  0.00    +0.030 A 
ATOM     15  C   UNL     1       2.047  -4.175   0.108  0.00  0.00    +0.089 A 
ATOM     16  N   UNL     1       2.342  -2.852   0.110  0.00  0.00    -0.228 NA
ENDBRANCH   5   7
BRANCH   4  17
ATOM     17  N   UNL     1       3.582  -0.542  -0.040  0.00  0.00    -0.281 N 
ATOM     18  C   UNL     1       4.663   0.108   0.434  0.00  0.00    +0.241 C 
ATOM     19  O   UNL     1       4.537   1.204   0.950  0.00  0.00    -0.270 OA
ATOM     20  H   UNL     1       3.670  -1.447  -0.378  0.00  0.00    +0.155 HD
BRANCH  18  21
ATOM     21  C   UNL     1       5.944  -0.483   0.333  0.00  0.00    +0.068 C 
ATOM     22  C   UNL     1       7.033   0.172   0.810  0.00  0.00    +0.020 C 
BRANCH  22  23
ATOM     23  C   UNL     1       8.315  -0.419   0.709  0.00  0.00    +0.012 A 
ATOM     24  C   UNL     1       9.544   0.074   1.134  0.00  0.00    +0.015 A 
ATOM     25  C   UNL     1      10.626  -0.738   0.894  0.00  0.00    +0.008 A 
ATOM     26  C   UNL     1      10.432  -1.931   0.277  0.00  0.00    +0.046 A 
ATOM     27  S   UNL     1       8.775  -1.993   0.009  0.00  0.00    -0.097 S 
ENDBRANCH  22  23
ENDBRANCH  18  21
ENDBRANCH   4  17
TORSDOF 4
