REMARK  Name = ZINC66427043
REMARK  5 active torsions:
REMARK  status: ('A' for Active; 'I' for Inactive)
REMARK    1  A    between atoms: C_3  and  C_6
REMARK    2  A    between atoms: C_8  and  C_12
REMARK    3  A    between atoms: C_12  and  N_13
REMARK    4  A    between atoms: C_14  and  C_16
REMARK    5  A    between atoms: C_16  and  C_17
REMARK                            x       y       z     vdW  Elec       q    Type
REMARK                         _______ _______ _______ _____ _____    ______ ____
ROOT
ATOM      1  N   UNL     1       7.773   1.057   1.298  0.00  0.00    -0.308 N 
ATOM      2  C   UNL     1       9.024   0.611   1.526  0.00  0.00    +0.216 C 
ATOM      3  O   UNL     1       9.786   0.443   0.597  0.00  0.00    -0.276 OA
ATOM      4  H   UNL     1       7.164   1.191   2.041  0.00  0.00    +0.149 HD
ENDROOT
BRANCH   1   5
ATOM      5  C   UNL     1       7.333   1.339  -0.070  0.00  0.00    +0.180 C 
BRANCH   5   8
ATOM      6  C   UNL     1       3.740   1.825  -0.024  0.00  0.00    +0.188 A 
ATOM      7  N   UNL     1       4.842   1.062  -0.044  0.00  0.00    -0.209 NA
ATOM      8  C   UNL     1       5.906   1.821  -0.050  0.00  0.00    +0.143 A 
ATOM      9  N   UNL     1       5.508   3.106  -0.033  0.00  0.00    -0.261 N 
ATOM     10  H   UNL     1       6.080   3.890  -0.033  0.00  0.00    +0.190 HD
ATOM     11  N   UNL     1       4.104   3.091  -0.022  0.00  0.00    -0.152 NA
BRANCH   6  14
ATOM     12  C   UNL     1      -0.016   1.353   0.009  0.00  0.00    +0.008 A 
ATOM     13  C   UNL     1       1.178   2.041   0.002  0.00  0.00    +0.019 A 
ATOM     14  C   UNL     1       2.347   1.329  -0.013  0.00  0.00    +0.058 A 
ATOM     15  S   UNL     1       1.752  -0.354  -0.017  0.00  0.00    -0.093 S 
ATOM     16  C   UNL     1       0.002  -0.004   0.002  0.00  0.00    +0.046 A 
ENDBRANCH   6  14
ENDBRANCH   5   8
ENDBRANCH   1   5
BRANCH   2  17
ATOM     17  C   UNL     1       9.477   0.320   2.933  0.00  0.00    +0.132 C 
BRANCH  17  18
ATOM     18  C   UNL     1      10.926  -0.169   2.913  0.00  0.00    +0.158 C 
ATOM     19  C   UNL     1      11.354  -0.570   4.322  0.00  0.00    -0.008 A 
ATOM     20  C   UNL     1      10.563  -1.305   5.200  0.00  0.00    +0.014 A 
ATOM     21  C   UNL     1      11.028  -1.614   6.433  0.00  0.00    +0.046 A 
ATOM     22  S   UNL     1      12.650  -0.863   6.414  0.00  0.00    -0.101 S 
ATOM     23  C   UNL     1      12.585  -0.199   4.775  0.00  0.00    -0.002 A 
ATOM     24  C   UNL     1      13.607   0.587   4.020  0.00  0.00    +0.071 C 
ATOM     25  C   UNL     1      13.183   0.600   2.541  0.00  0.00    +0.166 C 
ATOM     26  O   UNL     1      11.783   0.883   2.464  0.00  0.00    -0.371 OA
ENDBRANCH  17  18
ENDBRANCH   2  17
TORSDOF 5
