REMARK  Name = ZINC09647499
REMARK  13 active torsions:
REMARK  status: ('A' for Active; 'I' for Inactive)
REMARK    1  A    between atoms: C_1  and  C_2
REMARK    2  A    between atoms: C_3  and  C_35
REMARK    3  A    between atoms: C_7  and  N_18
REMARK    4  A    between atoms: C_9  and  C_11
REMARK    5  A    between atoms: C_11  and  N_65
REMARK    6  A    between atoms: C_14  and  C_17
REMARK    7  A    between atoms: N_18  and  C_19
REMARK    8  A    between atoms: C_19  and  C_21
REMARK    9  A    between atoms: C_19  and  C_23
REMARK   10  A    between atoms: C_21  and  O_22
REMARK   11  A    between atoms: C_23  and  C_25
REMARK   12  A    between atoms: C_23  and  O_34
REMARK   13  A    between atoms: C_28  and  N_31
REMARK                            x       y       z     vdW  Elec       q    Type
REMARK                         _______ _______ _______ _____ _____    ______ ____
ROOT
ATOM      1  C   UNK A   0       4.679   1.673   0.069  0.00  0.00    +0.045 C 
ATOM      2  C   UNK A   0       3.254   2.156  -0.004  0.00  0.00    -0.028 A 
ATOM      3  C   UNK A   0       2.958   3.438   0.255  0.00  0.00    -0.008 A 
ATOM      4  S   UNK A   0       1.189   3.509   0.042  0.00  0.00    -0.074 S 
ATOM      5  C   UNK A   0       0.895   1.815  -0.390  0.00  0.00    +0.114 A 
ATOM      6  C   UNK A   0       2.184   1.239  -0.356  0.00  0.00    +0.051 A 
ATOM      7  C   UNK A   0       2.241  -0.147  -0.670  0.00  0.00    +0.131 A 
ATOM      8  N   UNK A   0       1.121  -0.788  -0.964  0.00  0.00    -0.219 NA
ATOM      9  C   UNK A   0      -0.053  -0.184  -0.976  0.00  0.00    +0.116 A 
ATOM     10  N   UNK A   0      -0.170   1.100  -0.694  0.00  0.00    -0.227 NA
ATOM     11  C   UNK A   0       3.897   4.554   0.637  0.00  0.00    +0.052 C 
ENDROOT
BRANCH   7  12
ATOM     12  N   UNK A   1       3.451  -0.816  -0.669  0.00  0.00    -0.321 N 
ATOM     13  H   UNK A   1       4.277  -0.325  -0.536  0.00  0.00    +0.148 HD
BRANCH  12  14
ATOM     14  C   UNK A   1       3.486  -2.267  -0.869  0.00  0.00    +0.130 C 
BRANCH  14  15
ATOM     15  C   UNK A   1       3.262  -2.972   0.471  0.00  0.00    +0.181 C 
BRANCH  15  16
ATOM     16  O   UNK A   1       4.345  -2.671   1.354  0.00  0.00    -0.393 OA
ATOM     17  H   UNK A   1       4.269  -3.086   2.224  0.00  0.00    +0.209 HD
ENDBRANCH  15  16
ENDBRANCH  14  15
BRANCH  14  18
ATOM     18  C   UNK A   1       4.848  -2.671  -1.436  0.00  0.00    +0.167 C 
BRANCH  18  19
ATOM     19  C   UNK A   1       5.117  -1.894  -2.699  0.00  0.00    -0.017 A 
ATOM     20  C   UNK A   1       4.546  -2.295  -3.892  0.00  0.00    +0.008 A 
ATOM     21  C   UNK A   1       4.788  -1.580  -5.050  0.00  0.00    +0.033 A 
ATOM     22  C   UNK A   1       5.610  -0.469  -5.016  0.00  0.00    +0.126 A 
ATOM     23  C   UNK A   1       6.186  -0.071  -3.824  0.00  0.00    +0.033 A 
ATOM     24  C   UNK A   1       5.939  -0.784  -2.666  0.00  0.00    +0.008 A 
BRANCH  22  25
ATOM     25  N   UNK A   1       5.874   0.294  -6.257  0.00  0.00    +0.056 N 
ATOM     26  O   UNK A   1       6.599   1.273  -6.227  0.00  0.00    -0.126 OA
ATOM     27  O   UNK A   1       5.367  -0.056  -7.307  0.00  0.00    -0.126 OA
ENDBRANCH  22  25
ENDBRANCH  18  19
BRANCH  18  28
ATOM     28  O   UNK A   1       4.846  -4.070  -1.729  0.00  0.00    -0.385 OA
ATOM     29  H   UNK A   1       4.128  -4.349  -2.313  0.00  0.00    +0.210 HD
ENDBRANCH  18  28
ENDBRANCH  14  18
ENDBRANCH  12  14
ENDBRANCH   7  12
BRANCH   9  30
ATOM     30  C   UNK A   0      -1.287  -0.977  -1.321  0.00  0.00    -0.001 C 
BRANCH  30  37
ATOM     31  C   UNK A   0      -0.267  -1.165  -3.508  0.00  0.00    -0.078 C 
ATOM     32  C   UNK A   0      -0.509  -0.960  -5.005  0.00  0.00    -0.016 C 
ATOM     33  C   UNK A   0      -1.599  -1.927  -5.478  0.00  0.00    -0.018 C 
ATOM     34  C   UNK A   0      -2.872  -1.688  -4.662  0.00  0.00    -0.016 C 
ATOM     35  C   UNK A   0      -2.561  -1.872  -3.175  0.00  0.00    -0.078 C 
ATOM     36  C   UNK A   0      -1.889  -1.684  -6.961  0.00  0.00    +0.007 C 
ATOM     37  N   UNK A   0      -1.524  -0.897  -2.777  0.00  0.00    +0.384 N 
ATOM     38  H   UNK A   0      -1.849   0.049  -3.010  0.00  0.00    -0.081 HD
ENDBRANCH  30  37
ENDBRANCH   9  30
TORSDOF 10
