REMARK  Name = ZINC13586024
REMARK  9 active torsions:
REMARK  status: ('A' for Active; 'I' for Inactive)
REMARK    1  A    between atoms: C_1  and  C_2
REMARK    2  A    between atoms: C_4  and  S_17
REMARK    3  A    between atoms: C_5  and  C_16
REMARK    4  A    between atoms: N_6  and  S_7
REMARK    5  A    between atoms: S_7  and  C_10
REMARK    6  A    between atoms: S_17  and  N_20
REMARK    7  A    between atoms: N_20  and  C_21
REMARK    8  A    between atoms: C_26  and  S_27
REMARK    9  A    between atoms: S_27  and  C_28
REMARK                            x       y       z     vdW  Elec       q    Type
REMARK                         _______ _______ _______ _____ _____    ______ ____
ROOT
ATOM      1  S   UNL     1       0.332   1.509   0.001  0.00  0.00    +0.074 S 
ATOM      2  O   UNL     1       0.606   0.138   0.256  0.00  0.00    -0.150 OA
ATOM      3  O   UNL     1       1.355   2.492  -0.059  0.00  0.00    -0.150 OA
ENDROOT
BRANCH   1   7
ATOM      4  C   UNL     1      -1.136   2.799  -4.967  0.00  0.00    +0.065 C 
ATOM      5  C   UNL     1      -1.094   2.143  -3.611  0.00  0.00    +0.042 A 
ATOM      6  C   UNL     1      -0.204   2.406  -2.632  0.00  0.00    +0.053 A 
ATOM      7  C   UNL     1      -0.519   1.574  -1.541  0.00  0.00    +0.131 A 
ATOM      8  C   UNL     1      -1.595   0.839  -1.890  0.00  0.00    +0.066 A 
ATOM      9  N   UNL     1      -1.952   1.184  -3.160  0.00  0.00    -0.218 N 
ATOM     10  C   UNL     1      -2.284  -0.185  -1.026  0.00  0.00    +0.067 C 
BRANCH   9  11
ATOM     11  S   UNL     1      -3.220   0.545  -4.013  0.00  0.00    +0.084 S 
ATOM     12  O   UNL     1      -2.917   0.729  -5.389  0.00  0.00    -0.148 OA
ATOM     13  O   UNL     1      -3.481  -0.735  -3.455  0.00  0.00    -0.148 OA
BRANCH  11  14
ATOM     14  C   UNL     1      -4.633   1.541  -3.671  0.00  0.00    +0.111 A 
ATOM     15  C   UNL     1      -5.461   1.225  -2.610  0.00  0.00    +0.029 A 
ATOM     16  C   UNL     1      -6.566   2.009  -2.339  0.00  0.00    +0.002 A 
ATOM     17  C   UNL     1      -6.850   3.103  -3.135  0.00  0.00    +0.000 A 
ATOM     18  C   UNL     1      -6.024   3.416  -4.198  0.00  0.00    +0.002 A 
ATOM     19  C   UNL     1      -4.916   2.635  -4.466  0.00  0.00    +0.029 A 
ENDBRANCH  11  14
ENDBRANCH   9  11
ENDBRANCH   1   7
BRANCH   1  20
ATOM     20  N   UNL     1      -0.733   2.004   1.169  0.00  0.00    -0.215 N 
ATOM     21  H   UNL     1      -1.059   1.371   1.828  0.00  0.00    +0.174 HD
BRANCH  20  22
ATOM     22  C   UNL     1      -1.162   3.335   1.205  0.00  0.00    +0.062 A 
ATOM     23  C   UNL     1      -1.306   4.052   0.027  0.00  0.00    +0.025 A 
ATOM     24  C   UNL     1      -1.736   5.366   0.065  0.00  0.00    +0.002 A 
ATOM     25  C   UNL     1      -2.013   5.973   1.276  0.00  0.00    +0.001 A 
ATOM     26  C   UNL     1      -1.866   5.268   2.457  0.00  0.00    +0.017 A 
ATOM     27  C   UNL     1      -1.441   3.947   2.428  0.00  0.00    +0.035 A 
BRANCH  27  28
ATOM     28  S   UNL     1      -1.254   3.046   3.930  0.00  0.00    -0.088 S 
BRANCH  28  29
ATOM     29  C   UNL     1      -2.678   2.010   3.986  0.00  0.00    +0.013 A 
ATOM     30  C   UNL     1      -3.574   2.000   2.923  0.00  0.00    +0.015 A 
ATOM     31  C   UNL     1      -4.686   1.182   2.968  0.00  0.00    +0.001 A 
ATOM     32  C   UNL     1      -4.915   0.383   4.073  0.00  0.00    +0.000 A 
ATOM     33  C   UNL     1      -4.029   0.395   5.135  0.00  0.00    +0.001 A 
ATOM     34  C   UNL     1      -2.912   1.206   5.095  0.00  0.00    +0.015 A 
ENDBRANCH  28  29
ENDBRANCH  27  28
ENDBRANCH  20  22
ENDBRANCH   1  20
TORSDOF 7
