REMARK  Name = ZINC58849368
REMARK  8 active torsions:
REMARK  status: ('A' for Active; 'I' for Inactive)
REMARK    1  A    between atoms: C_1  and  O_2
REMARK    2  A    between atoms: O_2  and  C_3
REMARK    3  A    between atoms: C_6  and  O_36
REMARK    4  A    between atoms: C_7  and  N_9
REMARK    5  A    between atoms: N_9  and  S_10
REMARK    6  A    between atoms: S_10  and  C_13
REMARK    7  A    between atoms: C_26  and  C_29
REMARK    8  A    between atoms: O_36  and  C_37
REMARK                            x       y       z     vdW  Elec       q    Type
REMARK                         _______ _______ _______ _____ _____    ______ ____
ROOT
ATOM      1  C   UNL     1      -1.453  -4.703   2.464  0.00  0.00    +0.109 A 
ATOM      2  C   UNL     1      -0.776  -3.658   3.066  0.00  0.00    +0.030 A 
ATOM      3  C   UNL     1      -0.872  -3.474   4.430  0.00  0.00    +0.025 A 
ATOM      4  C   UNL     1      -1.649  -4.336   5.198  0.00  0.00    +0.031 A 
ATOM      5  C   UNL     1      -2.339  -5.376   4.595  0.00  0.00    -0.018 A 
ATOM      6  C   UNL     1      -2.232  -5.553   3.222  0.00  0.00    +0.034 A 
ATOM      7  C   UNL     1      -3.213  -6.296   5.378  0.00  0.00    +0.049 C 
ATOM      8  C   UNL     1      -2.567  -7.639   5.603  0.00  0.00    -0.023 C 
ATOM      9  C   UNL     1      -2.881  -8.101   6.787  0.00  0.00    -0.030 C 
ATOM     10  C   UNL     1      -3.777  -7.130   7.525  0.00  0.00    +0.033 C 
ATOM     11  C   UNL     1      -3.571  -5.793   6.775  0.00  0.00    +0.029 C 
ATOM     12  C   UNL     1      -2.450  -5.037   7.457  0.00  0.00    +0.105 C 
ATOM     13  N   UNL     1      -1.721  -4.151   6.573  0.00  0.00    -0.336 N 
ATOM     14  H   UNL     1      -1.240  -3.403   6.963  0.00  0.00    +0.147 HD
ENDROOT
BRANCH  12  15
ATOM     15  C   UNL     1      -1.501  -6.035   8.069  0.00  0.00    -0.027 A 
ATOM     16  C   UNL     1      -0.558  -6.665   7.279  0.00  0.00    +0.008 A 
ATOM     17  C   UNL     1       0.313  -7.581   7.839  0.00  0.00    +0.038 A 
ATOM     18  C   UNL     1       0.240  -7.867   9.191  0.00  0.00    +0.123 A 
ATOM     19  C   UNL     1      -0.705  -7.235   9.982  0.00  0.00    +0.038 A 
ATOM     20  C   UNL     1      -1.571  -6.316   9.421  0.00  0.00    +0.008 A 
ATOM     21  F   UNL     1       1.091  -8.762   9.740  0.00  0.00    -0.205 F 
ENDBRANCH  12  15
BRANCH   1  22
ATOM     22  S   UNL     1      -1.326  -4.945   0.724  0.00  0.00    +0.072 S 
ATOM     23  O   UNL     1      -1.621  -6.314   0.482  0.00  0.00    -0.150 OA
ATOM     24  O   UNL     1      -0.102  -4.347   0.319  0.00  0.00    -0.150 OA
BRANCH  22  25
ATOM     25  N   UNL     1      -2.539  -4.067   0.017  0.00  0.00    -0.213 N 
ATOM     26  H   UNL     1      -3.215  -4.515  -0.515  0.00  0.00    +0.174 HD
BRANCH  25  31
ATOM     27  C   UNL     1      -1.466  -0.570   0.428  0.00  0.00    +0.122 A 
ATOM     28  C   UNL     1      -2.691   0.071   0.526  0.00  0.00    +0.049 A 
ATOM     29  C   UNL     1      -3.864  -0.658   0.456  0.00  0.00    +0.051 A 
ATOM     30  C   UNL     1      -3.818  -2.031   0.287  0.00  0.00    +0.143 A 
ATOM     31  C   UNL     1      -2.588  -2.679   0.188  0.00  0.00    +0.093 A 
ATOM     32  C   UNL     1      -1.413  -1.944   0.253  0.00  0.00    +0.073 A 
BRANCH  27  34
ATOM     33  C   UNL     1      -0.442   1.562   0.680  0.00  0.00    +0.277 C 
ATOM     34  O   UNL     1      -0.314   0.150   0.498  0.00  0.00    -0.495 OA
ENDBRANCH  27  34
BRANCH  30  35
ATOM     35  O   UNL     1      -4.972  -2.749   0.219  0.00  0.00    -0.493 OA
ATOM     36  C   UNL     1      -6.196  -2.019   0.329  0.00  0.00    +0.277 C 
ENDBRANCH  30  35
ENDBRANCH  25  31
ENDBRANCH  22  25
ENDBRANCH   1  22
TORSDOF 6
