REMARK  Name = ZINC24902296
REMARK  9 active torsions:
REMARK  status: ('A' for Active; 'I' for Inactive)
REMARK    1  A    between atoms: C_1  and  C_2
REMARK    2  A    between atoms: C_3  and  C_27
REMARK    3  A    between atoms: N_9  and  N_12
REMARK    4  A    between atoms: C_13  and  C_15
REMARK    5  A    between atoms: C_15  and  S_16
REMARK    6  A    between atoms: S_16  and  C_17
REMARK    7  A    between atoms: C_19  and  C_26
REMARK    8  A    between atoms: C_20  and  C_22
REMARK    9  A    between atoms: C_22  and  C_23
REMARK                            x       y       z     vdW  Elec       q    Type
REMARK                         _______ _______ _______ _____ _____    ______ ____
ROOT
ATOM      1  N   UNL     1       2.357   1.227  -0.014  0.00  0.00    -0.218 N 
ATOM      2  C   UNL     1       3.081   1.166  -1.149  0.00  0.00    +0.241 C 
ATOM      3  O   UNL     1       2.676   1.706  -2.156  0.00  0.00    -0.273 OA
ATOM      4  H   UNL     1       2.724   0.738   0.900  0.00  0.00    +0.176 HD
ENDROOT
BRANCH   1  13
ATOM      5  C   UNL     1      -2.863  -0.078   0.016  0.00  0.00    +0.045 C 
ATOM      6  C   UNL     1      -2.614   1.409   0.022  0.00  0.00    -0.026 A 
ATOM      7  C   UNL     1      -3.644   2.270   0.031  0.00  0.00    -0.008 A 
ATOM      8  S   UNL     1      -2.848   3.865   0.049  0.00  0.00    -0.073 S 
ATOM      9  C   UNL     1      -1.157   3.329   0.030  0.00  0.00    +0.116 A 
ATOM     10  C   UNL     1      -1.259   1.926   0.018  0.00  0.00    +0.077 A 
ATOM     11  C   UNL     1      -0.015   1.215   0.009  0.00  0.00    +0.280 A 
ATOM     12  O   UNL     1       0.002  -0.004   0.002  0.00  0.00    -0.265 OA
ATOM     13  N   UNL     1       1.136   1.914   0.002  0.00  0.00    -0.212 N 
ATOM     14  C   UNL     1       1.137   3.272   0.008  0.00  0.00    +0.223 A 
ATOM     15  N   UNL     1       0.019   3.949   0.022  0.00  0.00    -0.228 NA
ATOM     16  C   UNL     1      -5.120   1.962   0.035  0.00  0.00    +0.052 C 
ENDBRANCH   1  13
BRANCH   2  17
ATOM     17  C   UNL     1       4.394   0.427  -1.165  0.00  0.00    +0.173 C 
BRANCH  17  18
ATOM     18  S   UNL     1       5.121   0.525  -2.820  0.00  0.00    -0.089 S 
BRANCH  18  19
ATOM     19  C   UNL     1       6.601  -0.394  -2.559  0.00  0.00    +0.135 A 
ATOM     20  N   UNL     1       7.035  -0.973  -1.454  0.00  0.00    -0.238 NA
ATOM     21  C   UNL     1       8.177  -1.633  -1.433  0.00  0.00    +0.050 A 
ATOM     22  C   UNL     1       8.908  -1.697  -2.571  0.00  0.00    +0.022 A 
ATOM     23  S   UNL     1       7.869  -0.765  -3.687  0.00  0.00    -0.065 S 
ATOM     24  C   UNL     1       8.660  -2.296  -0.169  0.00  0.00    +0.066 C 
BRANCH  22  25
ATOM     25  C   UNL     1      10.233  -2.368  -2.827  0.00  0.00    +0.139 C 
BRANCH  25  26
ATOM     26  C   UNL     1       9.999  -3.786  -3.279  0.00  0.00    +0.215 C 
ATOM     27  O   UNL     1       8.867  -4.210  -3.384  0.00  0.00    -0.276 OA
ATOM     28  N   UNL     1      11.047  -4.583  -3.567  0.00  0.00    -0.329 N 
ATOM     29  H   UNL     1      10.876  -5.619  -3.897  0.00  0.00    +0.145 HD
ATOM     30  H   UNL     1      12.073  -4.199  -3.472  0.00  0.00    +0.145 HD
ENDBRANCH  25  26
ENDBRANCH  22  25
ENDBRANCH  18  19
ENDBRANCH  17  18
ENDBRANCH   2  17
TORSDOF 6
