REMARK  Name = ZINC04067812
REMARK  12 active torsions:
REMARK  status: ('A' for Active; 'I' for Inactive)
REMARK    1  A    between atoms: C_1  and  C_2
REMARK    2  A    between atoms: C_2  and  O_3
REMARK    3  A    between atoms: O_3  and  C_4
REMARK    4  A    between atoms: C_6  and  C_12
REMARK    5  A    between atoms: C_9  and  O_10
REMARK    6  A    between atoms: C_17  and  C_22
REMARK    7  A    between atoms: C_25  and  O_28
REMARK    8  A    between atoms: O_28  and  C_29
REMARK    9  A    between atoms: C_31  and  C_37
REMARK   10  A    between atoms: C_32  and  C_33
REMARK   11  A    between atoms: C_33  and  O_35
REMARK   12  A    between atoms: O_35  and  C_36
REMARK                            x       y       z     vdW  Elec       q    Type
REMARK                         _______ _______ _______ _____ _____    ______ ____
ROOT
ATOM      1  C   UNL     1      -0.228  -4.968   0.479  0.00  0.00    +0.092 C 
ATOM      2  C   UNL     1      -1.280  -5.832  -0.169  0.00  0.00    +0.024 C 
ATOM      3  C   UNL     1      -1.014  -7.115  -0.496  0.00  0.00    +0.016 C 
ATOM      4  C   UNL     1      -2.058  -7.981  -1.156  0.00  0.00    +0.059 C 
ATOM      5  C   UNL     1      -3.451  -7.550  -0.694  0.00  0.00    +0.032 C 
ATOM      6  C   UNL     1      -3.646  -6.072  -1.051  0.00  0.00    +0.088 C 
ATOM      7  C   UNL     1      -2.543  -5.267  -0.419  0.00  0.00    +0.162 C 
ATOM      8  O   UNL     1      -2.747  -4.107  -0.121  0.00  0.00    -0.292 OA
ATOM      9  N   UNL     1       0.215  -7.658  -0.232  0.00  0.00    -0.321 N 
ATOM     10  C   UNL     1       1.047  -7.085   0.688  0.00  0.00    +0.016 C 
ATOM     11  C   UNL     1       0.872  -5.806   1.061  0.00  0.00    +0.065 C 
ATOM     12  C   UNL     1       2.169  -7.893   1.289  0.00  0.00    +0.061 C 
ATOM     13  H   UNL     1       0.497  -8.458  -0.703  0.00  0.00    +0.152 HD
ENDROOT
BRANCH   1  16
ATOM     14  C   UNL     1       0.777  -1.811  -1.336  0.00  0.00    +0.163 A 
ATOM     15  C   UNL     1       0.243  -2.669  -0.388  0.00  0.00    +0.054 A 
ATOM     16  C   UNL     1       0.352  -4.037  -0.554  0.00  0.00    -0.030 A 
ATOM     17  C   UNL     1       0.992  -4.553  -1.665  0.00  0.00    +0.023 A 
ATOM     18  C   UNL     1       1.527  -3.702  -2.616  0.00  0.00    +0.063 A 
ATOM     19  C   UNL     1       1.416  -2.329  -2.458  0.00  0.00    +0.173 A 
ATOM     20 BR   UNL     1       2.403  -4.412  -4.134  0.00  0.00    -0.046 Br
BRANCH  19  21
ATOM     21  O   UNL     1       1.936  -1.491  -3.394  0.00  0.00    -0.503 OA
ATOM     22  H   UNL     1       2.856  -1.241  -3.231  0.00  0.00    +0.292 HD
ENDBRANCH  19  21
BRANCH  14  23
ATOM     23  O   UNL     1       0.671  -0.465  -1.174  0.00  0.00    -0.489 OA
BRANCH  23  25
ATOM     24  C   UNL     1      -0.019   1.526   0.010  0.00  0.00    +0.048 C 
ATOM     25  C   UNL     1       0.002  -0.004   0.002  0.00  0.00    +0.226 C 
ENDBRANCH  23  25
ENDBRANCH  14  23
ENDBRANCH   1  16
BRANCH   5  26
ATOM     26  C   UNL     1      -4.496  -8.384  -1.389  0.00  0.00    -0.043 A 
ATOM     27  C   UNL     1      -4.581  -8.376  -2.769  0.00  0.00    +0.007 A 
ATOM     28  C   UNL     1      -5.538  -9.140  -3.408  0.00  0.00    +0.046 A 
ATOM     29  C   UNL     1      -6.414  -9.916  -2.664  0.00  0.00    +0.120 A 
ATOM     30  C   UNL     1      -6.327  -9.923  -1.279  0.00  0.00    +0.046 A 
ATOM     31  C   UNL     1      -5.365  -9.162  -0.645  0.00  0.00    +0.007 A 
BRANCH  29  32
ATOM     32  O   UNL     1      -7.357 -10.668  -3.290  0.00  0.00    -0.495 OA
ATOM     33  C   UNL     1      -8.225 -11.443  -2.461  0.00  0.00    +0.277 C 
ENDBRANCH  29  32
ENDBRANCH   5  26
BRANCH  11  34
ATOM     34  C   UNL     1       1.743  -5.239   2.020  0.00  0.00    +0.337 C 
ATOM     35  O   UNL     1       2.639  -5.909   2.499  0.00  0.00    -0.245 OA
BRANCH  34  36
ATOM     36  O   UNL     1       1.580  -3.956   2.404  0.00  0.00    -0.465 OA
ATOM     37  C   UNL     1       2.496  -3.449   3.377  0.00  0.00    +0.280 C 
ENDBRANCH  34  36
ENDBRANCH  11  34
TORSDOF 8
