REMARK  Name = ZINC06077756
REMARK  12 active torsions:
REMARK  status: ('A' for Active; 'I' for Inactive)
REMARK    1  A    between atoms: C_1  and  C_2
REMARK    2  A    between atoms: C_2  and  C_3
REMARK    3  A    between atoms: C_3  and  C_4
REMARK    4  A    between atoms: C_3  and  C_5
REMARK    5  A    between atoms: C_3  and  N_6
REMARK    6  A    between atoms: C_7  and  C_11
REMARK    7  A    between atoms: C_11  and  C_13
REMARK    8  A    between atoms: C_11  and  N_72
REMARK    9  A    between atoms: C_17  and  O_25
REMARK   10  A    between atoms: O_25  and  C_26
REMARK   11  A    between atoms: C_26  and  C_27
REMARK   12  A    between atoms: N_30  and  C_33
REMARK                            x       y       z     vdW  Elec       q    Type
REMARK                         _______ _______ _______ _____ _____    ______ ____
ROOT
ATOM      1  C   UNL     1       1.478   3.346  -0.051  0.00  0.00    +0.039 C 
ENDROOT
BRANCH   1   2
ATOM      2  C   UNL     1       0.782   3.462   1.280  0.00  0.00    +0.011 A 
ATOM      3  C   UNL     1      -0.353   4.197   1.387  0.00  0.00    +0.017 A 
ATOM      4  C   UNL     1      -1.008   4.287   2.694  0.00  0.00    +0.002 A 
ATOM      5  C   UNL     1      -2.183   5.026   2.863  0.00  0.00    +0.055 A 
ATOM      6  C   UNL     1      -2.772   5.094   4.109  0.00  0.00    +0.121 A 
ATOM      7  C   UNL     1      -2.202   4.430   5.193  0.00  0.00    +0.047 A 
ATOM      8  C   UNL     1      -1.045   3.700   5.040  0.00  0.00    +0.030 A 
ATOM      9  C   UNL     1      -0.435   3.618   3.792  0.00  0.00    +0.049 A 
ATOM     10  N   UNL     1       0.724   2.890   3.617  0.00  0.00    -0.322 N 
ATOM     11  H   UNL     1       1.130   2.416   4.398  0.00  0.00    +0.169 HD
ATOM     12  C   UNL     1       1.316   2.811   2.413  0.00  0.00    +0.251 A 
ATOM     13  O   UNL     1       2.339   2.159   2.295  0.00  0.00    -0.268 OA
BRANCH   6  14
ATOM     14  O   UNL     1      -3.915   5.811   4.280  0.00  0.00    -0.492 OA
BRANCH  14  15
ATOM     15  C   UNL     1      -4.473   5.840   5.595  0.00  0.00    +0.225 C 
ATOM     16  C   UNL     1      -5.745   6.690   5.591  0.00  0.00    +0.048 C 
ENDBRANCH  14  15
ENDBRANCH   6  14
ENDBRANCH   1   2
BRANCH   1  22
ATOM     17  C   UNL     1       2.293   1.776  -1.704  0.00  0.00    -0.058 C 
ATOM     18  C   UNL     1       2.521   0.289  -1.988  0.00  0.00    +0.086 C 
ATOM     19  N   UNL     1       1.232  -0.416  -1.956  0.00  0.00    -0.333 N 
ATOM     20  C   UNL     1       0.585  -0.264  -0.645  0.00  0.00    +0.086 C 
ATOM     21  C   UNL     1       0.357   1.222  -0.361  0.00  0.00    -0.058 C 
ATOM     22  N   UNL     1       1.663   1.916  -0.375  0.00  0.00    +0.391 N 
ATOM     23  H   UNL     1       2.274   1.490   0.331  0.00  0.00    -0.080 HD
BRANCH  19  24
ATOM     24  C   UNL     1       1.392  -1.767  -2.282  0.00  0.00    +0.030 A 
ATOM     25  C   UNL     1       2.652  -2.264  -2.586  0.00  0.00    +0.026 A 
ATOM     26  C   UNL     1       2.808  -3.599  -2.904  0.00  0.00    +0.040 A 
ATOM     27  C   UNL     1       1.707  -4.439  -2.929  0.00  0.00    +0.124 A 
ATOM     28  C   UNL     1       0.449  -3.944  -2.631  0.00  0.00    +0.040 A 
ATOM     29  C   UNL     1       0.289  -2.611  -2.308  0.00  0.00    +0.026 A 
ATOM     30  F   UNL     1       1.861  -5.744  -3.244  0.00  0.00    -0.205 F 
ENDBRANCH  19  24
ENDBRANCH   1  22
BRANCH   1  32
ATOM     31  N   UNL     1       3.210   5.141  -0.588  0.00  0.00    -0.225 N 
ATOM     32  C   UNL     1       2.830   4.007   0.030  0.00  0.00    +0.143 A 
ATOM     33  N   UNL     1       3.868   3.585   0.712  0.00  0.00    -0.115 NA
ATOM     34  N   UNL     1       4.832   4.419   0.527  0.00  0.00    -0.023 NA
ATOM     35  N   UNL     1       4.436   5.362  -0.256  0.00  0.00    -0.043 NA
BRANCH  31  36
ATOM     36  C   UNL     1       2.383   5.969  -1.469  0.00  0.00    +0.061 C 
ATOM     37  C   UNL     1       1.978   5.157  -2.701  0.00  0.00    +0.036 C 
ATOM     38  C   UNL     1       1.128   6.417  -0.718  0.00  0.00    +0.036 C 
BRANCH  36  40
ATOM     39  C   UNL     1       2.318   8.064  -2.829  0.00  0.00    +0.006 C 
ATOM     40  C   UNL     1       3.181   7.199  -1.908  0.00  0.00    +0.026 C 
ENDBRANCH  36  40
ENDBRANCH  31  36
ENDBRANCH   1  32
TORSDOF 8
