REMARK  Name = ZINC06280642
REMARK  11 active torsions:
REMARK  status: ('A' for Active; 'I' for Inactive)
REMARK    1  A    between atoms: C_1  and  C_2
REMARK    2  A    between atoms: C_7  and  N_8
REMARK    3  A    between atoms: C_13  and  C_15
REMARK    4  A    between atoms: C_13  and  C_29
REMARK    5  A    between atoms: C_13  and  N_71
REMARK    6  A    between atoms: C_19  and  C_28
REMARK    7  A    between atoms: C_20  and  C_27
REMARK    8  A    between atoms: N_33  and  C_34
REMARK    9  A    between atoms: C_34  and  C_35
REMARK   10  A    between atoms: C_34  and  C_36
REMARK   11  A    between atoms: C_34  and  C_37
REMARK                            x       y       z     vdW  Elec       q    Type
REMARK                         _______ _______ _______ _____ _____    ______ ____
ROOT
ATOM      1  C   UNL     1      -5.032   3.683   0.130  0.00  0.00    +0.039 C 
ENDROOT
BRANCH   1   2
ATOM      2  C   UNL     1      -3.762   2.918  -0.141  0.00  0.00    +0.011 A 
ATOM      3  C   UNL     1      -2.597   3.587  -0.326  0.00  0.00    +0.017 A 
ATOM      4  C   UNL     1      -1.381   2.815  -0.591  0.00  0.00    -0.001 A 
ATOM      5  C   UNL     1      -0.153   3.450  -0.805  0.00  0.00    +0.013 A 
ATOM      6  C   UNL     1       0.962   2.701  -1.050  0.00  0.00    -0.047 A 
ATOM      7  C   UNL     1       0.888   1.316  -1.090  0.00  0.00    -0.046 A 
ATOM      8  C   UNL     1      -0.310   0.669  -0.882  0.00  0.00    +0.030 A 
ATOM      9  C   UNL     1      -1.461   1.411  -0.635  0.00  0.00    +0.049 A 
ATOM     10  N   UNL     1      -2.675   0.790  -0.429  0.00  0.00    -0.322 N 
ATOM     11  H   UNL     1      -2.728  -0.178  -0.457  0.00  0.00    +0.169 HD
ATOM     12  C   UNL     1      -3.787   1.508  -0.191  0.00  0.00    +0.251 A 
ATOM     13  O   UNL     1      -4.843   0.926  -0.013  0.00  0.00    -0.268 OA
ATOM     14  C   UNL     1       2.132   0.510  -1.363  0.00  0.00    +0.044 C 
ATOM     15  C   UNL     1       2.285   3.386  -1.281  0.00  0.00    +0.044 C 
ENDBRANCH   1   2
BRANCH   1  21
ATOM     16  N   UNL     1      -7.900   3.729  -2.971  0.00  0.00    -0.333 N 
ATOM     17  C   UNL     1      -8.376   3.523  -1.596  0.00  0.00    +0.086 C 
ATOM     18  C   UNL     1      -7.313   4.017  -0.612  0.00  0.00    -0.058 C 
ATOM     19  C   UNL     1      -5.582   3.495  -2.221  0.00  0.00    -0.058 C 
ATOM     20  C   UNL     1      -6.645   3.002  -3.205  0.00  0.00    +0.086 C 
ATOM     21  N   UNL     1      -6.063   3.263  -0.843  0.00  0.00    +0.391 N 
ATOM     22  H   UNL     1      -6.250   2.261  -0.720  0.00  0.00    -0.080 HD
BRANCH  16  29
ATOM     23  C   UNL     1      -9.002   5.748  -4.645  0.00  0.00    +0.045 C 
ATOM     24  C   UNL     1      -9.440   4.309  -4.737  0.00  0.00    -0.029 A 
ATOM     25  C   UNL     1     -10.404   3.937  -5.654  0.00  0.00    +0.006 A 
ATOM     26  C   UNL     1     -10.806   2.617  -5.739  0.00  0.00    +0.020 A 
ATOM     27  C   UNL     1     -10.245   1.664  -4.907  0.00  0.00    +0.043 A 
ATOM     28  C   UNL     1      -9.278   2.029  -3.990  0.00  0.00    +0.043 A 
ATOM     29  C   UNL     1      -8.875   3.355  -3.899  0.00  0.00    +0.034 A 
ATOM     30 CL   UNL     1     -10.754   0.008  -5.018  0.00  0.00    -0.083 Cl
ENDBRANCH  16  29
ENDBRANCH   1  21
BRANCH   1  31
ATOM     31  C   UNL     1      -5.518   3.372   1.522  0.00  0.00    +0.143 A 
ATOM     32  N   UNL     1      -6.012   2.233   1.942  0.00  0.00    -0.115 NA
ATOM     33  N   UNL     1      -6.309   2.364   3.189  0.00  0.00    -0.023 NA
ATOM     34  N   UNL     1      -6.025   3.559   3.573  0.00  0.00    -0.043 NA
ATOM     35  N   UNL     1      -5.535   4.212   2.573  0.00  0.00    -0.225 N 
BRANCH  35  36
ATOM     36  C   UNL     1      -5.082   5.605   2.582  0.00  0.00    +0.059 C 
ATOM     37  C   UNL     1      -5.942   6.426   1.618  0.00  0.00    +0.036 C 
ATOM     38  C   UNL     1      -5.214   6.176   3.995  0.00  0.00    +0.036 C 
ATOM     39  C   UNL     1      -3.619   5.668   2.140  0.00  0.00    +0.036 C 
ENDBRANCH  35  36
ENDBRANCH   1  31
TORSDOF 5
