REMARK  Name = ZINC39693414
REMARK  10 active torsions:
REMARK  status: ('A' for Active; 'I' for Inactive)
REMARK    1  A    between atoms: C_1  and  C_2
REMARK    2  A    between atoms: C_2  and  C_3
REMARK    3  A    between atoms: C_2  and  C_4
REMARK    4  A    between atoms: C_2  and  O_5
REMARK    5  A    between atoms: O_5  and  C_6
REMARK    6  A    between atoms: N_8  and  C_9
REMARK    7  A    between atoms: C_9  and  C_10
REMARK    8  A    between atoms: C_10  and  N_11
REMARK    9  A    between atoms: C_12  and  C_14
REMARK   10  A    between atoms: C_25  and  C_27
REMARK                            x       y       z     vdW  Elec       q    Type
REMARK                         _______ _______ _______ _____ _____    ______ ____
ROOT
ATOM      1  C   UNL     1       7.589   0.098  -5.723  0.00  0.00    +0.100 C 
ATOM      2  C   UNL     1       7.970   1.594  -5.774  0.00  0.00    +0.121 C 
ATOM      3  N   UNL     1       9.094   1.661  -6.738  0.00  0.00    -0.296 N 
ATOM      4  C   UNL     1       8.720   0.705  -7.808  0.00  0.00    +0.115 C 
ATOM      5  C   UNL     1       8.081  -0.482  -7.060  0.00  0.00    -0.004 C 
ATOM      6  C   UNL     1       6.907  -1.039  -7.859  0.00  0.00    -0.010 C 
ATOM      7  C   UNL     1       7.429  -1.661  -9.157  0.00  0.00    -0.082 C 
ATOM      8  N   UNL     1       8.382  -2.731  -8.841  0.00  0.00    +0.379 N 
ATOM      9  C   UNL     1       9.553  -2.172  -8.153  0.00  0.00    -0.082 C 
ATOM     10  C   UNL     1       9.121  -1.571  -6.813  0.00  0.00    -0.010 C 
ATOM     11  C   UNL     1      10.206   2.419  -6.660  0.00  0.00    +0.247 C 
ATOM     12  O   UNL     1      10.434   3.061  -5.653  0.00  0.00    -0.270 OA
ATOM     13  H   UNL     1       7.936  -3.411  -8.243  0.00  0.00    -0.086 HD
ATOM     14  H   UNL     1       8.678  -3.180  -9.694  0.00  0.00    -0.086 HD
ENDROOT
BRANCH  11  15
ATOM     15  C   UNL     1      11.148   2.469  -7.798  0.00  0.00    +0.040 A 
ATOM     16  C   UNL     1      10.721   2.113  -9.078  0.00  0.00    +0.033 A 
ATOM     17  C   UNL     1      11.605   2.162 -10.137  0.00  0.00    +0.043 A 
ATOM     18  C   UNL     1      12.914   2.564  -9.931  0.00  0.00    +0.040 A 
ATOM     19  C   UNL     1      13.344   2.918  -8.663  0.00  0.00    +0.043 A 
ATOM     20  C   UNL     1      12.467   2.879  -7.598  0.00  0.00    +0.033 A 
ATOM     21 CL   UNL     1      14.988   3.419  -8.415  0.00  0.00    -0.083 Cl
ATOM     22 CL   UNL     1      11.076   1.718 -11.729  0.00  0.00    -0.083 Cl
ENDBRANCH  11  15
BRANCH   1  24
ATOM     23  N   UNL     1       5.579  -1.126  -4.960  0.00  0.00    -0.314 N 
ATOM     24  C   UNL     1       6.095  -0.059  -5.602  0.00  0.00    +0.218 C 
ATOM     25  O   UNL     1       5.357   0.775  -6.082  0.00  0.00    -0.275 OA
ATOM     26  H   UNL     1       6.169  -1.793  -4.576  0.00  0.00    +0.149 HD
BRANCH  23  27
ATOM     27  C   UNL     1       4.127  -1.278  -4.843  0.00  0.00    +0.123 C 
BRANCH  27  28
ATOM     28  C   UNL     1       3.809  -2.563  -4.075  0.00  0.00    +0.126 C 
BRANCH  28  31
ATOM     29  C   UNL     1       1.841  -3.783  -3.316  0.00  0.00    +0.401 C 
ATOM     30  O   UNL     1       2.580  -4.618  -2.835  0.00  0.00    -0.226 OA
ATOM     31  N   UNL     1       2.357  -2.716  -3.958  0.00  0.00    -0.280 N 
ATOM     32  H   UNL     1       1.766  -2.049  -4.341  0.00  0.00    +0.152 HD
BRANCH  29  33
ATOM     33  O   UNL     1       0.506  -3.923  -3.208  0.00  0.00    -0.445 OA
BRANCH  33  35
ATOM     34  C   UNL     1       0.559  -5.066  -1.079  0.00  0.00    +0.055 C 
ATOM     35  C   UNL     1       0.029  -5.078  -2.514  0.00  0.00    +0.107 C 
ATOM     36  C   UNL     1       0.518  -6.339  -3.228  0.00  0.00    +0.055 C 
ATOM     37  C   UNL     1      -1.501  -5.064  -2.493  0.00  0.00    +0.055 C 
ENDBRANCH  33  35
ENDBRANCH  29  33
ENDBRANCH  28  31
ENDBRANCH  27  28
ENDBRANCH  23  27
ENDBRANCH   1  24
TORSDOF 7
