REMARK  Name = ZINC26803001
REMARK  8 active torsions:
REMARK  status: ('A' for Active; 'I' for Inactive)
REMARK    1  A    between atoms: C_1  and  C_2
REMARK    2  A    between atoms: C_2  and  C_22
REMARK    3  A    between atoms: C_9  and  N_15
REMARK    4  A    between atoms: C_11  and  S_13
REMARK    5  A    between atoms: S_13  and  C_14
REMARK    6  A    between atoms: N_15  and  N_16
REMARK    7  A    between atoms: N_16  and  C_17
REMARK    8  A    between atoms: C_17  and  N_19
REMARK                            x       y       z     vdW  Elec       q    Type
REMARK                         _______ _______ _______ _____ _____    ______ ____
ROOT
ATOM      1  C   UNL     1      -0.376  -5.853  -3.103  0.00  0.00    +0.041 C 
ATOM      2  C   UNL     1      -0.536  -6.280  -1.642  0.00  0.00    +0.068 C 
ATOM      3  C   UNL     1      -0.995  -5.079  -0.810  0.00  0.00    +0.071 C 
ATOM      4  C   UNL     1       0.166  -4.090  -0.725  0.00  0.00    -0.020 A 
ATOM      5  C   UNL     1       1.418  -4.506  -1.012  0.00  0.00    +0.021 A 
ATOM      6  S   UNL     1       2.440  -3.077  -0.796  0.00  0.00    -0.071 S 
ATOM      7  C   UNL     1       1.182  -1.919  -0.320  0.00  0.00    +0.115 A 
ATOM      8  C   UNL     1       0.001  -2.688  -0.345  0.00  0.00    +0.052 A 
ATOM      9  C   UNL     1      -1.191  -1.993   0.004  0.00  0.00    +0.148 A 
ATOM     10  N   UNL     1      -1.122  -0.712   0.324  0.00  0.00    -0.205 NA
ATOM     11  C   UNL     1       0.026  -0.045   0.323  0.00  0.00    +0.191 A 
ATOM     12  N   UNL     1       1.168  -0.642   0.006  0.00  0.00    -0.215 NA
ATOM     13  C   UNL     1       1.819  -5.890  -1.421  0.00  0.00    +0.203 C 
ATOM     14  O   UNL     1       0.716  -6.769  -1.152  0.00  0.00    -0.368 OA
ATOM     15  C   UNL     1      -1.585  -7.389  -1.550  0.00  0.00    +0.041 C 
ENDROOT
BRANCH  11  16
ATOM     16  S   UNL     1       0.035   1.663   0.756  0.00  0.00    -0.089 S 
ATOM     17  C   UNL     1       1.802   2.020   0.592  0.00  0.00    +0.093 C 
ENDBRANCH  11  16
BRANCH   9  18
ATOM     18  N   UNL     1      -2.407  -2.651   0.012  0.00  0.00    -0.249 N 
ATOM     19  H   UNL     1      -2.440  -3.747  -0.076  0.00  0.00    +0.172 HD
BRANCH  18  20
ATOM     20  N   UNL     1      -3.597  -1.921   0.133  0.00  0.00    -0.247 N 
ATOM     21  H   UNL     1      -3.564  -0.826   0.222  0.00  0.00    +0.172 HD
BRANCH  20  22
ATOM     22  C   UNL     1      -4.783  -2.563   0.142  0.00  0.00    +0.144 C 
ATOM     23  S   UNL     1      -6.237  -1.671   0.290  0.00  0.00    -0.018 S 
BRANCH  22  24
ATOM     24  N   UNL     1      -4.823  -3.905   0.034  0.00  0.00    -0.340 N 
ATOM     25  H   UNL     1      -5.791  -4.429   0.041  0.00  0.00    +0.144 HD
ATOM     26  H   UNL     1      -3.889  -4.478  -0.061  0.00  0.00    +0.144 HD
ENDBRANCH  22  24
ENDBRANCH  20  22
ENDBRANCH  18  20
ENDBRANCH   9  18
TORSDOF 5
