REMARK  Name = ZINC35724966
REMARK  11 active torsions:
REMARK  status: ('A' for Active; 'I' for Inactive)
REMARK    1  A    between atoms: C_1  and  C_2
REMARK    2  A    between atoms: C_2  and  C_3
REMARK    3  A    between atoms: C_3  and  C_5
REMARK    4  A    between atoms: C_3  and  C_6
REMARK    5  A    between atoms: C_6  and  C_8
REMARK    6  A    between atoms: C_6  and  N_23
REMARK    7  A    between atoms: C_14  and  C_16
REMARK    8  A    between atoms: C_19  and  C_22
REMARK    9  A    between atoms: N_26  and  C_27
REMARK   10  A    between atoms: C_31  and  C_34
REMARK   11  A    between atoms: C_32  and  C_33
REMARK                            x       y       z     vdW  Elec       q    Type
REMARK                         _______ _______ _______ _____ _____    ______ ____
ROOT
ATOM      1  C   UNL     1      -0.038  -0.063  -2.592  0.00  0.00    +0.163 C 
ENDROOT
BRANCH   1   2
ATOM      2  C   UNL     1       0.389  -0.678  -3.900  0.00  0.00    +0.239 C 
ATOM      3  O   UNL     1       0.566   0.025  -4.872  0.00  0.00    -0.273 OA
ATOM      4  N   UNL     1       0.575  -2.010  -3.988  0.00  0.00    -0.262 N 
ATOM      5  C   UNL     1       1.068  -2.566  -5.162  0.00  0.00    +0.188 A 
ATOM      6  N   UNL     1       1.416  -1.964  -6.285  0.00  0.00    -0.125 NA
ATOM      7  N   UNL     1       1.853  -2.608  -7.280  0.00  0.00    -0.140 NA
ATOM      8  C   UNL     1       1.966  -3.927  -7.191  0.00  0.00    +0.134 A 
ATOM      9  S   UNL     1       1.385  -4.183  -5.520  0.00  0.00    -0.030 S 
ATOM     10  H   UNL     1       0.364  -2.581  -3.233  0.00  0.00    +0.157 HD
BRANCH   8  11
ATOM     11  C   UNL     1       2.442  -4.908  -8.190  0.00  0.00    +0.009 A 
ATOM     12  C   UNL     1       2.470  -6.268  -7.878  0.00  0.00    +0.011 A 
ATOM     13  C   UNL     1       2.916  -7.178  -8.814  0.00  0.00    +0.004 A 
ATOM     14  C   UNL     1       3.334  -6.745 -10.060  0.00  0.00    -0.050 A 
ATOM     15  C   UNL     1       3.309  -5.398 -10.375  0.00  0.00    +0.004 A 
ATOM     16  C   UNL     1       2.860  -4.478  -9.450  0.00  0.00    +0.011 A 
ATOM     17  C   UNL     1       3.819  -7.745 -11.078  0.00  0.00    +0.044 C 
ENDBRANCH   8  11
ENDBRANCH   1   2
BRANCH   1  18
ATOM     18  N   UNL     1      -0.193   1.384  -2.761  0.00  0.00    -0.288 N 
ATOM     19  C   UNL     1      -1.166   2.040  -2.098  0.00  0.00    +0.304 C 
ATOM     20  O   UNL     1      -1.858   1.448  -1.292  0.00  0.00    -0.252 OA
ATOM     21  N   UNL     1      -1.372   3.352  -2.327  0.00  0.00    -0.269 N 
ATOM     22  H   UNL     1       0.405   1.871  -3.350  0.00  0.00    +0.151 HD
ATOM     23  H   UNL     1      -0.868   3.808  -3.019  0.00  0.00    +0.156 HD
BRANCH  21  24
ATOM     24  C   UNL     1      -2.313   4.056  -1.568  0.00  0.00    +0.038 A 
ATOM     25  C   UNL     1      -3.398   3.390  -1.013  0.00  0.00    +0.023 A 
ATOM     26  C   UNL     1      -4.325   4.087  -0.264  0.00  0.00    +0.002 A 
ATOM     27  C   UNL     1      -4.174   5.447  -0.066  0.00  0.00    +0.004 A 
ATOM     28  C   UNL     1      -3.096   6.114  -0.618  0.00  0.00    -0.046 A 
ATOM     29  C   UNL     1      -2.162   5.421  -1.363  0.00  0.00    -0.026 A 
ATOM     30  C   UNL     1      -0.983   6.146  -1.958  0.00  0.00    +0.046 C 
ATOM     31  C   UNL     1      -2.936   7.596  -0.401  0.00  0.00    +0.044 C 
ENDBRANCH  21  24
ENDBRANCH   1  18
BRANCH   1  32
ATOM     32  C   UNL     1       1.024  -0.341  -1.526  0.00  0.00    +0.015 C 
ATOM     33  C   UNL     1       0.508   0.117  -0.161  0.00  0.00    +0.010 C 
BRANCH  32  35
ATOM     34  C   UNL     1       2.914  -0.153  -3.150  0.00  0.00    +0.004 C 
ATOM     35  C   UNL     1       2.304   0.423  -1.870  0.00  0.00    +0.002 C 
ENDBRANCH  32  35
ENDBRANCH   1  32
TORSDOF 6
