REMARK  Name = ZINC14579096
REMARK  10 active torsions:
REMARK  status: ('A' for Active; 'I' for Inactive)
REMARK    1  A    between atoms: C_1  and  C_2
REMARK    2  A    between atoms: C_2  and  C_3
REMARK    3  A    between atoms: C_2  and  C_4
REMARK    4  A    between atoms: C_4  and  C_5
REMARK    5  A    between atoms: C_5  and  N_6
REMARK    6  A    between atoms: N_6  and  C_7
REMARK    7  A    between atoms: C_8  and  N_23
REMARK    8  A    between atoms: N_9  and  C_16
REMARK    9  A    between atoms: C_16  and  C_17
REMARK   10  A    between atoms: C_24  and  C_26
REMARK                            x       y       z     vdW  Elec       q    Type
REMARK                         _______ _______ _______ _____ _____    ______ ____
ROOT
ATOM      1  C   UNL     1       2.297   1.077   0.109  0.00  0.00    +0.140 A 
ATOM      2  C   UNL     1       2.563   0.137   1.083  0.00  0.00    +0.128 A 
ATOM      3  N   UNL     1       3.816  -0.428   1.147  0.00  0.00    -0.276 N 
ATOM      4  C   UNL     1       4.774  -0.060   0.277  0.00  0.00    +0.331 A 
ATOM      5  O   UNL     1       5.876  -0.568   0.353  0.00  0.00    -0.246 OA
ATOM      6  N   UNL     1       4.534   0.858  -0.676  0.00  0.00    -0.273 N 
ATOM      7  H   UNL     1       5.263   1.113  -1.311  0.00  0.00    +0.173 HD
ATOM      8  C   UNL     1       3.322   1.437  -0.785  0.00  0.00    +0.277 A 
ATOM      9  O   UNL     1       3.116   2.268  -1.653  0.00  0.00    -0.266 OA
ENDROOT
BRANCH   1  10
ATOM     10  N   UNL     1       1.021   1.671   0.014  0.00  0.00    -0.260 N 
ATOM     11  C   UNL     1      -0.054   0.914  -0.283  0.00  0.00    +0.258 C 
ATOM     12  O   UNL     1       0.089  -0.261  -0.570  0.00  0.00    -0.269 OA
BRANCH  11  13
ATOM     13  C   UNL     1      -1.394   1.506  -0.268  0.00  0.00    +0.075 A 
ATOM     14  C   UNL     1      -2.623   0.892  -0.451  0.00  0.00    +0.022 A 
ATOM     15  C   UNL     1      -3.737   1.691  -0.386  0.00  0.00    +0.024 A 
ATOM     16  C   UNL     1      -3.587   3.021  -0.148  0.00  0.00    +0.056 A 
ATOM     17  S   UNL     1      -1.869   3.205   0.001  0.00  0.00    -0.077 S 
ATOM     18 BR   UNL     1      -4.926   4.348  -0.007  0.00  0.00    -0.043 Br
ENDBRANCH  11  13
BRANCH  10  19
ATOM     19  C   UNL     1       0.864   3.110   0.239  0.00  0.00    +0.114 C 
BRANCH  19  20
ATOM     20  C   UNL     1       0.536   3.363   1.712  0.00  0.00    +0.022 C 
BRANCH  20  22
ATOM     21  C   UNL     1      -0.843   5.374   1.170  0.00  0.00    +0.007 C 
ATOM     22  C   UNL     1       0.372   4.865   1.948  0.00  0.00    -0.016 C 
ATOM     23  C   UNL     1       0.169   5.129   3.441  0.00  0.00    +0.007 C 
ENDBRANCH  20  22
ENDBRANCH  19  20
ENDBRANCH  10  19
ENDBRANCH   1  10
BRANCH   2  24
ATOM     24  N   UNL     1       1.587  -0.235   1.976  0.00  0.00    -0.343 N 
ATOM     25  H   UNL     1       0.691   0.130   1.896  0.00  0.00    +0.144 HD
ATOM     26  H   UNL     1       1.792  -0.862   2.687  0.00  0.00    +0.144 HD
ENDBRANCH   2  24
BRANCH   3  27
ATOM     27  C   UNL     1       4.111  -1.431   2.174  0.00  0.00    +0.163 C 
BRANCH  27  28
ATOM     28  C   UNL     1       4.625  -0.746   3.413  0.00  0.00    -0.028 A 
ATOM     29  C   UNL     1       5.981  -0.529   3.572  0.00  0.00    +0.005 A 
ATOM     30  C   UNL     1       6.451   0.104   4.707  0.00  0.00    +0.000 A 
ATOM     31  C   UNL     1       5.567   0.511   5.688  0.00  0.00    +0.000 A 
ATOM     32  C   UNL     1       4.211   0.290   5.532  0.00  0.00    +0.000 A 
ATOM     33  C   UNL     1       3.740  -0.338   4.395  0.00  0.00    +0.005 A 
ENDBRANCH  27  28
ENDBRANCH   3  27
TORSDOF 8
