REMARK  Name = ZINC40311609
REMARK  4 active torsions:
REMARK  status: ('A' for Active; 'I' for Inactive)
REMARK    1  A    between atoms: C_1  and  C_2
REMARK    2  A    between atoms: C_4  and  C_11
REMARK    3  A    between atoms: C_7  and  N_8
REMARK    4  A    between atoms: C_22  and  C_24
REMARK                            x       y       z     vdW  Elec       q    Type
REMARK                         _______ _______ _______ _____ _____    ______ ____
ROOT
ATOM      1  C   UNL     1       0.150  -2.600  -2.677  0.00  0.00    +0.247 C 
ATOM      2  O   UNL     1       0.473  -1.865  -1.764  0.00  0.00    -0.270 OA
ATOM      3  N   UNL     1       0.170  -3.937  -2.505  0.00  0.00    -0.286 N 
ATOM      4  C   UNL     1       0.648  -4.540  -1.250  0.00  0.00    +0.113 C 
ATOM      5  C   UNL     1      -0.530  -5.264  -0.599  0.00  0.00    +0.054 C 
ATOM      6  C   UNL     1      -1.254  -6.121  -1.603  0.00  0.00    -0.041 A 
ATOM      7  C   UNL     1      -2.053  -7.149  -1.116  0.00  0.00    +0.004 A 
ATOM      8  C   UNL     1      -2.751  -7.965  -1.981  0.00  0.00    +0.000 A 
ATOM      9  C   UNL     1      -2.658  -7.760  -3.345  0.00  0.00    +0.000 A 
ATOM     10  C   UNL     1      -1.864  -6.743  -3.832  0.00  0.00    +0.006 A 
ATOM     11  C   UNL     1      -1.156  -5.924  -2.962  0.00  0.00    -0.019 A 
ATOM     12  C   UNL     1      -0.291  -4.848  -3.558  0.00  0.00    +0.137 C 
ENDROOT
BRANCH   1  16
ATOM     13  C   UNL     1      -2.169   0.970  -5.281  0.00  0.00    +0.046 C 
ATOM     14  C   UNL     1      -1.378  -0.312  -5.234  0.00  0.00    -0.020 A 
ATOM     15  C   UNL     1      -0.996  -0.841  -4.018  0.00  0.00    +0.018 A 
ATOM     16  C   UNL     1      -0.263  -2.028  -3.976  0.00  0.00    +0.037 A 
ATOM     17  C   UNL     1       0.079  -2.672  -5.167  0.00  0.00    +0.015 A 
ATOM     18  C   UNL     1      -0.309  -2.133  -6.375  0.00  0.00    +0.034 A 
ATOM     19  C   UNL     1      -1.041  -0.959  -6.410  0.00  0.00    +0.129 A 
BRANCH  19  20
ATOM     20  N   UNL     1      -1.460  -0.389  -7.710  0.00  0.00    +0.057 N 
ATOM     21  O   UNL     1      -2.542   0.139  -7.818  0.00  0.00    -0.126 OA
ATOM     22  O   UNL     1      -0.720  -0.452  -8.664  0.00  0.00    -0.126 OA
ENDBRANCH  19  20
ENDBRANCH   1  16
BRANCH  12  23
ATOM     23  C   UNL     1       0.901  -5.482  -4.228  0.00  0.00    -0.023 A 
ATOM     24  C   UNL     1       0.739  -6.178  -5.412  0.00  0.00    +0.006 A 
ATOM     25  C   UNL     1       1.832  -6.761  -6.026  0.00  0.00    +0.000 A 
ATOM     26  C   UNL     1       3.087  -6.646  -5.458  0.00  0.00    +0.000 A 
ATOM     27  C   UNL     1       3.249  -5.950  -4.275  0.00  0.00    +0.000 A 
ATOM     28  C   UNL     1       2.156  -5.364  -3.662  0.00  0.00    +0.006 A 
ENDBRANCH  12  23
TORSDOF 3
