REMARK  Name = ZINC20079801
REMARK  7 active torsions:
REMARK  status: ('A' for Active; 'I' for Inactive)
REMARK    1  A    between atoms: C_1  and  C_2
REMARK    2  A    between atoms: C_6  and  C_15
REMARK    3  A    between atoms: C_13  and  C_14
REMARK    4  A    between atoms: C_15  and  C_17
REMARK    5  A    between atoms: C_15  and  N_30
REMARK    6  A    between atoms: N_21  and  C_22
REMARK    7  A    between atoms: C_22  and  C_23
REMARK                            x       y       z     vdW  Elec       q    Type
REMARK                         _______ _______ _______ _____ _____    ______ ____
ROOT
ATOM      1  C   UNL     1      -0.018   1.503   0.010  0.00  0.00    +0.163 C 
ENDROOT
BRANCH   1   7
ATOM      2  C   UNL     1       3.431  -5.104   0.265  0.00  0.00    +0.044 C 
ATOM      3  C   UNL     1       2.178  -4.272   0.348  0.00  0.00    -0.047 A 
ATOM      4  C   UNL     1       2.252  -2.918   0.185  0.00  0.00    +0.013 A 
ATOM      5  C   UNL     1       1.089  -2.145   0.263  0.00  0.00    -0.001 A 
ATOM      6  C   UNL     1       1.131  -0.692   0.089  0.00  0.00    +0.021 A 
ATOM      7  C   UNL     1      -0.028   0.005   0.180  0.00  0.00    +0.042 A 
ATOM      8  C   UNL     1      -1.244  -0.666   0.426  0.00  0.00    +0.254 A 
ATOM      9  O   UNL     1      -2.276  -0.021   0.499  0.00  0.00    -0.268 OA
ATOM     10  N   UNL     1      -1.294  -2.001   0.582  0.00  0.00    -0.322 N 
ATOM     11  H   UNL     1      -2.258  -2.497   0.773  0.00  0.00    +0.169 HD
ATOM     12  C   UNL     1      -0.151  -2.767   0.507  0.00  0.00    +0.049 A 
ATOM     13  C   UNL     1      -0.202  -4.147   0.669  0.00  0.00    +0.030 A 
ATOM     14  C   UNL     1       0.958  -4.889   0.589  0.00  0.00    -0.046 A 
ATOM     15  C   UNL     1       0.900  -6.384   0.765  0.00  0.00    +0.044 C 
ENDBRANCH   1   7
BRANCH   1  16
ATOM     16  N   UNL     1      -0.979   1.884  -1.034  0.00  0.00    -0.284 NA
ATOM     17  C   UNL     1      -0.611   1.292  -2.330  0.00  0.00    +0.090 C 
ATOM     18  C   UNL     1      -1.808   1.406  -3.273  0.00  0.00    +0.051 C 
ATOM     19  C   UNL     1      -2.324   2.822  -3.280  0.00  0.00    -0.042 A 
ATOM     20  C   UNL     1      -3.161   3.216  -4.314  0.00  0.00    +0.004 A 
ATOM     21  C   UNL     1      -3.662   4.502  -4.353  0.00  0.00    +0.000 A 
ATOM     22  C   UNL     1      -3.328   5.402  -3.358  0.00  0.00    +0.000 A 
ATOM     23  C   UNL     1      -2.493   5.011  -2.331  0.00  0.00    +0.005 A 
ATOM     24  C   UNL     1      -1.987   3.720  -2.290  0.00  0.00    -0.030 A 
ATOM     25  C   UNL     1      -1.077   3.342  -1.151  0.00  0.00    +0.120 C 
ENDBRANCH   1  16
BRANCH   1  26
ATOM     26  C   UNL     1      -0.405   2.158   1.311  0.00  0.00    +0.173 A 
ATOM     27  N   UNL     1      -1.615   2.270   1.802  0.00  0.00    -0.111 NA
ATOM     28  N   UNL     1      -1.532   2.889   2.928  0.00  0.00    -0.023 NA
ATOM     29  N   UNL     1      -0.300   3.176   3.169  0.00  0.00    -0.044 NA
ATOM     30  N   UNL     1       0.426   2.737   2.198  0.00  0.00    -0.223 N 
BRANCH  30  31
ATOM     31  C   UNL     1       1.882   2.850   2.080  0.00  0.00    +0.182 C 
BRANCH  31  32
ATOM     32  C   UNL     1       2.231   4.132   1.369  0.00  0.00    -0.026 A 
ATOM     33  C   UNL     1       2.355   4.146  -0.008  0.00  0.00    +0.008 A 
ATOM     34  C   UNL     1       2.670   5.323  -0.661  0.00  0.00    +0.038 A 
ATOM     35  C   UNL     1       2.871   6.485   0.064  0.00  0.00    +0.123 A 
ATOM     36  C   UNL     1       2.751   6.468   1.444  0.00  0.00    +0.038 A 
ATOM     37  C   UNL     1       2.431   5.292   2.095  0.00  0.00    +0.008 A 
ATOM     38  F   UNL     1       3.183   7.634  -0.573  0.00  0.00    -0.205 F 
ENDBRANCH  31  32
ENDBRANCH  30  31
ENDBRANCH   1  26
TORSDOF 5
