REMARK  Name = ZINC35665356
REMARK  8 active torsions:
REMARK  status: ('A' for Active; 'I' for Inactive)
REMARK    1  A    between atoms: C_1  and  C_2
REMARK    2  A    between atoms: C_2  and  C_3
REMARK    3  A    between atoms: C_3  and  C_5
REMARK    4  A    between atoms: C_3  and  C_6
REMARK    5  A    between atoms: C_6  and  N_7
REMARK    6  A    between atoms: C_10  and  C_29
REMARK    7  A    between atoms: N_21  and  C_22
REMARK    8  A    between atoms: C_25  and  C_28
REMARK                            x       y       z     vdW  Elec       q    Type
REMARK                         _______ _______ _______ _____ _____    ______ ____
ROOT
ATOM      1  N   UNL     1      -2.450  -2.179   0.038  0.00  0.00    -0.313 N 
ATOM      2  C   UNL     1      -3.005  -2.460   1.236  0.00  0.00    +0.200 C 
ATOM      3  O   UNL     1      -2.735  -1.919   2.287  0.00  0.00    -0.277 OA
ATOM      4  C   UNL     1      -4.022  -3.564   1.046  0.00  0.00    +0.016 C 
ATOM      5  N   UNL     1      -4.282  -3.592  -0.414  0.00  0.00    +0.401 N 
ATOM      6  C   UNL     1      -3.038  -3.043  -0.988  0.00  0.00    +0.006 C 
ATOM      7  C   UNL     1      -2.083  -4.186  -1.327  0.00  0.00    +0.025 C 
ATOM      8  C   UNL     1      -0.778  -3.610  -1.888  0.00  0.00    +0.109 C 
ATOM      9  N   UNL     1      -1.099  -2.726  -3.017  0.00  0.00    -0.285 N 
ATOM     10  C   UNL     1      -2.067  -1.639  -2.811  0.00  0.00    +0.109 C 
ATOM     11  C   UNL     1      -3.360  -2.232  -2.242  0.00  0.00    +0.025 C 
ATOM     12  C   UNL     1      -0.517  -2.909  -4.218  0.00  0.00    +0.306 C 
ATOM     13  O   UNL     1       0.203  -3.870  -4.405  0.00  0.00    -0.252 OA
ATOM     14  N   UNL     1      -0.735  -2.026  -5.213  0.00  0.00    -0.269 N 
ATOM     15  C   UNL     1      -5.307  -3.244   1.812  0.00  0.00    -0.004 C 
ATOM     16  H   UNL     1      -4.437  -4.537  -0.731  0.00  0.00    -0.082 HD
ATOM     17  H   UNL     1      -1.355  -1.291  -5.083  0.00  0.00    +0.156 HD
ATOM     18  H   UNL     1      -5.068  -3.003  -0.647  0.00  0.00    -0.082 HD
ENDROOT
BRANCH  14  19
ATOM     19  C   UNL     1      -0.066  -2.169  -6.434  0.00  0.00    +0.035 A 
ATOM     20  C   UNL     1       0.246  -3.434  -6.912  0.00  0.00    +0.023 A 
ATOM     21  C   UNL     1       0.906  -3.572  -8.118  0.00  0.00    +0.005 A 
ATOM     22  C   UNL     1       1.256  -2.452  -8.848  0.00  0.00    -0.050 A 
ATOM     23  C   UNL     1       0.947  -1.190  -8.374  0.00  0.00    +0.005 A 
ATOM     24  C   UNL     1       0.283  -1.045  -7.172  0.00  0.00    +0.023 A 
ATOM     25  C   UNL     1       1.976  -2.606 -10.163  0.00  0.00    +0.044 C 
ENDBRANCH  14  19
BRANCH   1  26
ATOM     26  C   UNL     1      -1.423  -1.161  -0.199  0.00  0.00    +0.109 C 
BRANCH  26  27
ATOM     27  C   UNL     1      -2.094   0.166  -0.559  0.00  0.00    +0.003 C 
ATOM     28  C   UNL     1      -2.786   0.740   0.679  0.00  0.00    +0.009 C 
BRANCH  27  30
ATOM     29  C   UNL     1      -1.720   2.437  -1.532  0.00  0.00    +0.004 C 
ATOM     30  C   UNL     1      -1.036   1.154  -1.055  0.00  0.00    +0.001 C 
ENDBRANCH  27  30
ENDBRANCH  26  27
ENDBRANCH   1  26
TORSDOF 4
