REMARK  Name = ZINC04730247
REMARK  8 active torsions:
REMARK  status: ('A' for Active; 'I' for Inactive)
REMARK    1  A    between atoms: C_1  and  C_2
REMARK    2  A    between atoms: C_2  and  O_3
REMARK    3  A    between atoms: O_3  and  C_4
REMARK    4  A    between atoms: C_7  and  C_10
REMARK    5  A    between atoms: C_19  and  N_28
REMARK    6  A    between atoms: C_20  and  C_26
REMARK    7  A    between atoms: C_21  and  C_22
REMARK    8  A    between atoms: C_21  and  C_24
REMARK                            x       y       z     vdW  Elec       q    Type
REMARK                         _______ _______ _______ _____ _____    ______ ____
ROOT
ATOM      1  C   UNL     1       2.504  -2.503  -4.382  0.00  0.00    +0.066 C 
ATOM      2  C   UNL     1       1.727  -2.192  -5.662  0.00  0.00    +0.031 C 
ATOM      3  C   UNL     1       0.247  -2.445  -5.505  0.00  0.00    +0.009 C 
ATOM      4  C   UNL     1      -0.173  -3.779  -6.118  0.00  0.00    +0.005 C 
ATOM      5  C   UNL     1       0.204  -3.768  -7.606  0.00  0.00    +0.027 C 
ATOM      6  C   UNL     1       1.703  -3.620  -7.701  0.00  0.00    -0.021 C 
ATOM      7  C   UNL     1       2.375  -2.926  -6.797  0.00  0.00    -0.026 C 
ATOM      8  C   UNL     1       3.850  -2.858  -6.885  0.00  0.00    +0.044 C 
ATOM      9  C   UNL     1       4.561  -2.423  -5.811  0.00  0.00    +0.084 C 
ATOM     10  C   UNL     1       3.932  -1.975  -4.527  0.00  0.00    +0.186 C 
ENDROOT
BRANCH   1  14
ATOM     11  C   UNL     1       0.606  -0.607  -1.056  0.00  0.00    +0.121 A 
ATOM     12  C   UNL     1       0.784   0.088  -2.243  0.00  0.00    +0.046 A 
ATOM     13  C   UNL     1       1.403  -0.525  -3.315  0.00  0.00    +0.007 A 
ATOM     14  C   UNL     1       1.835  -1.835  -3.209  0.00  0.00    -0.041 A 
ATOM     15  C   UNL     1       1.653  -2.531  -2.028  0.00  0.00    +0.007 A 
ATOM     16  C   UNL     1       1.040  -1.921  -0.952  0.00  0.00    +0.046 A 
BRANCH  11  17
ATOM     17  O   UNL     1       0.002  -0.004   0.002  0.00  0.00    -0.492 OA
BRANCH  17  19
ATOM     18  C   UNL     1      -1.072   1.855   1.111  0.00  0.00    +0.048 C 
ATOM     19  C   UNL     1      -0.419   1.350  -0.177  0.00  0.00    +0.225 C 
ENDBRANCH  17  19
ENDBRANCH  11  17
ENDBRANCH   1  14
BRANCH   8  20
ATOM     20  N   UNL     1       4.499  -3.234  -8.045  0.00  0.00    -0.357 N 
ATOM     21  H   UNL     1       5.596  -3.181  -8.104  0.00  0.00    +0.142 HD
ATOM     22  H   UNL     1       3.918  -3.586  -8.910  0.00  0.00    +0.142 HD
ENDBRANCH   8  20
BRANCH  10  23
ATOM     23  C   UNL     1       3.905  -0.503  -4.493  0.00  0.00    +0.090 C 
ATOM     24  N   UNL     1       3.884   0.632  -4.467  0.00  0.00    -0.195 NA
ENDBRANCH  10  23
BRANCH  10  25
ATOM     25  C   UNL     1       4.742  -2.465  -3.400  0.00  0.00    +0.090 C 
ATOM     26  N   UNL     1       5.368  -2.844  -2.531  0.00  0.00    -0.195 NA
ENDBRANCH  10  25
BRANCH   9  27
ATOM     27  C   UNL     1       5.989  -2.390  -5.913  0.00  0.00    +0.099 C 
ATOM     28  N   UNL     1       7.122  -2.364  -5.994  0.00  0.00    -0.191 NA
ENDBRANCH   9  27
TORSDOF 7
