REMARK  Name = ZINC33939210
REMARK  4 active torsions:
REMARK  status: ('A' for Active; 'I' for Inactive)
REMARK    1  A    between atoms: C_1  and  C_2
REMARK    2  A    between atoms: N_14  and  N_15
REMARK    3  A    between atoms: C_22  and  C_29
REMARK    4  A    between atoms: C_25  and  O_28
REMARK                            x       y       z     vdW  Elec       q    Type
REMARK                         _______ _______ _______ _____ _____    ______ ____
ROOT
ATOM      1  C   UNL     1      -0.019   1.526   0.010  0.00  0.00    +0.018 C 
ATOM      2  C   UNL     1       0.002  -0.004   0.002  0.00  0.00    +0.011 C 
ATOM      3  C   UNL     1       0.638  -0.475  -1.286  0.00  0.00    +0.013 C 
ATOM      4  C   UNL     1       0.822  -1.992  -1.287  0.00  0.00    +0.005 C 
ATOM      5  C   UNL     1       1.723  -2.373  -0.106  0.00  0.00    +0.003 C 
ATOM      6  C   UNL     1       1.021  -1.987   1.191  0.00  0.00    +0.001 C 
ATOM      7  C   UNL     1       0.750  -0.494   1.255  0.00  0.00    +0.005 C 
ATOM      8  C   UNL     1      -0.331  -0.281   2.357  0.00  0.00    +0.010 C 
ATOM      9  C   UNL     1      -1.646  -0.679   1.652  0.00  0.00    +0.053 C 
ATOM     10  C   UNL     1      -1.412  -0.508   0.162  0.00  0.00    +0.043 C 
ATOM     11  N   UNL     1      -2.250  -0.745  -0.776  0.00  0.00    -0.187 NA
ATOM     12  C   UNL     1      -0.307  -2.749   1.270  0.00  0.00    +0.031 C 
ATOM     13  C   UNL     1      -0.003  -4.223   1.232  0.00  0.00    -0.027 C 
ATOM     14  C   UNL     1       1.037  -4.698   0.611  0.00  0.00    -0.065 C 
ATOM     15  C   UNL     1       2.005  -3.861  -0.136  0.00  0.00    -0.008 C 
ATOM     16  C   UNL     1       3.415  -4.168   0.371  0.00  0.00    +0.014 C 
ATOM     17  C   UNL     1       3.664  -5.676   0.274  0.00  0.00    +0.032 C 
ATOM     18  C   UNL     1       2.679  -6.427   1.169  0.00  0.00    +0.119 C 
ATOM     19  C   UNL     1       1.285  -6.197   0.650  0.00  0.00    +0.062 C 
ATOM     20  C   UNL     1       1.952  -4.316  -1.596  0.00  0.00    +0.016 C 
ENDROOT
BRANCH  11  21
ATOM     21  N   UNL     1      -3.534  -1.213  -0.467  0.00  0.00    -0.191 N 
ATOM     22  C   UNL     1      -4.417  -1.462  -1.455  0.00  0.00    +0.317 C 
ATOM     23  O   UNL     1      -5.531  -1.868  -1.187  0.00  0.00    -0.251 OA
ATOM     24  N   UNL     1      -4.064  -1.261  -2.740  0.00  0.00    -0.312 N 
ATOM     25  H   UNL     1      -3.788  -1.357   0.458  0.00  0.00    +0.179 HD
ATOM     26  H   UNL     1      -3.175  -0.938  -2.954  0.00  0.00    +0.147 HD
ATOM     27  H   UNL     1      -4.699  -1.441  -3.451  0.00  0.00    +0.147 HD
ENDBRANCH  11  21
BRANCH  18  28
ATOM     28  O   UNL     1       2.965  -7.826   1.122  0.00  0.00    -0.391 OA
ATOM     29  H   UNL     1       2.378  -8.367   1.668  0.00  0.00    +0.210 HD
ENDBRANCH  18  28
TORSDOF 2
