REMARK  Name = ZINC39630934
REMARK  13 active torsions:
REMARK  status: ('A' for Active; 'I' for Inactive)
REMARK    1  A    between atoms: C_1  and  C_2
REMARK    2  A    between atoms: C_2  and  N_3
REMARK    3  A    between atoms: C_4  and  C_10
REMARK    4  A    between atoms: C_6  and  C_8
REMARK    5  A    between atoms: C_14  and  C_23
REMARK    6  A    between atoms: N_25  and  C_26
REMARK    7  A    between atoms: C_26  and  C_27
REMARK    8  A    between atoms: C_27  and  C_28
REMARK    9  A    between atoms: C_27  and  C_29
REMARK   10  A    between atoms: C_27  and  C_30
REMARK   11  A    between atoms: C_30  and  N_31
REMARK   12  A    between atoms: N_31  and  C_32
REMARK   13  A    between atoms: N_31  and  C_33
REMARK                            x       y       z     vdW  Elec       q    Type
REMARK                         _______ _______ _______ _____ _____    ______ ____
ROOT
ATOM      1  C   UNL     1      -1.678  -0.493   1.137  0.00  0.00    +0.266 C 
ATOM      2  O   UNL     1      -2.541  -0.916   1.882  0.00  0.00    -0.268 OA
ATOM      3  N   UNL     1      -0.554   0.051   1.645  0.00  0.00    -0.295 N 
ATOM      4  C   UNL     1       0.639   0.526   0.907  0.00  0.00    +0.121 C 
ATOM      5  C   UNL     1       1.065   1.816   1.644  0.00  0.00    +0.100 C 
ATOM      6  C   UNL     1       0.491   1.666   3.062  0.00  0.00    -0.004 C 
ATOM      7  C   UNL     1      -0.237   0.314   3.069  0.00  0.00    +0.115 C 
ATOM      8  C   UNL     1      -0.498   2.791   3.354  0.00  0.00    -0.010 C 
ATOM      9  C   UNL     1      -1.012   2.652   4.790  0.00  0.00    -0.082 C 
ATOM     10  N   UNL     1       0.119   2.712   5.724  0.00  0.00    +0.379 N 
ATOM     11  C   UNL     1       1.017   1.574   5.498  0.00  0.00    -0.082 C 
ATOM     12  C   UNL     1       1.617   1.666   4.092  0.00  0.00    -0.010 C 
ATOM     13  H   UNL     1       0.626   3.573   5.582  0.00  0.00    -0.086 HD
ATOM     14  H   UNL     1      -0.228   2.682   6.672  0.00  0.00    -0.086 HD
ENDROOT
BRANCH   1  16
ATOM     15  N   UNL     1      -2.292   0.421  -1.151  0.00  0.00    -0.258 N 
ATOM     16  C   UNL     1      -1.861  -0.575  -0.321  0.00  0.00    +0.138 A 
ATOM     17  C   UNL     1      -1.630  -1.677  -1.127  0.00  0.00    +0.071 A 
ATOM     18  C   UNL     1      -1.946  -1.260  -2.423  0.00  0.00    +0.075 A 
ATOM     19  N   UNL     1      -2.333  -0.012  -2.359  0.00  0.00    -0.175 NA
ATOM     20  C   UNL     1      -1.860  -2.100  -3.671  0.00  0.00    +0.069 C 
ATOM     21 BR   UNL     1      -1.017  -3.384  -0.589  0.00  0.00    -0.046 Br
BRANCH  15  23
ATOM     22  C   UNL     1      -4.119   1.791  -0.275  0.00  0.00    +0.029 C 
ATOM     23  C   UNL     1      -2.657   1.775  -0.727  0.00  0.00    +0.141 C 
ENDBRANCH  15  23
ENDBRANCH   1  16
BRANCH   5  24
ATOM     24  C   UNL     1       2.567   1.921   1.692  0.00  0.00    +0.218 C 
ATOM     25  O   UNL     1       3.247   0.918   1.654  0.00  0.00    -0.275 OA
ATOM     26  N   UNL     1       3.156   3.131   1.777  0.00  0.00    -0.315 N 
ATOM     27  H   UNL     1       2.613   3.928   1.881  0.00  0.00    +0.149 HD
BRANCH  26  28
ATOM     28  C   UNL     1       4.615   3.241   1.713  0.00  0.00    +0.108 C 
BRANCH  28  29
ATOM     29  C   UNL     1       5.021   4.712   1.832  0.00  0.00    -0.034 C 
ATOM     30  C   UNL     1       4.398   5.508   0.684  0.00  0.00    +0.010 C 
ATOM     31  C   UNL     1       4.526   5.271   3.168  0.00  0.00    +0.010 C 
BRANCH  29  32
ATOM     32  C   UNL     1       6.545   4.827   1.765  0.00  0.00    -0.072 C 
BRANCH  32  33
ATOM     33  N   UNL     1       6.938   6.232   1.939  0.00  0.00    +0.376 N 
ATOM     34  C   UNL     1       7.062   6.532   3.372  0.00  0.00    -0.097 C 
ATOM     35  C   UNL     1       8.228   6.466   1.276  0.00  0.00    -0.097 C 
ATOM     36  H   UNL     1       6.236   6.831   1.530  0.00  0.00    -0.083 HD
ENDBRANCH  32  33
ENDBRANCH  29  32
ENDBRANCH  28  29
ENDBRANCH  26  28
ENDBRANCH   5  24
TORSDOF 7
