REMARK  Name = ZINC36154278
REMARK  9 active torsions:
REMARK  status: ('A' for Active; 'I' for Inactive)
REMARK    1  A    between atoms: C_1  and  O_2
REMARK    2  A    between atoms: O_2  and  C_3
REMARK    3  A    between atoms: C_6  and  C_11
REMARK    4  A    between atoms: C_8  and  O_9
REMARK    5  A    between atoms: O_9  and  C_10
REMARK    6  A    between atoms: C_20  and  C_22
REMARK    7  A    between atoms: C_22  and  N_23
REMARK    8  A    between atoms: N_23  and  C_24
REMARK    9  A    between atoms: C_24  and  C_25
REMARK                            x       y       z     vdW  Elec       q    Type
REMARK                         _______ _______ _______ _____ _____    ______ ____
ROOT
ATOM      1  C   UNL     1      -4.969  -2.617   0.035  0.00  0.00    +0.004 A 
ATOM      2  C   UNL     1      -5.238  -3.604  -0.853  0.00  0.00    +0.056 A 
ATOM      3  S   UNL     1      -6.901  -4.092  -0.438  0.00  0.00    -0.076 S 
ATOM      4  C   UNL     1      -7.194  -2.971   0.906  0.00  0.00    +0.116 A 
ATOM      5  C   UNL     1      -5.993  -2.249   1.005  0.00  0.00    +0.080 A 
ATOM      6  C   UNL     1      -5.950  -1.256   2.035  0.00  0.00    +0.260 A 
ATOM      7  O   UNL     1      -4.952  -0.574   2.196  0.00  0.00    -0.267 OA
ATOM      8  N   UNL     1      -7.028  -1.086   2.823  0.00  0.00    -0.312 N 
ATOM      9  H   UNL     1      -7.005  -0.415   3.523  0.00  0.00    +0.170 HD
ATOM     10  C   UNL     1      -8.148  -1.836   2.658  0.00  0.00    +0.094 A 
ATOM     11  N   UNL     1      -8.221  -2.743   1.721  0.00  0.00    -0.229 NA
ENDROOT
BRANCH   1  15
ATOM     12  C   UNL     1      -1.201  -0.638   0.010  0.00  0.00    +0.162 A 
ATOM     13  C   UNL     1      -2.373   0.102   0.019  0.00  0.00    +0.050 A 
ATOM     14  C   UNL     1      -3.597  -0.537   0.028  0.00  0.00    +0.012 A 
ATOM     15  C   UNL     1      -3.655  -1.930   0.026  0.00  0.00    -0.013 A 
ATOM     16  C   UNL     1      -2.477  -2.675   0.016  0.00  0.00    +0.058 A 
ATOM     17  C   UNL     1      -1.254  -2.029   0.003  0.00  0.00    +0.162 A 
BRANCH  12  19
ATOM     18  C   UNL     1      -0.017   1.425   0.010  0.00  0.00    +0.277 C 
ATOM     19  O   UNL     1       0.002  -0.004   0.002  0.00  0.00    -0.491 OA
ENDBRANCH  12  19
BRANCH  17  20
ATOM     20  O   UNL     1      -0.103  -2.753  -0.012  0.00  0.00    -0.491 OA
ATOM     21  C   UNL     1      -0.232  -4.177  -0.018  0.00  0.00    +0.277 C 
ENDBRANCH  17  20
ENDBRANCH   1  15
BRANCH  10  22
ATOM     22  C   UNL     1      -9.331  -1.610   3.563  0.00  0.00    -0.006 C 
BRANCH  22  23
ATOM     23  N   UNL     1     -10.414  -2.532   3.194  0.00  0.00    +0.388 N 
ATOM     24  H   UNL     1     -10.686  -2.364   2.237  0.00  0.00    -0.085 HD
ATOM     25  H   UNL     1     -10.093  -3.483   3.291  0.00  0.00    -0.085 HD
BRANCH  23  26
ATOM     26  C   UNL     1     -11.567  -2.312   4.077  0.00  0.00    -0.006 C 
BRANCH  26  27
ATOM     27  C   UNL     1     -12.677  -3.257   3.698  0.00  0.00    +0.088 A 
ATOM     28  C   UNL     1     -12.867  -4.490   4.202  0.00  0.00    +0.042 A 
ATOM     29  C   UNL     1     -14.017  -5.018   3.571  0.00  0.00    +0.041 A 
ATOM     30  C   UNL     1     -14.460  -4.076   2.719  0.00  0.00    +0.195 A 
ATOM     31  O   UNL     1     -13.649  -3.010   2.804  0.00  0.00    -0.470 OA
ENDBRANCH  26  27
ENDBRANCH  23  26
ENDBRANCH  22  23
ENDBRANCH  10  22
TORSDOF 7
