REMARK  Name = ZINC02093541
REMARK  4 active torsions:
REMARK  status: ('A' for Active; 'I' for Inactive)
REMARK    1  A    between atoms: C_11  and  C_31
REMARK    2  A    between atoms: N_19  and  C_23
REMARK    3  A    between atoms: C_23  and  C_24
REMARK    4  A    between atoms: C_35  and  N_37
REMARK                            x       y       z     vdW  Elec       q    Type
REMARK                         _______ _______ _______ _____ _____    ______ ____
ROOT
ATOM      1  C   UNL     1       1.137  -0.018  -3.847  0.00  0.00    +0.001 A 
ATOM      2  C   UNL     1       0.450   0.722  -4.795  0.00  0.00    +0.002 A 
ATOM      3  C   UNL     1      -0.464   1.702  -4.447  0.00  0.00    +0.026 A 
ATOM      4  C   UNL     1      -0.668   1.919  -3.086  0.00  0.00    +0.047 A 
ATOM      5  C   UNL     1       0.040   1.159  -2.119  0.00  0.00    +0.003 A 
ATOM      6  C   UNL     1       0.957   0.174  -2.499  0.00  0.00    +0.010 A 
ATOM      7  C   UNL     1      -0.406   1.639  -0.827  0.00  0.00    -0.015 A 
ATOM      8  C   UNL     1      -1.314   2.611  -1.059  0.00  0.00    +0.046 A 
ATOM      9  N   UNL     1      -1.476   2.786  -2.408  0.00  0.00    -0.356 N 
ATOM     10  H   UNL     1      -2.074   3.429  -2.820  0.00  0.00    +0.166 HD
ATOM     11  C   UNL     1      -2.027   3.367   0.039  0.00  0.00    +0.154 C 
ATOM     12  N   UNL     1      -1.342   3.050   1.310  0.00  0.00    -0.276 N 
ATOM     13  C   UNL     1      -1.002   1.652   1.576  0.00  0.00    +0.167 C 
ATOM     14  C   UNL     1       0.029   1.179   0.541  0.00  0.00    +0.069 C 
ATOM     15  C   UNL     1      -0.461   1.456   2.952  0.00  0.00    +0.237 C 
ATOM     16  O   UNL     1      -0.233   0.322   3.317  0.00  0.00    -0.274 OA
ATOM     17  N   UNL     1      -0.211   2.447   3.806  0.00  0.00    -0.287 N 
ATOM     18  C   UNL     1      -0.441   3.850   3.505  0.00  0.00    +0.204 C 
ATOM     19  C   UNL     1      -1.059   4.041   2.158  0.00  0.00    +0.234 C 
ATOM     20  O   UNL     1      -1.320   5.173   1.811  0.00  0.00    -0.274 OA
ENDROOT
BRANCH  11  21
ATOM     21  C   UNL     1      -1.954   4.848  -0.227  0.00  0.00    -0.019 A 
ATOM     22  C   UNL     1      -0.737   5.441  -0.504  0.00  0.00    +0.006 A 
ATOM     23  C   UNL     1      -0.669   6.800  -0.748  0.00  0.00    +0.003 A 
ATOM     24  C   UNL     1      -1.820   7.566  -0.715  0.00  0.00    +0.033 A 
ATOM     25  C   UNL     1      -3.037   6.973  -0.438  0.00  0.00    +0.127 A 
ATOM     26  C   UNL     1      -3.105   5.613  -0.199  0.00  0.00    +0.038 A 
BRANCH  25  27
ATOM     27  N   UNL     1      -4.269   7.793  -0.403  0.00  0.00    +0.056 N 
ATOM     28  O   UNL     1      -4.210   8.991  -0.617  0.00  0.00    -0.126 OA
ATOM     29  O   UNL     1      -5.342   7.271  -0.159  0.00  0.00    -0.126 OA
ENDBRANCH  25  27
ENDBRANCH  11  21
BRANCH  17  30
ATOM     30  C   UNL     1       0.328   2.103   5.124  0.00  0.00    +0.143 C 
BRANCH  30  31
ATOM     31  C   UNL     1      -0.808   1.878   6.088  0.00  0.00    -0.030 A 
ATOM     32  C   UNL     1      -1.306   2.934   6.829  0.00  0.00    +0.006 A 
ATOM     33  C   UNL     1      -2.352   2.730   7.708  0.00  0.00    +0.020 A 
ATOM     34  C   UNL     1      -2.893   1.465   7.857  0.00  0.00    +0.041 A 
ATOM     35  C   UNL     1      -2.392   0.407   7.119  0.00  0.00    +0.020 A 
ATOM     36  C   UNL     1      -1.349   0.615   6.236  0.00  0.00    +0.006 A 
ATOM     37 CL   UNL     1      -4.202   1.206   8.967  0.00  0.00    -0.084 Cl
ENDBRANCH  30  31
ENDBRANCH  17  30
TORSDOF 4
