REMARK  Name = ZINC03838991
REMARK  5 active torsions:
REMARK  status: ('A' for Active; 'I' for Inactive)
REMARK    1  A    between atoms: CG1_1  and  CB_2
REMARK    2  A    between atoms: CB_2  and  CG2_4
REMARK    3  A    between atoms: CB_2  and  CA_5
REMARK    4  A    between atoms: C_12  and  N_19
REMARK    5  A    between atoms: C_20  and  C_22
REMARK                            x       y       z     vdW  Elec       q    Type
REMARK                         _______ _______ _______ _____ _____    ______ ____
ROOT
ATOM      1  CA  VAL A   2      -6.174   1.968  -1.854  0.00  0.00    +0.162 C 
ATOM      2  C   VAL A   2      -6.031   1.519  -0.419  0.00  0.00    +0.237 C 
ATOM      3  O   VAL A   2      -6.996   1.155   0.219  0.00  0.00    -0.274 OA
ATOM      4  N   UNK A   1      -4.802   1.534   0.133  0.00  0.00    -0.287 N 
ATOM      5  C   UNK A   1      -4.416   1.133   1.485  0.00  0.00    +0.110 C 
ATOM      6  C   UNK A   1      -2.906   0.835   1.465  0.00  0.00    +0.043 C 
ATOM      7  C   UNK A   1      -2.449   1.117   0.020  0.00  0.00    +0.104 C 
ATOM      8  C   UNK A   1      -3.585   1.969  -0.581  0.00  0.00    +0.182 C 
ATOM      9  C   UNK A   1      -3.751   1.624  -2.040  0.00  0.00    +0.236 C 
ATOM     10  O   UNK A   1      -2.776   1.351  -2.708  0.00  0.00    -0.274 OA
ATOM     11  N   VAL A   2      -4.970   1.618  -2.606  0.00  0.00    -0.302 N 
ATOM     12  H   VAL A   2      -5.054   1.373  -3.541  0.00  0.00    +0.150 HD
ENDROOT
BRANCH   7  13
ATOM     13  N   UNK A   1      -1.191   1.867   0.018  0.00  0.00    -0.310 N 
ATOM     14  C   UNK A   1      -0.014   1.209   0.009  0.00  0.00    +0.216 C 
ATOM     15  O   UNK A   1       0.002  -0.004   0.002  0.00  0.00    -0.276 OA
ATOM     16  H   UNK A   1      -1.204   2.837   0.023  0.00  0.00    +0.149 HD
BRANCH  14  17
ATOM     17  C   UNK A   1       1.280   1.980   0.001  0.00  0.00    +0.075 C 
ATOM     18  C   UNK A   1       1.383   2.826  -1.286  0.00  0.00    +0.013 C 
ATOM     19  C   UNK A   1       2.883   2.757  -1.666  0.00  0.00    +0.001 C 
ATOM     20  C   UNK A   1       3.259   1.296  -1.312  0.00  0.00    +0.001 C 
ATOM     21  C   UNK A   1       2.473   1.008  -0.016  0.00  0.00    +0.013 C 
ENDBRANCH  14  17
ENDBRANCH   7  13
BRANCH   1  23
ATOM     22  CG1 VAL A   2      -6.520   3.941  -3.348  0.00  0.00    +0.009 C 
ATOM     23  CB  VAL A   2      -6.375   3.484  -1.895  0.00  0.00    +0.012 C 
ATOM     24  CG2 VAL A   2      -7.640   3.852  -1.117  0.00  0.00    +0.009 C 
ENDBRANCH   1  23
TORSDOF 3
