REMARK  Name = ZINC09292690
REMARK  5 active torsions:
REMARK  status: ('A' for Active; 'I' for Inactive)
REMARK    1  A    between atoms: C_1  and  C_2
REMARK    2  A    between atoms: C_2  and  C_3
REMARK    3  A    between atoms: C_2  and  C_4
REMARK    4  A    between atoms: C_7  and  C_10
REMARK    5  A    between atoms: C_13  and  C_25
REMARK                            x       y       z     vdW  Elec       q    Type
REMARK                         _______ _______ _______ _____ _____    ______ ____
ROOT
ATOM      1  C   UNL     1       2.707  -1.868  -4.752  0.00  0.00    +0.122 C 
ATOM      2  C   UNL     1       4.149  -1.348  -4.761  0.00  0.00    +0.057 C 
ATOM      3  C   UNL     1       4.944  -2.046  -5.870  0.00  0.00    +0.106 C 
ATOM      4  N   UNL     1       5.001  -3.489  -5.570  0.00  0.00    -0.309 N 
ATOM      5  C   UNL     1       3.820  -4.079  -5.146  0.00  0.00    +0.175 A 
ATOM      6  N   UNL     1       2.727  -3.334  -4.762  0.00  0.00    -0.306 N 
ATOM      7  C   UNL     1       1.739  -4.213  -4.414  0.00  0.00    +0.069 A 
ATOM      8  C   UNL     1       0.438  -4.038  -3.959  0.00  0.00    +0.028 A 
ATOM      9  C   UNL     1      -0.299  -5.183  -3.700  0.00  0.00    +0.002 A 
ATOM     10  C   UNL     1       0.227  -6.450  -3.881  0.00  0.00    +0.002 A 
ATOM     11  C   UNL     1       1.519  -6.650  -4.333  0.00  0.00    +0.028 A 
ATOM     12  C   UNL     1       2.281  -5.508  -4.603  0.00  0.00    +0.065 A 
ATOM     13  N   UNL     1       3.550  -5.354  -5.045  0.00  0.00    -0.327 N 
ATOM     14  H   UNL     1       5.821  -3.998  -5.664  0.00  0.00    +0.149 HD
ATOM     15  H   UNL     1       4.162  -6.075  -5.258  0.00  0.00    +0.169 HD
ENDROOT
BRANCH   3  16
ATOM     16  C   UNL     1       6.339  -1.481  -5.924  0.00  0.00    -0.026 A 
ATOM     17  C   UNL     1       7.295  -1.913  -5.024  0.00  0.00    +0.007 A 
ATOM     18  C   UNL     1       8.576  -1.395  -5.072  0.00  0.00    +0.022 A 
ATOM     19  C   UNL     1       8.902  -0.444  -6.022  0.00  0.00    +0.059 A 
ATOM     20  C   UNL     1       7.944  -0.011  -6.924  0.00  0.00    +0.060 A 
ATOM     21  C   UNL     1       6.665  -0.535  -6.877  0.00  0.00    +0.027 A 
ATOM     22 CL   UNL     1       8.351   1.183  -8.116  0.00  0.00    -0.082 Cl
ATOM     23 CL   UNL     1      10.510   0.207  -6.083  0.00  0.00    -0.082 Cl
ENDBRANCH   3  16
BRANCH   1  27
ATOM     24  C   UNL     1       0.707  -0.490  -1.238  0.00  0.00    -0.045 A 
ATOM     25  C   UNL     1       0.222  -0.151  -2.487  0.00  0.00    +0.004 A 
ATOM     26  C   UNL     1       0.869  -0.597  -3.624  0.00  0.00    +0.006 A 
ATOM     27  C   UNL     1       2.002  -1.381  -3.513  0.00  0.00    -0.025 A 
ATOM     28  C   UNL     1       2.488  -1.720  -2.263  0.00  0.00    +0.006 A 
ATOM     29  C   UNL     1       1.843  -1.270  -1.126  0.00  0.00    +0.004 A 
BRANCH  24  31
ATOM     30  C   UNL     1      -0.019   1.526   0.010  0.00  0.00    +0.012 C 
ATOM     31  C   UNL     1       0.002  -0.004   0.002  0.00  0.00    +0.013 C 
ATOM     32  C   UNL     1      -1.433  -0.534   0.013  0.00  0.00    +0.012 C 
ENDBRANCH  24  31
ENDBRANCH   1  27
TORSDOF 3
