REMARK  Name = ZINC21863690
REMARK  7 active torsions:
REMARK  status: ('A' for Active; 'I' for Inactive)
REMARK    1  A    between atoms: C_1  and  C_2
REMARK    2  A    between atoms: C_6  and  N_9
REMARK    3  A    between atoms: C_7  and  C_8
REMARK    4  A    between atoms: C_15  and  C_28
REMARK    5  A    between atoms: C_18  and  C_19
REMARK    6  A    between atoms: C_18  and  C_20
REMARK    7  A    between atoms: N_22  and  C_23
REMARK                            x       y       z     vdW  Elec       q    Type
REMARK                         _______ _______ _______ _____ _____    ______ ____
ROOT
ATOM      1  N   UNL     1      -0.698  -2.253   0.348  0.00  0.00    -0.250 N 
ATOM      2  C   UNL     1      -1.070  -0.962   0.180  0.00  0.00    +0.268 C 
ATOM      3  O   UNL     1      -2.239  -0.641   0.065  0.00  0.00    -0.268 OA
ATOM      4  C   UNL     1       0.010   0.029   0.146  0.00  0.00    +0.106 A 
ATOM      5  C   UNL     1      -0.027   1.395   0.175  0.00  0.00    +0.033 A 
ATOM      6  C   UNL     1       1.291   1.849   0.120  0.00  0.00    +0.032 A 
ATOM      7  C   UNL     1       2.119   0.739   0.050  0.00  0.00    +0.085 A 
ATOM      8  N   UNL     1       1.339  -0.371   0.054  0.00  0.00    -0.331 N 
ATOM      9  C   UNL     1       1.713  -1.786  -0.028  0.00  0.00    +0.158 C 
ATOM     10  C   UNL     1       0.666  -2.622   0.708  0.00  0.00    +0.133 C 
ATOM     11  C   UNL     1       0.850  -2.428   2.214  0.00  0.00    +0.044 C 
ENDROOT
BRANCH   1  17
ATOM     12  C   UNL     1      -3.124  -5.304  -2.648  0.00  0.00    +0.044 C 
ATOM     13  C   UNL     1      -2.846  -4.759  -1.270  0.00  0.00    -0.046 A 
ATOM     14  C   UNL     1      -3.534  -5.258  -0.179  0.00  0.00    +0.004 A 
ATOM     15  C   UNL     1      -3.283  -4.761   1.086  0.00  0.00    +0.002 A 
ATOM     16  C   UNL     1      -2.339  -3.768   1.265  0.00  0.00    +0.024 A 
ATOM     17  C   UNL     1      -1.650  -3.262   0.171  0.00  0.00    +0.041 A 
ATOM     18  C   UNL     1      -1.905  -3.763  -1.099  0.00  0.00    -0.026 A 
ATOM     19  C   UNL     1      -1.155  -3.221  -2.289  0.00  0.00    +0.046 C 
ENDBRANCH   1  17
BRANCH   7  20
ATOM     20  C   UNL     1       3.586   0.761  -0.018  0.00  0.00    +0.151 A 
ATOM     21  C   UNL     1       4.376   1.870   0.068  0.00  0.00    +0.051 A 
ATOM     22  C   UNL     1       5.707   1.428  -0.043  0.00  0.00    +0.042 A 
ATOM     23  C   UNL     1       5.669   0.089  -0.198  0.00  0.00    +0.196 A 
ATOM     24  O   UNL     1       4.387  -0.311  -0.183  0.00  0.00    -0.461 OA
ENDBRANCH   7  20
BRANCH  10  25
ATOM     25  C   UNL     1       0.882  -4.076   0.374  0.00  0.00    +0.239 C 
ATOM     26  O   UNL     1       1.389  -4.387  -0.683  0.00  0.00    -0.273 OA
ATOM     27  N   UNL     1       0.511  -5.031   1.250  0.00  0.00    -0.311 N 
ATOM     28  H   UNL     1       0.109  -4.748   2.235  0.00  0.00    +0.149 HD
BRANCH  27  29
ATOM     29  C   UNL     1       0.643  -6.445   0.892  0.00  0.00    +0.073 C 
ATOM     30  C   UNL     1      -0.629  -6.926   0.163  0.00  0.00    +0.022 C 
ATOM     31  C   UNL     1      -0.834  -8.375   0.673  0.00  0.00    +0.002 C 
ATOM     32  C   UNL     1      -0.427  -8.273   2.164  0.00  0.00    +0.002 C 
ATOM     33  C   UNL     1       0.771  -7.301   2.164  0.00  0.00    +0.022 C 
ENDBRANCH  27  29
ENDBRANCH  10  25
TORSDOF 4
