REMARK  Name = ZINC33293264
REMARK  3 active torsions:
REMARK  status: ('A' for Active; 'I' for Inactive)
REMARK    1  A    between atoms: C_6  and  C_7
REMARK    2  A    between atoms: N_8  and  N_9
REMARK    3  A    between atoms: C_10  and  C_12
REMARK                            x       y       z     vdW  Elec       q    Type
REMARK                         _______ _______ _______ _____ _____    ______ ____
ROOT
ATOM      1  N   UNL     1      -4.184   2.126   4.367  0.00  0.00    -0.202 N 
ATOM      2  C   UNL     1      -3.150   2.142   3.503  0.00  0.00    +0.284 C 
ATOM      3  O   UNL     1      -2.020   1.934   3.902  0.00  0.00    -0.267 OA
ATOM      4  H   UNL     1      -5.206   2.314   4.005  0.00  0.00    +0.178 HD
ENDROOT
BRANCH   2   5
ATOM      5  C   UNL     1      -3.388   2.414   2.071  0.00  0.00    +0.152 A 
ATOM      6  C   UNL     1      -2.420   2.463   1.054  0.00  0.00    +0.005 A 
ATOM      7  C   UNL     1      -3.095   2.743  -0.089  0.00  0.00    +0.040 A 
ATOM      8  N   UNL     1      -4.394   2.850   0.233  0.00  0.00    -0.281 N 
ATOM      9  H   UNL     1      -5.138   3.074  -0.547  0.00  0.00    +0.189 HD
ATOM     10  N   UNL     1      -4.554   2.657   1.496  0.00  0.00    -0.169 NA
ATOM     11  C   UNL     1      -2.438   2.891  -1.437  0.00  0.00    +0.055 C 
ATOM     12  C   UNL     1      -0.933   3.092  -1.221  0.00  0.00    +0.006 C 
ATOM     13  C   UNL     1      -0.399   2.010  -0.278  0.00  0.00    +0.005 C 
ATOM     14  C   UNL     1      -0.933   2.257   1.139  0.00  0.00    +0.039 C 
ENDBRANCH   2   5
BRANCH   1  16
ATOM     15  C   UNL     1      -4.962   1.735   6.536  0.00  0.00    +0.138 C 
ATOM     16  N   UNL     1      -3.958   1.868   5.725  0.00  0.00    -0.187 NA
BRANCH  15  22
ATOM     17  C   UNL     1      -7.424   1.502   6.821  0.00  0.00    +0.010 A 
ATOM     18  C   UNL     1      -8.666   1.172   6.322  0.00  0.00    +0.016 A 
ATOM     19  C   UNL     1      -8.793   0.711   5.022  0.00  0.00    +0.018 A 
ATOM     20  C   UNL     1      -7.675   0.583   4.214  0.00  0.00    +0.016 A 
ATOM     21  C   UNL     1      -6.428   0.914   4.700  0.00  0.00    +0.010 A 
ATOM     22  C   UNL     1      -6.293   1.380   6.010  0.00  0.00    -0.005 A 
ATOM     23 BR   UNL     1     -10.499   0.254   4.347  0.00  0.00    -0.050 Br
ENDBRANCH  15  22
ENDBRANCH   1  16
TORSDOF 3
