REMARK  Name = ZINC63844172
REMARK  7 active torsions:
REMARK  status: ('A' for Active; 'I' for Inactive)
REMARK    1  A    between atoms: C_1  and  C_2
REMARK    2  A    between atoms: C_2  and  C_4
REMARK    3  A    between atoms: C_2  and  N_9
REMARK    4  A    between atoms: C_10  and  C_12
REMARK    5  A    between atoms: C_12  and  N_13
REMARK    6  A    between atoms: C_16  and  C_21
REMARK    7  A    between atoms: C_21  and  C_22
REMARK                            x       y       z     vdW  Elec       q    Type
REMARK                         _______ _______ _______ _____ _____    ______ ____
ROOT
ATOM      1  N   UNL     1      -3.929  -1.240   2.572  0.00  0.00    -0.216 N 
ATOM      2  C   UNL     1      -3.791  -2.314   3.375  0.00  0.00    +0.244 C 
ATOM      3  O   UNL     1      -3.260  -3.369   3.102  0.00  0.00    -0.273 OA
ATOM      4  C   UNL     1      -4.436  -1.927   4.691  0.00  0.00    +0.165 C 
ATOM      5  N   UNL     1      -4.907  -0.551   4.455  0.00  0.00    -0.287 N 
ATOM      6  C   UNL     1      -4.561  -0.238   3.193  0.00  0.00    +0.310 C 
ATOM      7  O   UNL     1      -4.799   0.835   2.674  0.00  0.00    -0.252 OA
ATOM      8  H   UNL     1      -5.373   0.018   5.086  0.00  0.00    +0.151 HD
ENDROOT
BRANCH   1   9
ATOM      9  C   UNL     1      -3.442  -1.177   1.191  0.00  0.00    +0.213 C 
BRANCH   9  11
ATOM     10  N   UNL     1      -1.372  -0.511   0.012  0.00  0.00    -0.307 N 
ATOM     11  C   UNL     1      -2.029  -0.655   1.181  0.00  0.00    +0.231 C 
ATOM     12  O   UNL     1      -1.481  -0.365   2.224  0.00  0.00    -0.274 OA
ATOM     13  H   UNL     1      -1.810  -0.743  -0.822  0.00  0.00    +0.149 HD
BRANCH  10  15
ATOM     14  C   UNL     1      -0.019   1.526   0.010  0.00  0.00    +0.033 C 
ATOM     15  C   UNL     1       0.002  -0.004   0.002  0.00  0.00    +0.107 C 
BRANCH  15  16
ATOM     16  C   UNL     1       0.707  -0.490  -1.238  0.00  0.00    +0.010 A 
ATOM     17  C   UNL     1       1.980  -0.934  -1.377  0.00  0.00    +0.013 A 
ATOM     18  C   UNL     1       2.418  -1.335  -2.625  0.00  0.00    +0.008 A 
ATOM     19  C   UNL     1       1.561  -1.273  -3.674  0.00  0.00    +0.045 A 
ATOM     20  S   UNL     1       0.081  -0.638  -2.903  0.00  0.00    -0.100 S 
ENDBRANCH  15  16
ENDBRANCH  10  15
ENDBRANCH   9  11
ENDBRANCH   1   9
BRANCH   4  21
ATOM     21  C   UNL     1      -3.408  -1.960   5.824  0.00  0.00    +0.065 C 
BRANCH  21  22
ATOM     22  C   UNL     1      -4.099  -1.693   7.136  0.00  0.00    -0.039 C 
ATOM     23  C   UNL     1      -4.556  -2.612   8.017  0.00  0.00    -0.001 A 
ATOM     24  C   UNL     1      -4.549  -4.080   8.016  0.00  0.00    +0.010 A 
ATOM     25  C   UNL     1      -5.095  -4.739   9.063  0.00  0.00    +0.001 A 
ATOM     26  C   UNL     1      -5.668  -4.058  10.145  0.00  0.00    +0.002 A 
ATOM     27  C   UNL     1      -5.712  -2.710  10.218  0.00  0.00    +0.026 A 
ATOM     28  C   UNL     1      -5.166  -1.916   9.172  0.00  0.00    +0.043 A 
ATOM     29  N   UNL     1      -5.089  -0.617   9.012  0.00  0.00    -0.380 N 
ATOM     30  C   UNL     1      -4.415  -0.342   7.739  0.00  0.00    +0.144 C 
ATOM     31  H   UNL     1      -5.419   0.051   9.634  0.00  0.00    +0.160 HD
ENDBRANCH  21  22
ENDBRANCH   4  21
TORSDOF 6
