REMARK  Name = ZINC09010460
REMARK  6 active torsions:
REMARK  status: ('A' for Active; 'I' for Inactive)
REMARK    1  A    between atoms: C_1  and  C_2
REMARK    2  A    between atoms: C_9  and  N_33
REMARK    3  A    between atoms: C_10  and  C_31
REMARK    4  A    between atoms: C_11  and  C_13
REMARK    5  A    between atoms: N_15  and  C_22
REMARK    6  A    between atoms: C_22  and  C_23
REMARK                            x       y       z     vdW  Elec       q    Type
REMARK                         _______ _______ _______ _____ _____    ______ ____
ROOT
ATOM      1  C   UNL     1      -1.657   4.876  -1.314  0.00  0.00    -0.009 A 
ATOM      2  C   UNL     1      -1.982   4.309  -2.487  0.00  0.00    +0.091 A 
ATOM      3  N   UNL     1      -1.870   5.227  -3.496  0.00  0.00    -0.342 N 
ATOM      4  C   UNL     1      -1.458   6.437  -2.984  0.00  0.00    +0.050 A 
ATOM      5  C   UNL     1      -1.312   6.272  -1.594  0.00  0.00    +0.004 A 
ATOM      6  C   UNL     1      -0.905   7.348  -0.804  0.00  0.00    +0.010 A 
ATOM      7  C   UNL     1      -0.654   8.559  -1.385  0.00  0.00    +0.001 A 
ATOM      8  C   UNL     1      -0.800   8.728  -2.754  0.00  0.00    +0.002 A 
ATOM      9  C   UNL     1      -1.193   7.677  -3.554  0.00  0.00    +0.026 A 
ENDROOT
BRANCH   1  20
ATOM     10  C   UNL     1       1.575   4.278   0.007  0.00  0.00    +0.068 C 
ATOM     11  C   UNL     1       0.697   3.052   0.010  0.00  0.00    +0.068 A 
ATOM     12  C   UNL     1      -0.691   3.044   0.023  0.00  0.00    +0.049 A 
ATOM     13  C   UNL     1      -1.107   1.742   0.016  0.00  0.00    +0.222 A 
ATOM     14  N   UNL     1      -0.011   0.966   0.007  0.00  0.00    -0.246 N 
ATOM     15  H   UNL     1       0.003  -0.034   0.006  0.00  0.00    +0.192 HD
ATOM     16  N   UNL     1       1.112   1.808   0.001  0.00  0.00    -0.176 NA
ATOM     17  O   UNL     1      -2.417   1.391   0.033  0.00  0.00    -0.423 OA
ATOM     18  C   UNL     1      -3.318   2.352   0.324  0.00  0.00    +0.200 C 
ATOM     19  C   UNL     1      -3.029   3.672   0.344  0.00  0.00    +0.098 C 
ATOM     20  C   UNL     1      -1.652   4.204   0.035  0.00  0.00    +0.103 C 
BRANCH  18  21
ATOM     21  N   UNL     1      -4.603   1.966   0.615  0.00  0.00    -0.328 N 
ATOM     22  H   UNL     1      -5.273   2.635   0.827  0.00  0.00    +0.145 HD
ATOM     23  H   UNL     1      -4.840   1.026   0.609  0.00  0.00    +0.145 HD
ENDBRANCH  18  21
BRANCH  19  24
ATOM     24  C   UNL     1      -4.070   4.600   0.671  0.00  0.00    +0.101 C 
ATOM     25  N   UNL     1      -4.895   5.336   0.931  0.00  0.00    -0.191 NA
ENDBRANCH  19  24
ENDBRANCH   1  20
BRANCH   3  26
ATOM     26  C   UNL     1      -2.145   4.961  -4.910  0.00  0.00    +0.161 C 
BRANCH  26  27
ATOM     27  C   UNL     1      -0.860   4.609  -5.614  0.00  0.00    +0.026 A 
ATOM     28  C   UNL     1      -0.094   5.605  -6.196  0.00  0.00    +0.130 A 
ATOM     29  C   UNL     1       1.089   5.281  -6.838  0.00  0.00    +0.039 A 
ATOM     30  C   UNL     1       1.499   3.963  -6.908  0.00  0.00    +0.004 A 
ATOM     31  C   UNL     1       0.732   2.968  -6.332  0.00  0.00    +0.020 A 
ATOM     32  C   UNL     1      -0.449   3.291  -5.685  0.00  0.00    +0.049 A 
ATOM     33 CL   UNL     1      -1.412   2.040  -4.963  0.00  0.00    -0.083 Cl
ATOM     34  F   UNL     1      -0.498   6.893  -6.132  0.00  0.00    -0.205 F 
ENDBRANCH  26  27
ENDBRANCH   3  26
TORSDOF 5
