REMARK  Name = ZINC21368425
REMARK  10 active torsions:
REMARK  status: ('A' for Active; 'I' for Inactive)
REMARK    1  A    between atoms: C_1  and  C_2
REMARK    2  A    between atoms: C_2  and  C_4
REMARK    3  A    between atoms: C_2  and  N_14
REMARK    4  A    between atoms: C_15  and  C_17
REMARK    5  A    between atoms: C_17  and  S_18
REMARK    6  A    between atoms: S_18  and  C_19
REMARK    7  A    between atoms: C_22  and  C_25
REMARK    8  A    between atoms: N_23  and  N_24
REMARK    9  A    between atoms: C_28  and  O_31
REMARK   10  A    between atoms: O_31  and  C_32
REMARK                            x       y       z     vdW  Elec       q    Type
REMARK                         _______ _______ _______ _____ _____    ______ ____
ROOT
ATOM      1  S   UNL     1       8.560   4.496  -3.298  0.00  0.00    -0.075 S 
ENDROOT
BRANCH   1   2
ATOM      2  C   UNL     1       9.800   3.581  -4.152  0.00  0.00    +0.209 A 
ATOM      3  N   UNL     1       9.766   2.299  -4.438  0.00  0.00    -0.121 NA
ATOM      4  N   UNL     1      10.832   1.959  -5.069  0.00  0.00    -0.127 NA
ATOM      5  C   UNL     1      11.617   3.001  -5.218  0.00  0.00    +0.182 A 
ATOM      6  N   UNL     1      10.980   4.072  -4.635  0.00  0.00    -0.224 N 
BRANCH   5   7
ATOM      7  C   UNL     1      12.936   3.019  -5.885  0.00  0.00    +0.021 A 
ATOM      8  C   UNL     1      13.308   1.971  -6.729  0.00  0.00    +0.015 A 
ATOM      9  C   UNL     1      14.537   1.994  -7.353  0.00  0.00    +0.046 A 
ATOM     10  C   UNL     1      15.408   3.053  -7.136  0.00  0.00    +0.127 A 
ATOM     11  C   UNL     1      15.044   4.095  -6.293  0.00  0.00    +0.046 A 
ATOM     12  C   UNL     1      13.815   4.082  -5.669  0.00  0.00    +0.015 A 
BRANCH  10  13
ATOM     13  O   UNL     1      16.621   3.069  -7.749  0.00  0.00    -0.434 OA
BRANCH  13  14
ATOM     14  C   UNL     1      16.931   1.966  -8.602  0.00  0.00    +0.541 C 
ATOM     15  F   UNL     1      16.901   0.780  -7.861  0.00  0.00    -0.166 F 
ATOM     16  F   UNL     1      15.989   1.895  -9.634  0.00  0.00    -0.166 F 
ENDBRANCH  13  14
ENDBRANCH  10  13
ENDBRANCH   5   7
BRANCH   6  17
ATOM     17  N   UNL     1      11.433   5.358  -4.556  0.00  0.00    -0.295 N 
ATOM     18  H   UNL     1      12.409   5.625  -4.989  0.00  0.00    +0.163 HD
ATOM     19  H   UNL     1      10.823   6.127  -4.060  0.00  0.00    +0.163 HD
ENDBRANCH   6  17
ENDBRANCH   1   2
BRANCH   1  20
ATOM     20  C   UNL     1       7.351   3.182  -2.999  0.00  0.00    +0.173 C 
BRANCH  20  22
ATOM     21  N   UNL     1       5.135   2.947  -1.925  0.00  0.00    -0.308 N 
ATOM     22  C   UNL     1       6.167   3.748  -2.258  0.00  0.00    +0.224 C 
ATOM     23  O   UNL     1       6.143   4.923  -1.961  0.00  0.00    -0.275 OA
ATOM     24  H   UNL     1       5.157   1.881  -2.194  0.00  0.00    +0.149 HD
BRANCH  21  26
ATOM     25  C   UNL     1       4.276   3.500   0.297  0.00  0.00    +0.033 C 
ATOM     26  C   UNL     1       3.984   3.497  -1.205  0.00  0.00    +0.100 C 
BRANCH  26  27
ATOM     27  C   UNL     1       2.768   2.650  -1.479  0.00  0.00    -0.027 A 
ATOM     28  C   UNL     1       2.896   1.263  -1.532  0.00  0.00    +0.006 A 
ATOM     29  C   UNL     1       1.818   0.469  -1.778  0.00  0.00    +0.009 A 
ATOM     30  C   UNL     1       0.556   1.053  -1.981  0.00  0.00    -0.018 A 
ATOM     31  C   UNL     1      -0.580   0.266  -2.237  0.00  0.00    +0.008 A 
ATOM     32  C   UNL     1      -1.785   0.867  -2.434  0.00  0.00    +0.001 A 
ATOM     33  C   UNL     1      -1.913   2.253  -2.375  0.00  0.00    +0.001 A 
ATOM     34  C   UNL     1      -0.836   3.047  -2.130  0.00  0.00    +0.008 A 
ATOM     35  C   UNL     1       0.426   2.463  -1.927  0.00  0.00    -0.018 A 
ATOM     36  C   UNL     1       1.562   3.250  -1.671  0.00  0.00    +0.014 A 
ENDBRANCH  26  27
ENDBRANCH  21  26
ENDBRANCH  20  22
ENDBRANCH   1  20
TORSDOF 9
