REMARK  Name = ZINC63270974
REMARK  7 active torsions:
REMARK  status: ('A' for Active; 'I' for Inactive)
REMARK    1  A    between atoms: C_7  and  C_10
REMARK    2  A    between atoms: C_10  and  C_11
REMARK    3  A    between atoms: C_11  and  N_12
REMARK    4  A    between atoms: C_13  and  C_15
REMARK    5  A    between atoms: C_15  and  C_16
REMARK    6  A    between atoms: C_16  and  C_17
REMARK    7  A    between atoms: C_17  and  N_18
REMARK                            x       y       z     vdW  Elec       q    Type
REMARK                         _______ _______ _______ _____ _____    ______ ____
ROOT
ATOM      1  C   UNL     1      -2.942  -8.219  -4.058  0.00  0.00    +0.106 C 
ENDROOT
BRANCH   1   2
ATOM      2  N   UNL     1      -3.164  -8.669  -5.435  0.00  0.00    -0.299 N 
ATOM      3  C   UNL     1      -3.978  -9.715  -5.679  0.00  0.00    +0.302 C 
ATOM      4  O   UNL     1      -4.455 -10.343  -4.753  0.00  0.00    -0.253 OA
ATOM      5  N   UNL     1      -4.264 -10.064  -6.949  0.00  0.00    -0.284 N 
ATOM      6  C   UNL     1      -3.597  -9.375  -8.056  0.00  0.00    +0.110 C 
ATOM      7  C   UNL     1      -4.613  -8.966  -9.142  0.00  0.00    +0.025 C 
ATOM      8  C   UNL     1      -5.395 -10.221  -9.495  0.00  0.00    +0.029 C 
ATOM      9  C   UNL     1      -6.221 -10.581  -8.221  0.00  0.00    +0.127 C 
ATOM     10  C   UNL     1      -5.244 -11.143  -7.207  0.00  0.00    +0.136 C 
ATOM     11  N   UNL     1      -7.287 -11.424  -8.724  0.00  0.00    -0.282 NA
ATOM     12  C   UNL     1      -7.526 -11.139  -9.973  0.00  0.00    +0.043 C 
ATOM     13  C   UNL     1      -6.549 -10.056 -10.478  0.00  0.00    +0.066 C 
ATOM     14  C   UNL     1      -6.165 -10.359 -11.893  0.00  0.00    +0.003 C 
ATOM     15  C   UNL     1      -6.926 -11.128 -12.667  0.00  0.00    +0.038 C 
ATOM     16  C   UNL     1      -8.172 -11.729 -12.195  0.00  0.00    +0.021 C 
ATOM     17  C   UNL     1      -8.483 -11.735 -10.835  0.00  0.00    +0.025 C 
ATOM     18 CL   UNL     1      -6.421 -11.429 -14.300  0.00  0.00    -0.084 Cl
ATOM     19  H   UNL     1      -2.724  -8.215  -6.170  0.00  0.00    +0.150 HD
ENDBRANCH   1   2
BRANCH   1  20
ATOM     20  C   UNL     1      -1.984  -7.026  -4.060  0.00  0.00    +0.028 C 
BRANCH  20  21
ATOM     21  C   UNL     1      -1.753  -6.556  -2.622  0.00  0.00    +0.097 C 
BRANCH  21  23
ATOM     22  N   UNL     1      -0.458  -4.797  -1.461  0.00  0.00    -0.315 N 
ATOM     23  C   UNL     1      -0.809  -5.381  -2.624  0.00  0.00    +0.213 C 
ATOM     24  O   UNL     1      -0.366  -4.961  -3.671  0.00  0.00    -0.276 OA
ATOM     25  H   UNL     1      -0.813  -5.133  -0.623  0.00  0.00    +0.149 HD
BRANCH  22  26
ATOM     26  C   UNL     1       0.459  -3.655  -1.462  0.00  0.00    +0.108 C 
BRANCH  26  27
ATOM     27  C   UNL     1       0.690  -3.184  -0.025  0.00  0.00    +0.052 C 
BRANCH  27  34
ATOM     28  C   UNL     1      -0.007   1.351  -0.002  0.00  0.00    +0.001 A 
ATOM     29  C   UNL     1       1.176   2.102  -0.007  0.00  0.00    +0.002 A 
ATOM     30  C   UNL     1       2.400   1.533  -0.018  0.00  0.00    +0.026 A 
ATOM     31  C   UNL     1       2.535   0.117  -0.025  0.00  0.00    +0.043 A 
ATOM     32  N   UNL     1       3.592  -0.659  -0.036  0.00  0.00    -0.380 N 
ATOM     33  C   UNL     1       3.145  -2.057  -0.038  0.00  0.00    +0.144 C 
ATOM     34  C   UNL     1       1.634  -2.009  -0.027  0.00  0.00    -0.040 C 
ATOM     35  C   UNL     1       1.300  -0.699  -0.019  0.00  0.00    -0.001 A 
ATOM     36  C   UNL     1       0.008  -0.002  -0.006  0.00  0.00    +0.010 A 
ATOM     37  H   UNL     1       4.514  -0.359  -0.042  0.00  0.00    +0.160 HD
ENDBRANCH  27  34
ENDBRANCH  26  27
ENDBRANCH  22  26
ENDBRANCH  21  23
ENDBRANCH  20  21
ENDBRANCH   1  20
TORSDOF 7
