REMARK  Name = ZINC08687883
REMARK  14 active torsions:
REMARK  status: ('A' for Active; 'I' for Inactive)
REMARK    1  A    between atoms: C_1  and  C_2
REMARK    2  A    between atoms: C_2  and  C_3
REMARK    3  A    between atoms: C_2  and  C_4
REMARK    4  A    between atoms: C_4  and  N_5
REMARK    5  A    between atoms: C_6  and  N_34
REMARK    6  A    between atoms: C_7  and  N_14
REMARK    7  A    between atoms: N_14  and  C_15
REMARK    8  A    between atoms: C_15  and  C_16
REMARK    9  A    between atoms: C_16  and  C_17
REMARK   10  A    between atoms: C_16  and  C_18
REMARK   11  A    between atoms: C_19  and  C_21
REMARK   12  A    between atoms: C_21  and  N_70
REMARK   13  A    between atoms: N_24  and  C_27
REMARK   14  A    between atoms: C_30  and  O_33
REMARK                            x       y       z     vdW  Elec       q    Type
REMARK                         _______ _______ _______ _____ _____    ______ ____
ROOT
ATOM      1  N   UNL     1       5.181  -0.293   3.499  0.00  0.00    -0.266 N 
ATOM      2  C   UNL     1       4.246   0.270   2.705  0.00  0.00    +0.203 C 
ATOM      3  O   UNL     1       4.515   1.261   2.060  0.00  0.00    -0.277 OA
ENDROOT
BRANCH   1   6
ATOM      4  N   UNL     1       8.495   1.118   2.776  0.00  0.00    -0.280 N 
ATOM      5  C   UNL     1       7.278   0.506   2.585  0.00  0.00    +0.127 A 
ATOM      6  C   UNL     1       6.435   0.331   3.663  0.00  0.00    +0.140 A 
ATOM      7  C   UNL     1       6.846   0.791   4.928  0.00  0.00    +0.277 A 
ATOM      8  O   UNL     1       6.119   0.653   5.898  0.00  0.00    -0.266 OA
ATOM      9  N   UNL     1       8.051   1.379   5.063  0.00  0.00    -0.273 N 
ATOM     10  H   UNL     1       8.348   1.699   5.963  0.00  0.00    +0.173 HD
ATOM     11  C   UNL     1       8.859   1.542   4.000  0.00  0.00    +0.331 A 
ATOM     12  O   UNL     1       9.940   2.080   4.149  0.00  0.00    -0.246 OA
BRANCH   5  13
ATOM     13  N   UNL     1       6.907   0.074   1.335  0.00  0.00    -0.343 N 
ATOM     14  H   UNL     1       6.033  -0.325   1.199  0.00  0.00    +0.144 HD
ATOM     15  H   UNL     1       7.518   0.167   0.587  0.00  0.00    +0.144 HD
ENDBRANCH   5  13
BRANCH   4  16
ATOM     16  C   UNL     1       9.400   1.311   1.640  0.00  0.00    +0.131 C 
BRANCH  16  18
ATOM     17  C   UNL     1       9.445   3.789   1.960  0.00  0.00    +0.009 C 
ATOM     18  C   UNL     1       9.111   2.662   0.981  0.00  0.00    +0.003 C 
ATOM     19  C   UNL     1       9.968   2.809  -0.278  0.00  0.00    +0.009 C 
ENDBRANCH  16  18
ENDBRANCH   4  16
ENDBRANCH   1   6
BRANCH   1  20
ATOM     20  C   UNL     1       4.892  -1.552   4.191  0.00  0.00    +0.117 C 
BRANCH  20  21
ATOM     21  C   UNL     1       5.177  -2.726   3.253  0.00  0.00    +0.001 C 
ATOM     22  C   UNL     1       6.678  -2.795   2.962  0.00  0.00    +0.009 C 
ATOM     23  C   UNL     1       4.725  -4.029   3.915  0.00  0.00    +0.009 C 
ENDBRANCH  20  21
ENDBRANCH   1  20
BRANCH   2  24
ATOM     24  C   UNL     1       2.867  -0.333   2.620  0.00  0.00    +0.019 C 
BRANCH  24  30
ATOM     25  C   UNL     1       2.639   0.143   0.257  0.00  0.00    -0.059 C 
ATOM     26  C   UNL     1       1.847   0.959  -0.767  0.00  0.00    +0.086 C 
ATOM     27  N   UNL     1       0.431   0.570  -0.710  0.00  0.00    -0.333 N 
ATOM     28  C   UNL     1      -0.123   0.803   0.631  0.00  0.00    +0.086 C 
ATOM     29  C   UNL     1       0.669  -0.014   1.655  0.00  0.00    -0.059 C 
ATOM     30  N   UNL     1       2.087   0.403   1.603  0.00  0.00    +0.387 N 
ATOM     31  H   UNL     1       2.146   1.409   1.800  0.00  0.00    -0.081 HD
BRANCH  27  32
ATOM     32  C   UNL     1      -0.314   1.245  -1.684  0.00  0.00    +0.030 A 
ATOM     33  C   UNL     1       0.310   2.148  -2.535  0.00  0.00    +0.026 A 
ATOM     34  C   UNL     1      -0.425   2.809  -3.499  0.00  0.00    +0.047 A 
ATOM     35  C   UNL     1      -1.788   2.581  -3.610  0.00  0.00    +0.117 A 
ATOM     36  C   UNL     1      -2.414   1.683  -2.757  0.00  0.00    +0.047 A 
ATOM     37  C   UNL     1      -1.679   1.017  -1.796  0.00  0.00    +0.026 A 
BRANCH  35  38
ATOM     38  O   UNL     1      -2.513   3.237  -4.556  0.00  0.00    -0.507 OA
ATOM     39  H   UNL     1      -2.878   4.080  -4.256  0.00  0.00    +0.292 HD
ENDBRANCH  35  38
ENDBRANCH  27  32
ENDBRANCH  24  30
ENDBRANCH   2  24
TORSDOF 10
