REMARK  Name = ZINC40450521
REMARK  3 active torsions:
REMARK  status: ('A' for Active; 'I' for Inactive)
REMARK    1  A    between atoms: N_15  and  S_17
REMARK    2  A    between atoms: S_17  and  C_20
REMARK    3  A    between atoms: C_30  and  C_32
REMARK                            x       y       z     vdW  Elec       q    Type
REMARK                         _______ _______ _______ _____ _____    ______ ____
ROOT
ATOM      1  S   UNL     1       3.264   0.536  -3.450  0.00  0.00    +0.062 S 
ATOM      2  O   UNL     1       3.244  -0.884  -3.508  0.00  0.00    -0.153 OA
ATOM      3  O   UNL     1       2.076   1.312  -3.369  0.00  0.00    -0.153 OA
ENDROOT
BRANCH   1  16
ATOM      4  C   UNL     1       0.066   1.601   0.021  0.00  0.00    +0.007 A 
ATOM      5  C   UNL     1       1.330   2.201   0.009  0.00  0.00    +0.022 A 
ATOM      6  C   UNL     1       2.457   1.441   0.022  0.00  0.00    +0.026 A 
ATOM      7  N   UNL     1       2.373   0.093   0.105  0.00  0.00    -0.312 N 
ATOM      8  C   UNL     1       1.165  -0.516   0.017  0.00  0.00    +0.251 A 
ATOM      9  O   UNL     1       1.105  -1.732  -0.059  0.00  0.00    -0.268 OA
ATOM     10  C   UNL     1      -0.017   0.239   0.014  0.00  0.00    +0.070 A 
ATOM     11  C   UNL     1       3.532  -0.766   0.347  0.00  0.00    +0.130 C 
ATOM     12  C   UNL     1       4.841  -0.085  -0.006  0.00  0.00    +0.025 C 
ATOM     13  C   UNL     1       4.874   1.321   0.595  0.00  0.00    +0.017 C 
ATOM     14  C   UNL     1       3.782   2.159  -0.075  0.00  0.00    +0.052 C 
ATOM     15  C   UNL     1       4.129   2.299  -1.568  0.00  0.00    +0.119 C 
ATOM     16  N   UNL     1       4.185   0.942  -2.135  0.00  0.00    -0.176 NA
ATOM     17  C   UNL     1       5.067  -0.027  -1.510  0.00  0.00    +0.114 C 
ENDBRANCH   1  16
BRANCH   1  18
ATOM     18  C   UNL     1       4.129   1.087  -4.882  0.00  0.00    +0.121 A 
ATOM     19  C   UNL     1       3.610   2.109  -5.648  0.00  0.00    +0.053 A 
ATOM     20  C   UNL     1       4.288   2.552  -6.784  0.00  0.00    +0.041 A 
ATOM     21  C   UNL     1       5.488   1.950  -7.130  0.00  0.00    -0.023 A 
ATOM     22  C   UNL     1       6.005   0.926  -6.361  0.00  0.00    +0.022 A 
ATOM     23  C   UNL     1       5.330   0.496  -5.232  0.00  0.00    +0.045 A 
ATOM     24 BR   UNL     1       6.043  -0.901  -4.176  0.00  0.00    -0.048 Br
ATOM     25  C   UNL     1       6.012   2.608  -8.387  0.00  0.00    +0.056 C 
ATOM     26  C   UNL     1       4.961   3.676  -8.732  0.00  0.00    +0.118 C 
ATOM     27  N   UNL     1       3.940   3.563  -7.687  0.00  0.00    -0.271 N 
ATOM     28  C   UNL     1       2.829   4.321  -7.606  0.00  0.00    +0.223 C 
ATOM     29  O   UNL     1       2.042   4.150  -6.699  0.00  0.00    -0.275 OA
BRANCH  28  30
ATOM     30  C   UNL     1       2.564   5.382  -8.644  0.00  0.00    +0.076 C 
ATOM     31  C   UNL     1       2.645   6.843  -8.197  0.00  0.00    +0.013 C 
ATOM     32  C   UNL     1       1.286   6.210  -8.497  0.00  0.00    +0.013 C 
ENDBRANCH  28  30
ENDBRANCH   1  18
TORSDOF 3
