REMARK  Name = ZINC03165454
REMARK  9 active torsions:
REMARK  status: ('A' for Active; 'I' for Inactive)
REMARK    1  A    between atoms: C_1  and  C_2
REMARK    2  A    between atoms: C_8  and  C_16
REMARK    3  A    between atoms: C_16  and  O_18
REMARK    4  A    between atoms: O_18  and  C_19
REMARK    5  A    between atoms: C_19  and  C_21
REMARK    6  A    between atoms: C_19  and  C_22
REMARK    7  A    between atoms: N_24  and  C_25
REMARK    8  A    between atoms: C_28  and  S_31
REMARK    9  A    between atoms: S_31  and  N_34
REMARK                            x       y       z     vdW  Elec       q    Type
REMARK                         _______ _______ _______ _____ _____    ______ ____
ROOT
ATOM      1  O   UNL     1       0.120  -1.469   2.307  0.00  0.00    -0.449 OA
ENDROOT
BRANCH   1   2
ATOM      2  C   UNL     1       0.552  -0.204   2.477  0.00  0.00    +0.341 C 
ATOM      3  O   UNL     1       1.733   0.015   2.657  0.00  0.00    -0.245 OA
BRANCH   2  10
ATOM      4  C   UNL     1       0.066   1.273  -2.492  0.00  0.00    +0.008 C 
ATOM      5  C   UNL     1      -0.766   1.575  -1.244  0.00  0.00    -0.009 C 
ATOM      6  C   UNL     1      -0.969   3.089  -1.112  0.00  0.00    +0.010 C 
ATOM      7  C   UNL     1      -2.001   3.345  -0.016  0.00  0.00    +0.056 C 
ATOM      8  C   UNL     1      -1.625   2.612   1.248  0.00  0.00    +0.046 A 
ATOM      9  C   UNL     1      -0.716   1.563   1.248  0.00  0.00    -0.011 A 
ATOM     10  C   UNL     1      -0.411   0.917   2.445  0.00  0.00    +0.073 A 
ATOM     11  C   UNL     1      -1.046   1.362   3.630  0.00  0.00    +0.015 A 
ATOM     12  C   UNL     1      -0.792   0.763   4.870  0.00  0.00    +0.011 A 
ATOM     13  C   UNL     1      -1.426   1.225   5.984  0.00  0.00    +0.001 A 
ATOM     14  C   UNL     1      -2.326   2.287   5.904  0.00  0.00    +0.002 A 
ATOM     15  C   UNL     1      -2.596   2.891   4.716  0.00  0.00    +0.028 A 
ATOM     16  C   UNL     1      -1.960   2.441   3.543  0.00  0.00    +0.072 A 
ATOM     17  N   UNL     1      -2.202   3.010   2.366  0.00  0.00    -0.251 NA
ATOM     18  C   UNL     1      -0.029   1.079  -0.001  0.00  0.00    +0.041 C 
ENDBRANCH   2  10
ENDBRANCH   1   2
BRANCH   1  19
ATOM     19  C   UNL     1       1.121  -2.519   2.351  0.00  0.00    +0.259 C 
ATOM     20  C   UNL     1       1.280  -3.014   3.790  0.00  0.00    +0.062 C 
BRANCH  19  21
ATOM     21  C   UNL     1       0.687  -3.664   1.472  0.00  0.00    +0.258 C 
ATOM     22  O   UNL     1      -0.363  -3.600   0.868  0.00  0.00    -0.271 OA
ATOM     23  N   UNL     1       1.466  -4.758   1.356  0.00  0.00    -0.282 N 
ATOM     24  H   UNL     1       2.336  -4.781   1.785  0.00  0.00    +0.155 HD
BRANCH  23  25
ATOM     25  C   UNL     1       1.019  -5.859   0.618  0.00  0.00    +0.034 A 
ATOM     26  C   UNL     1       1.351  -7.147   1.020  0.00  0.00    +0.025 A 
ATOM     27  C   UNL     1       0.904  -8.232   0.293  0.00  0.00    +0.030 A 
ATOM     28  C   UNL     1       0.136  -8.038  -0.841  0.00  0.00    +0.105 A 
ATOM     29  C   UNL     1      -0.191  -6.758  -1.247  0.00  0.00    +0.030 A 
ATOM     30  C   UNL     1       0.248  -5.668  -0.520  0.00  0.00    +0.025 A 
BRANCH  28  31
ATOM     31  S   UNL     1      -0.427  -9.426  -1.770  0.00  0.00    +0.056 S 
ATOM     32  O   UNL     1      -0.445 -10.531  -0.877  0.00  0.00    -0.153 OA
ATOM     33  O   UNL     1      -1.583  -8.999  -2.477  0.00  0.00    -0.153 OA
BRANCH  31  34
ATOM     34  N   UNL     1       0.730  -9.755  -2.908  0.00  0.00    -0.204 NA
ATOM     35  H   UNL     1       0.860 -10.664  -3.218  0.00  0.00    +0.144 HD
ATOM     36  H   UNL     1       1.277  -9.037  -3.264  0.00  0.00    +0.144 HD
ENDBRANCH  31  34
ENDBRANCH  28  31
ENDBRANCH  23  25
ENDBRANCH  19  21
ENDBRANCH   1  19
TORSDOF 7
