REMARK  Name = ZINC01110370
REMARK  10 active torsions:
REMARK  status: ('A' for Active; 'I' for Inactive)
REMARK    1  A    between atoms: C_1  and  C_2
REMARK    2  A    between atoms: C_3  and  C_28
REMARK    3  A    between atoms: C_4  and  C_12
REMARK    4  A    between atoms: C_6  and  C_10
REMARK    5  A    between atoms: C_7  and  N_9
REMARK    6  A    between atoms: C_17  and  O_18
REMARK    7  A    between atoms: O_18  and  C_19
REMARK    8  A    between atoms: C_19  and  C_20
REMARK    9  A    between atoms: C_28  and  O_30
REMARK   10  A    between atoms: O_30  and  C_31
REMARK                            x       y       z     vdW  Elec       q    Type
REMARK                         _______ _______ _______ _____ _____    ______ ____
ROOT
ATOM      1  C   UNL     1      -0.021   1.050   0.018  0.00  0.00    +0.087 C 
ATOM      2  C   UNL     1      -0.722   1.555   1.252  0.00  0.00    +0.115 C 
ATOM      3  C   UNL     1      -0.019   1.694   2.383  0.00  0.00    +0.087 C 
ATOM      4  C   UNL     1      -0.668   2.193   3.646  0.00  0.00    +0.108 C 
ATOM      5  C   UNL     1      -2.164   2.092   3.523  0.00  0.00    +0.098 C 
ATOM      6  C   UNL     1      -2.750   1.927   2.312  0.00  0.00    +0.198 C 
ATOM      7  O   UNL     1      -2.027   1.854   1.179  0.00  0.00    -0.445 OA
ENDROOT
BRANCH   4   8
ATOM      8  C   UNL     1      -0.280   3.631   3.874  0.00  0.00    +0.008 A 
ATOM      9  C   UNL     1      -0.598   4.591   2.932  0.00  0.00    +0.023 A 
ATOM     10  C   UNL     1      -0.242   5.911   3.141  0.00  0.00    +0.018 A 
ATOM     11  C   UNL     1       0.433   6.274   4.293  0.00  0.00    +0.019 A 
ATOM     12  C   UNL     1       0.753   5.317   5.237  0.00  0.00    +0.047 A 
ATOM     13  C   UNL     1       0.392   3.994   5.032  0.00  0.00    +0.125 A 
ATOM     14 BR   UNL     1      -0.680   7.223   1.851  0.00  0.00    -0.050 Br
BRANCH  13  15
ATOM     15  O   UNL     1       0.702   3.052   5.962  0.00  0.00    -0.487 OA
BRANCH  15  16
ATOM     16  C   UNL     1       1.394   3.497   7.130  0.00  0.00    +0.264 C 
BRANCH  16  17
ATOM     17  C   UNL     1       1.649   2.323   8.040  0.00  0.00    -0.010 A 
ATOM     18  C   UNL     1       0.722   1.985   9.008  0.00  0.00    +0.008 A 
ATOM     19  C   UNL     1       0.953   0.905   9.839  0.00  0.00    +0.020 A 
ATOM     20  C   UNL     1       2.118   0.170   9.710  0.00  0.00    +0.041 A 
ATOM     21  C   UNL     1       3.048   0.512   8.745  0.00  0.00    +0.020 A 
ATOM     22  C   UNL     1       2.814   1.589   7.911  0.00  0.00    +0.008 A 
ATOM     23 CL   UNL     1       2.411  -1.183  10.758  0.00  0.00    -0.084 Cl
ENDBRANCH  16  17
ENDBRANCH  15  16
ENDBRANCH  13  15
ENDBRANCH   4   8
BRANCH   6  24
ATOM     24  N   UNL     1      -4.118   1.837   2.240  0.00  0.00    -0.328 N 
ATOM     25  H   UNL     1      -4.652   1.892   3.048  0.00  0.00    +0.145 HD
ATOM     26  H   UNL     1      -4.551   1.719   1.380  0.00  0.00    +0.145 HD
ENDBRANCH   6  24
BRANCH   5  27
ATOM     27  C   UNL     1      -2.978   2.172   4.699  0.00  0.00    +0.101 C 
ATOM     28  N   UNL     1      -3.624   2.235   5.631  0.00  0.00    -0.191 NA
ENDBRANCH   5  27
BRANCH   3  29
ATOM     29  C   UNL     1       1.359   1.367   2.391  0.00  0.00    +0.339 C 
ATOM     30  O   UNL     1       1.919   1.066   1.353  0.00  0.00    -0.245 OA
BRANCH  29  31
ATOM     31  O   UNL     1       2.051   1.389   3.549  0.00  0.00    -0.465 OA
ATOM     32  C   UNL     1       3.437   1.048   3.483  0.00  0.00    +0.280 C 
ENDBRANCH  29  31
ENDBRANCH   3  29
TORSDOF 8
