REMARK  Name = ZINC26816245
REMARK  5 active torsions:
REMARK  status: ('A' for Active; 'I' for Inactive)
REMARK    1  A    between atoms: C_16  and  C_19
REMARK    2  A    between atoms: C_19  and  C_20
REMARK    3  A    between atoms: C_23  and  O_26
REMARK    4  A    between atoms: N_29  and  C_32
REMARK    5  A    between atoms: C_32  and  C_33
REMARK                            x       y       z     vdW  Elec       q    Type
REMARK                         _______ _______ _______ _____ _____    ______ ____
ROOT
ATOM      1  C   UNL     1      -0.017   1.378   0.010  0.00  0.00    +0.002 A 
ATOM      2  C   UNL     1       1.174   2.083   0.002  0.00  0.00    +0.008 A 
ATOM      3  C   UNL     1       2.374   1.409  -0.013  0.00  0.00    +0.005 A 
ATOM      4  C   UNL     1       2.407   0.018  -0.021  0.00  0.00    +0.057 A 
ATOM      5  C   UNL     1       1.203  -0.685  -0.014  0.00  0.00    +0.062 A 
ATOM      6  C   UNL     1       0.002  -0.004   0.002  0.00  0.00    +0.022 A 
ATOM      7 CL   UNL     1       1.214  -2.421  -0.023  0.00  0.00    -0.082 Cl
ATOM      8  N   UNL     1       3.728  -0.435  -0.036  0.00  0.00    -0.282 N 
ATOM      9  C   UNL     1       4.613   0.581  -0.038  0.00  0.00    +0.243 C 
ATOM     10  O   UNL     1       5.822   0.489  -0.051  0.00  0.00    -0.273 OA
ATOM     11  C   UNL     1       3.810   1.853  -0.023  0.00  0.00    +0.136 C 
ATOM     12  C   UNL     1       4.120   2.728  -1.244  0.00  0.00    +0.122 C 
ATOM     13  C   UNL     1       4.032   4.186  -0.711  0.00  0.00    +0.107 C 
ATOM     14  C   UNL     1       3.651   4.042   0.778  0.00  0.00    +0.072 C 
ATOM     15  N   UNL     1       4.128   2.678   1.157  0.00  0.00    -0.295 NA
ATOM     16  C   UNL     1       5.452   4.688  -0.832  0.00  0.00    +0.227 C 
ATOM     17  O   UNL     1       5.834   5.793  -0.514  0.00  0.00    -0.275 OA
ATOM     18  N   UNL     1       6.223   3.722  -1.346  0.00  0.00    -0.239 N 
ATOM     19  C   UNL     1       5.574   2.568  -1.626  0.00  0.00    +0.228 C 
ATOM     20  O   UNL     1       6.067   1.569  -2.103  0.00  0.00    -0.275 OA
ATOM     21  H   UNL     1       3.980  -1.371  -0.044  0.00  0.00    +0.155 HD
ATOM     22  H   UNL     1       3.640   2.344   1.974  0.00  0.00    +0.124 HD
ENDROOT
BRANCH  14  23
ATOM     23  C   UNL     1       4.376   5.097   1.616  0.00  0.00    +0.054 C 
BRANCH  23  24
ATOM     24  C   UNL     1       3.898   5.018   3.043  0.00  0.00    -0.046 A 
ATOM     25  C   UNL     1       2.810   5.769   3.449  0.00  0.00    +0.007 A 
ATOM     26  C   UNL     1       2.371   5.699   4.757  0.00  0.00    +0.045 A 
ATOM     27  C   UNL     1       3.022   4.875   5.664  0.00  0.00    +0.117 A 
ATOM     28  C   UNL     1       4.114   4.123   5.254  0.00  0.00    +0.045 A 
ATOM     29  C   UNL     1       4.546   4.192   3.943  0.00  0.00    +0.007 A 
BRANCH  27  30
ATOM     30  O   UNL     1       2.592   4.805   6.951  0.00  0.00    -0.507 OA
ATOM     31  H   UNL     1       1.928   4.120   7.107  0.00  0.00    +0.292 HD
ENDBRANCH  27  30
ENDBRANCH  23  24
ENDBRANCH  14  23
BRANCH  18  32
ATOM     32  C   UNL     1       7.656   3.899  -1.592  0.00  0.00    +0.148 C 
BRANCH  32  33
ATOM     33  C   UNL     1       8.443   3.483  -0.347  0.00  0.00    +0.136 C 
ATOM     34  C   UNL     1       9.944   3.779  -0.553  0.00  0.00    +0.035 C 
ATOM     35  C   UNL     1      10.617   2.545   0.108  0.00  0.00    +0.031 C 
ATOM     36  C   UNL     1       9.589   1.435  -0.227  0.00  0.00    +0.160 C 
ATOM     37  O   UNL     1       8.303   2.073  -0.133  0.00  0.00    -0.375 OA
ENDBRANCH  32  33
ENDBRANCH  18  32
TORSDOF 5
