REMARK  Name = ZINC11991475
REMARK  1 active torsions:
REMARK  status: ('A' for Active; 'I' for Inactive)
REMARK    1  A    between atoms: C_2  and  N_9
REMARK                            x       y       z     vdW  Elec       q    Type
REMARK                         _______ _______ _______ _____ _____    ______ ____
ROOT
ATOM      1  N   UNL     1      -4.881   1.094   3.530  0.00  0.00    -0.285 N 
ATOM      2  C   UNL     1      -4.238   1.218   2.326  0.00  0.00    +0.200 A 
ATOM      3  N   UNL     1      -4.895   0.896   1.179  0.00  0.00    -0.295 N 
ATOM      4  H   UNL     1      -5.813   0.585   1.212  0.00  0.00    +0.172 HD
ATOM      5  C   UNL     1      -4.261   1.014  -0.005  0.00  0.00    +0.256 A 
ATOM      6  O   UNL     1      -4.833   0.731  -1.044  0.00  0.00    -0.267 OA
ATOM      7  C   UNL     1      -2.925   1.470  -0.025  0.00  0.00    +0.038 A 
ATOM      8  C   UNL     1      -2.320   1.784   1.149  0.00  0.00    +0.053 A 
ATOM      9  N   UNL     1      -2.995   1.646   2.297  0.00  0.00    -0.220 NA
ATOM     10  C   UNL     1      -0.906   2.298   1.224  0.00  0.00    +0.056 C 
ATOM     11  C   UNL     1      -0.154   1.989  -0.070  0.00  0.00    +0.006 C 
ATOM     12  C   UNL     1      -1.002   2.478  -1.251  0.00  0.00    +0.005 C 
ATOM     13  C   UNL     1      -2.236   1.583  -1.358  0.00  0.00    +0.042 C 
ATOM     14  H   UNL     1      -5.821   0.858   3.555  0.00  0.00    +0.155 HD
ENDROOT
BRANCH   1  16
ATOM     15  C   UNL     1      -4.828   1.866   5.817  0.00  0.00    +0.043 A 
ATOM     16  C   UNL     1      -4.181   1.309   4.722  0.00  0.00    +0.036 A 
ATOM     17  C   UNL     1      -2.840   0.960   4.814  0.00  0.00    +0.043 A 
ATOM     18  C   UNL     1      -2.150   1.178   5.992  0.00  0.00    +0.044 A 
ATOM     19  C   UNL     1      -2.797   1.734   7.082  0.00  0.00    +0.040 A 
ATOM     20  C   UNL     1      -4.134   2.077   6.994  0.00  0.00    +0.044 A 
ATOM     21 CL   UNL     1      -4.942   2.774   8.364  0.00  0.00    -0.083 Cl
ATOM     22 CL   UNL     1      -0.472   0.748   6.105  0.00  0.00    -0.083 Cl
ENDBRANCH   1  16
TORSDOF 1
