REMARK  Name = ZINC39667384
REMARK  8 active torsions:
REMARK  status: ('A' for Active; 'I' for Inactive)
REMARK    1  A    between atoms: C_1  and  S_2
REMARK    2  A    between atoms: S_2  and  C_3
REMARK    3  A    between atoms: C_6  and  C_9
REMARK    4  A    between atoms: C_9  and  N_10
REMARK    5  A    between atoms: C_11  and  C_13
REMARK    6  A    between atoms: C_24  and  C_26
REMARK    7  A    between atoms: C_29  and  O_32
REMARK    8  A    between atoms: O_32  and  C_33
REMARK                            x       y       z     vdW  Elec       q    Type
REMARK                         _______ _______ _______ _____ _____    ______ ____
ROOT
ATOM      1  C   UNL     1       1.845  -1.038   8.398  0.00  0.00    +0.100 C 
ATOM      2  C   UNL     1       0.955   0.128   8.887  0.00  0.00    +0.121 C 
ATOM      3  N   UNL     1       0.836  -0.080  10.349  0.00  0.00    -0.296 N 
ATOM      4  C   UNL     1       2.186  -0.528  10.769  0.00  0.00    +0.115 C 
ATOM      5  C   UNL     1       2.651  -1.465   9.636  0.00  0.00    -0.004 C 
ATOM      6  C   UNL     1       2.344  -2.916   9.992  0.00  0.00    -0.010 C 
ATOM      7  C   UNL     1       3.200  -3.335  11.191  0.00  0.00    -0.082 C 
ATOM      8  N   UNL     1       4.621  -3.182  10.857  0.00  0.00    +0.379 N 
ATOM      9  C   UNL     1       4.927  -1.768  10.607  0.00  0.00    -0.082 C 
ATOM     10  C   UNL     1       4.145  -1.284   9.383  0.00  0.00    -0.010 C 
ATOM     11  C   UNL     1      -0.253   0.099  11.123  0.00  0.00    +0.248 C 
ATOM     12  O   UNL     1      -1.327   0.347  10.612  0.00  0.00    -0.270 OA
ATOM     13  H   UNL     1       5.183  -3.516  11.626  0.00  0.00    -0.086 HD
ATOM     14  H   UNL     1       4.831  -3.722  10.031  0.00  0.00    -0.086 HD
ENDROOT
BRANCH  11  15
ATOM     15  C   UNL     1      -0.140  -0.006  12.591  0.00  0.00    +0.055 A 
ATOM     16  C   UNL     1       1.107   0.120  13.221  0.00  0.00    +0.020 A 
ATOM     17  C   UNL     1       1.162   0.015  14.595  0.00  0.00    +0.068 A 
ATOM     18  C   UNL     1      -0.013  -0.212  15.307  0.00  0.00    +0.220 A 
ATOM     19  N   UNL     1      -1.175  -0.328  14.683  0.00  0.00    -0.220 NA
ATOM     20  C   UNL     1      -1.274  -0.227  13.374  0.00  0.00    +0.127 A 
BRANCH  18  21
ATOM     21  O   UNL     1       0.034  -0.317  16.657  0.00  0.00    -0.438 OA
BRANCH  21  22
ATOM     22  C   UNL     1      -1.140  -0.442  17.328  0.00  0.00    +0.130 A 
ATOM     23  C   UNL     1      -1.782  -1.671  17.383  0.00  0.00    +0.046 A 
ATOM     24  C   UNL     1      -2.976  -1.796  18.066  0.00  0.00    +0.004 A 
ATOM     25  C   UNL     1      -3.532  -0.698  18.695  0.00  0.00    +0.000 A 
ATOM     26  C   UNL     1      -2.894   0.528  18.643  0.00  0.00    +0.004 A 
ATOM     27  C   UNL     1      -1.697   0.657  17.966  0.00  0.00    +0.046 A 
ENDBRANCH  21  22
ENDBRANCH  18  21
ENDBRANCH  11  15
BRANCH   1  29
ATOM     28  N   UNL     1       3.193  -1.434   6.363  0.00  0.00    -0.311 N 
ATOM     29  C   UNL     1       2.771  -0.569   7.306  0.00  0.00    +0.218 C 
ATOM     30  O   UNL     1       3.135   0.588   7.274  0.00  0.00    -0.275 OA
ATOM     31  H   UNL     1       2.901  -2.359   6.388  0.00  0.00    +0.149 HD
BRANCH  28  32
ATOM     32  C   UNL     1       4.093  -0.978   5.300  0.00  0.00    +0.139 C 
BRANCH  32  36
ATOM     33  C   UNL     1       4.998  -4.247   2.700  0.00  0.00    +0.008 A 
ATOM     34  C   UNL     1       3.901  -3.433   2.440  0.00  0.00    +0.015 A 
ATOM     35  C   UNL     1       3.612  -2.378   3.283  0.00  0.00    +0.006 A 
ATOM     36  C   UNL     1       4.412  -2.131   4.383  0.00  0.00    -0.030 A 
ATOM     37  C   UNL     1       5.504  -2.938   4.644  0.00  0.00    +0.006 A 
ATOM     38  C   UNL     1       5.796  -3.999   3.810  0.00  0.00    +0.015 A 
BRANCH  33  40
ATOM     39  C   UNL     1       4.080  -5.514   0.356  0.00  0.00    +0.090 C 
ATOM     40  S   UNL     1       5.371  -5.594   1.627  0.00  0.00    -0.129 S 
ENDBRANCH  33  40
ENDBRANCH  32  36
ENDBRANCH  28  32
ENDBRANCH   1  29
TORSDOF 7
