REMARK  Name = ZINC63479938
REMARK  5 active torsions:
REMARK  status: ('A' for Active; 'I' for Inactive)
REMARK    1  A    between atoms: C_1  and  O_2
REMARK    2  A    between atoms: O_2  and  C_3
REMARK    3  A    between atoms: C_7  and  N_9
REMARK    4  A    between atoms: C_14  and  C_32
REMARK    5  A    between atoms: C_32  and  C_33
REMARK                            x       y       z     vdW  Elec       q    Type
REMARK                         _______ _______ _______ _____ _____    ______ ____
ROOT
ATOM      1  N   UNL     1      -2.542  -4.067   0.016  0.00  0.00    -0.210 N 
ATOM      2  C   UNL     1      -1.453  -4.837  -0.086  0.00  0.00    +0.232 C 
ATOM      3  O   UNL     1      -0.315  -4.430  -0.189  0.00  0.00    -0.274 OA
ATOM      4  C   UNL     1      -1.861  -6.292  -0.051  0.00  0.00    +0.107 C 
ATOM      5  C   UNL     1      -1.587  -6.931  -1.428  0.00  0.00    +0.072 C 
ATOM      6  N   UNL     1      -2.812  -6.657  -2.226  0.00  0.00    -0.295 NA
ATOM      7  C   UNL     1      -3.915  -6.821  -1.262  0.00  0.00    +0.136 C 
ATOM      8  C   UNL     1      -3.408  -6.228   0.077  0.00  0.00    +0.123 C 
ATOM      9  C   UNL     1      -3.692  -4.743   0.121  0.00  0.00    +0.233 C 
ATOM     10  O   UNL     1      -4.791  -4.243   0.233  0.00  0.00    -0.274 OA
ATOM     11  C   UNL     1      -4.303  -8.264  -1.107  0.00  0.00    +0.006 A 
ATOM     12  C   UNL     1      -3.618  -9.392  -0.713  0.00  0.00    +0.046 A 
ATOM     13  C   UNL     1      -4.266 -10.616  -0.670  0.00  0.00    +0.124 A 
ATOM     14  C   UNL     1      -5.603 -10.700  -1.023  0.00  0.00    +0.040 A 
ATOM     15  C   UNL     1      -6.290  -9.571  -1.417  0.00  0.00    +0.026 A 
ATOM     16  C   UNL     1      -5.646  -8.337  -1.464  0.00  0.00    +0.039 A 
ATOM     17  N   UNL     1      -6.120  -7.073  -1.824  0.00  0.00    -0.283 N 
ATOM     18  C   UNL     1      -5.164  -6.128  -1.733  0.00  0.00    +0.243 C 
ATOM     19  O   UNL     1      -5.287  -4.947  -1.982  0.00  0.00    -0.273 OA
ATOM     20  F   UNL     1      -3.596 -11.724  -0.285  0.00  0.00    -0.205 F 
ATOM     21  H   UNL     1      -2.796  -5.721  -2.603  0.00  0.00    +0.124 HD
ATOM     22  H   UNL     1      -7.030  -6.896  -2.107  0.00  0.00    +0.155 HD
ENDROOT
BRANCH   1  27
ATOM     23  C   UNL     1      -2.753  -0.573   1.161  0.00  0.00    +0.122 A 
ATOM     24  C   UNL     1      -2.366   0.102   0.012  0.00  0.00    +0.046 A 
ATOM     25  C   UNL     1      -2.040  -0.605  -1.129  0.00  0.00    +0.005 A 
ATOM     26  C   UNL     1      -2.097  -1.986  -1.130  0.00  0.00    +0.024 A 
ATOM     27  C   UNL     1      -2.484  -2.666   0.017  0.00  0.00    +0.047 A 
ATOM     28  C   UNL     1      -2.807  -1.958   1.166  0.00  0.00    +0.069 A 
BRANCH  23  30
ATOM     29  C   UNL     1      -2.996   1.548   2.207  0.00  0.00    +0.277 C 
ATOM     30  O   UNL     1      -3.073   0.123   2.284  0.00  0.00    -0.495 OA
ENDBRANCH  23  30
ENDBRANCH   1  27
BRANCH   5  31
ATOM     31  C   UNL     1      -0.366  -6.283  -2.083  0.00  0.00    +0.052 C 
BRANCH  31  32
ATOM     32  C   UNL     1      -0.043  -7.003  -3.367  0.00  0.00    -0.040 C 
ATOM     33  C   UNL     1      -0.438  -6.657  -4.614  0.00  0.00    -0.001 A 
ATOM     34  C   UNL     1      -1.255  -5.552  -5.128  0.00  0.00    +0.010 A 
ATOM     35  C   UNL     1      -1.484  -5.469  -6.459  0.00  0.00    +0.001 A 
ATOM     36  C   UNL     1      -0.961  -6.409  -7.357  0.00  0.00    +0.002 A 
ATOM     37  C   UNL     1      -0.202  -7.452  -6.960  0.00  0.00    +0.026 A 
ATOM     38  C   UNL     1       0.103  -7.637  -5.583  0.00  0.00    +0.043 A 
ATOM     39  N   UNL     1       0.804  -8.553  -4.960  0.00  0.00    -0.380 N 
ATOM     40  C   UNL     1       0.793  -8.253  -3.523  0.00  0.00    +0.144 C 
ATOM     41  H   UNL     1       1.258  -9.301  -5.378  0.00  0.00    +0.160 HD
ENDBRANCH  31  32
ENDBRANCH   5  31
TORSDOF 4
