REMARK  Name = ZINC40514911
REMARK  6 active torsions:
REMARK  status: ('A' for Active; 'I' for Inactive)
REMARK    1  A    between atoms: C_1  and  C_2
REMARK    2  A    between atoms: C_4  and  C_18
REMARK    3  A    between atoms: C_7  and  C_8
REMARK    4  A    between atoms: C_8  and  N_10
REMARK    5  A    between atoms: C_12  and  C_17
REMARK    6  A    between atoms: C_14  and  C_16
REMARK                            x       y       z     vdW  Elec       q    Type
REMARK                         _______ _______ _______ _____ _____    ______ ____
ROOT
ATOM      1  C   UNL     1      -0.054   1.496   0.117  0.00  0.00    +0.044 C 
ATOM      2  C   UNL     1      -0.016  -0.009   0.054  0.00  0.00    -0.036 A 
ATOM      3  C   UNL     1      -0.129  -0.671  -1.156  0.00  0.00    +0.027 A 
ATOM      4  C   UNL     1      -0.090  -2.054  -1.182  0.00  0.00    +0.041 A 
ATOM      5  N   UNL     1       0.053  -2.754  -0.073  0.00  0.00    -0.232 NA
ATOM      6  C   UNL     1       0.166  -2.172   1.109  0.00  0.00    +0.164 A 
ATOM      7  C   UNL     1       0.141  -0.773   1.217  0.00  0.00    +0.050 A 
ATOM      8  N   UNL     1       0.315  -2.953   2.254  0.00  0.00    -0.218 N 
ATOM      9  C   UNL     1       0.472  -4.302   2.288  0.00  0.00    +0.044 A 
ATOM     10  C   UNL     1       0.582  -4.668   3.585  0.00  0.00    +0.048 A 
ATOM     11  C   UNL     1       0.490  -3.513   4.370  0.00  0.00    +0.061 A 
ATOM     12  N   UNL     1       0.337  -2.486   3.574  0.00  0.00    -0.170 NA
ATOM     13  C   UNL     1       0.562  -3.460   5.874  0.00  0.00    +0.067 C 
ATOM     14  C   UNL     1       0.516  -5.224   1.097  0.00  0.00    +0.066 C 
ATOM     15  C   UNL     1      -0.214  -2.773  -2.500  0.00  0.00    +0.065 C 
ENDROOT
BRANCH   7  16
ATOM     16  C   UNL     1       0.273  -0.119   2.531  0.00  0.00    +0.081 C 
ATOM     17  S   UNL     1       1.812   0.388   3.084  0.00  0.00    -0.035 S 
BRANCH  16  18
ATOM     18  N   UNL     1      -0.818   0.080   3.297  0.00  0.00    -0.352 N 
ATOM     19  H   UNL     1      -1.698  -0.140   2.954  0.00  0.00    +0.143 HD
ATOM     20  H   UNL     1      -0.723   0.442   4.192  0.00  0.00    +0.143 HD
ENDBRANCH  16  18
ENDBRANCH   7  16
TORSDOF 2
