REMARK  Name = ZINC25262199
REMARK  6 active torsions:
REMARK  status: ('A' for Active; 'I' for Inactive)
REMARK    1  A    between atoms: C_2  and  C_19
REMARK    2  A    between atoms: N_21  and  N_22
REMARK    3  A    between atoms: N_22  and  C_23
REMARK    4  A    between atoms: C_23  and  N_25
REMARK    5  A    between atoms: N_25  and  C_26
REMARK    6  A    between atoms: C_26  and  C_27
REMARK                            x       y       z     vdW  Elec       q    Type
REMARK                         _______ _______ _______ _____ _____    ______ ____
ROOT
ATOM      1  C   UNL     1      -0.013   1.076   0.008  0.00  0.00    +0.045 A 
ATOM      2  C   UNL     1      -1.231   1.769   0.017  0.00  0.00    +0.058 A 
ATOM      3  C   UNL     1      -1.235   3.168   0.017  0.00  0.00    +0.055 A 
ATOM      4  C   UNL     1      -0.046   3.867   0.012  0.00  0.00    +0.046 A 
ATOM      5  C   UNL     1       1.158   3.174   0.019  0.00  0.00    +0.063 A 
ATOM      6  C   UNL     1       1.159   1.785   0.001  0.00  0.00    +0.135 A 
ATOM      7  S   UNL     1       2.729   0.980  -0.059  0.00  0.00    +0.102 S 
ATOM      8  O   UNL     1       3.106   0.704   1.283  0.00  0.00    -0.146 OA
ATOM      9  O   UNL     1       2.643  -0.027  -1.058  0.00  0.00    -0.146 OA
ATOM     10  N   UNL     1       3.765   2.139  -0.626  0.00  0.00    -0.118 NA
ATOM     11  C   UNL     1       3.485   3.412  -0.532  0.00  0.00    +0.124 C 
ATOM     12  N   UNL     1       2.377   3.887   0.072  0.00  0.00    -0.286 N 
ATOM     13  C   UNL     1       2.283   5.121   0.822  0.00  0.00    +0.112 C 
ATOM     14  C   UNL     1       3.449   5.689   1.504  0.00  0.00    +0.019 C 
ATOM     15  C   UNL     1       4.811   5.766   0.920  0.00  0.00    +0.002 C 
ATOM     16  C   UNL     1       5.016   5.545  -0.551  0.00  0.00    +0.008 C 
ATOM     17  C   UNL     1       4.476   4.314  -1.130  0.00  0.00    +0.073 C 
ATOM     18 CL   UNL     1      -2.744   4.027   0.015  0.00  0.00    -0.083 Cl
ENDROOT
BRANCH   2  19
ATOM     19  C   UNL     1      -2.504   1.025   0.033  0.00  0.00    +0.262 C 
ATOM     20  O   UNL     1      -3.560   1.628   0.041  0.00  0.00    -0.269 OA
ATOM     21  N   UNL     1      -2.498  -0.323   0.039  0.00  0.00    -0.231 N 
ATOM     22  H   UNL     1      -1.542  -0.868   0.031  0.00  0.00    +0.173 HD
BRANCH  21  23
ATOM     23  N   UNL     1      -3.708  -1.029   0.054  0.00  0.00    -0.246 N 
ATOM     24  H   UNL     1      -4.663  -0.484   0.061  0.00  0.00    +0.172 HD
BRANCH  23  25
ATOM     25  C   UNL     1      -3.701  -2.377   0.059  0.00  0.00    +0.147 C 
ATOM     26  S   UNL     1      -5.179  -3.240   0.077  0.00  0.00    -0.017 S 
BRANCH  25  27
ATOM     27  N   UNL     1      -2.531  -3.045   0.050  0.00  0.00    -0.323 N 
ATOM     28  H   UNL     1      -1.581  -2.490   0.038  0.00  0.00    +0.148 HD
BRANCH  27  29
ATOM     29  C   UNL     1      -2.523  -4.510   0.056  0.00  0.00    +0.134 C 
BRANCH  29  30
ATOM     30  C   UNL     1      -1.079  -5.013   0.043  0.00  0.00    +0.135 C 
ATOM     31  C   UNL     1      -1.046  -6.553  -0.077  0.00  0.00    +0.035 C 
ATOM     32  C   UNL     1       0.138  -6.975   0.821  0.00  0.00    +0.031 C 
ATOM     33  C   UNL     1       0.681  -5.640   1.377  0.00  0.00    +0.160 C 
ATOM     34  O   UNL     1      -0.436  -4.728   1.305  0.00  0.00    -0.375 OA
ENDBRANCH  29  30
ENDBRANCH  27  29
ENDBRANCH  25  27
ENDBRANCH  23  25
ENDBRANCH  21  23
ENDBRANCH   2  19
TORSDOF 6
