REMARK  Name = ZINC14983877
REMARK  1 active torsions:
REMARK  status: ('A' for Active; 'I' for Inactive)
REMARK    1  A    between atoms: C_2  and  N_13
REMARK                            x       y       z     vdW  Elec       q    Type
REMARK                         _______ _______ _______ _____ _____    ______ ____
ROOT
ATOM      1  C   UNL     1      -1.269   3.124   0.030  0.00  0.00    +0.060 A 
ATOM      2  C   UNL     1      -1.228   1.749   0.017  0.00  0.00    +0.131 A 
ATOM      3  C   UNL     1      -0.013   1.076   0.008  0.00  0.00    +0.071 A 
ATOM      4  C   UNL     1       1.173   1.776   0.000  0.00  0.00    +0.137 A 
ATOM      5  C   UNL     1       1.151   3.176   0.008  0.00  0.00    +0.068 A 
ATOM      6  C   UNL     1      -0.083   3.855   0.023  0.00  0.00    +0.072 A 
ATOM      7  N   UNL     1       0.204   5.195   0.027  0.00  0.00    -0.276 N 
ATOM      8  H   UNL     1      -0.471   5.933   0.037  0.00  0.00    +0.189 HD
ATOM      9  N   UNL     1       1.592   5.366   0.015  0.00  0.00    -0.167 NA
ATOM     10  C   UNL     1       2.185   4.206   0.003  0.00  0.00    +0.133 A 
ATOM     11  I   UNL     1       4.254   3.877  -0.018  0.00  0.00    -0.019 I 
ATOM     12  F   UNL     1       2.352   1.115  -0.014  0.00  0.00    -0.205 F 
ENDROOT
BRANCH   2  13
ATOM     13  N   UNL     1      -2.492   0.979   0.019  0.00  0.00    +0.057 N 
ATOM     14  O   UNL     1      -2.463  -0.239   0.012  0.00  0.00    -0.126 OA
ATOM     15  O   UNL     1      -3.561   1.563   0.027  0.00  0.00    -0.126 OA
ENDBRANCH   2  13
TORSDOF 1
