REMARK  Name = ZINC39701952
REMARK  4 active torsions:
REMARK  status: ('A' for Active; 'I' for Inactive)
REMARK    1  A    between atoms: C_5  and  C_23
REMARK    2  A    between atoms: C_10  and  N_11
REMARK    3  A    between atoms: C_12  and  C_13
REMARK    4  A    between atoms: C_15  and  N_20
REMARK                            x       y       z     vdW  Elec       q    Type
REMARK                         _______ _______ _______ _____ _____    ______ ____
ROOT
ATOM      1  C   UNL     1       0.042   1.764  -0.037  0.00  0.00    +0.030 A 
ATOM      2  C   UNL     1       1.237   2.384  -0.075  0.00  0.00    +0.029 A 
ATOM      3  C   UNL     1       2.472   1.575  -0.053  0.00  0.00    +0.061 A 
ATOM      4  N   UNL     1       3.727   1.919  -0.080  0.00  0.00    -0.360 N 
ATOM      5  C   UNL     1       4.553   0.710  -0.038  0.00  0.00    +0.207 C 
ATOM      6  N   UNL     1       3.629  -0.430   0.019  0.00  0.00    -0.360 N 
ATOM      7  C   UNL     1       2.359   0.101   0.010  0.00  0.00    +0.062 A 
ATOM      8  C   UNL     1       1.127  -0.482   0.046  0.00  0.00    +0.055 A 
ATOM      9  C   UNL     1      -0.035   0.303   0.025  0.00  0.00    +0.066 A 
ATOM     10  H   UNL     1       4.061   2.829  -0.122  0.00  0.00    +0.162 HD
ATOM     11  H   UNL     1       3.866  -1.370   0.056  0.00  0.00    +0.162 HD
ENDROOT
BRANCH   5  12
ATOM     12  C   UNL     1       5.430   0.726   1.188  0.00  0.00    +0.013 A 
ATOM     13  C   UNL     1       5.017   0.086   2.341  0.00  0.00    +0.010 A 
ATOM     14  C   UNL     1       5.820   0.100   3.466  0.00  0.00    +0.020 A 
ATOM     15  C   UNL     1       7.039   0.755   3.437  0.00  0.00    +0.042 A 
ATOM     16  C   UNL     1       7.453   1.396   2.283  0.00  0.00    +0.040 A 
ATOM     17  C   UNL     1       6.650   1.377   1.156  0.00  0.00    +0.049 A 
ATOM     18 CL   UNL     1       7.172   2.175  -0.294  0.00  0.00    -0.083 Cl
ATOM     19 CL   UNL     1       8.048   0.774   4.850  0.00  0.00    -0.083 Cl
ENDBRANCH   5  12
BRANCH   9  20
ATOM     20  N   UNL     1      -1.236  -0.293   0.062  0.00  0.00    -0.255 NA
ATOM     21  C   UNL     1      -2.178   0.170   0.860  0.00  0.00    +0.123 C 
BRANCH  21  22
ATOM     22  C   UNL     1      -3.441  -0.457   0.899  0.00  0.00    +0.042 A 
ATOM     23  C   UNL     1      -4.458   0.028   1.742  0.00  0.00    +0.046 A 
ATOM     24  C   UNL     1      -5.671  -0.590   1.767  0.00  0.00    +0.127 A 
ATOM     25  C   UNL     1      -5.936  -1.701   0.973  0.00  0.00    +0.036 A 
ATOM     26  C   UNL     1      -4.994  -2.220   0.137  0.00  0.00    +0.054 A 
ATOM     27  C   UNL     1      -3.723  -1.625   0.058  0.00  0.00    +0.188 A 
ATOM     28  O   UNL     1      -2.868  -2.076  -0.692  0.00  0.00    -0.287 OA
BRANCH  24  29
ATOM     29  N   UNL     1      -6.731  -0.067   2.658  0.00  0.00    +0.056 N 
ATOM     30  O   UNL     1      -6.515   0.898   3.354  0.00  0.00    -0.126 OA
ATOM     31  O   UNL     1      -7.813  -0.606   2.691  0.00  0.00    -0.126 OA
ENDBRANCH  24  29
ENDBRANCH  21  22
ENDBRANCH   9  20
TORSDOF 4
