REMARK  Name = ZINC42064055
REMARK  4 active torsions:
REMARK  status: ('A' for Active; 'I' for Inactive)
REMARK    1  A    between atoms: C_1  and  C_2
REMARK    2  A    between atoms: C_2  and  N_9
REMARK    3  A    between atoms: N_9  and  C_10
REMARK    4  A    between atoms: N_18  and  C_21
REMARK                            x       y       z     vdW  Elec       q    Type
REMARK                         _______ _______ _______ _____ _____    ______ ____
ROOT
ATOM      1  C   UNL     1      -2.220  -0.105  -0.954  0.00  0.00    +0.174 C 
ATOM      2  C   UNL     1      -3.661   0.027  -0.516  0.00  0.00    -0.000 A 
ATOM      3  C   UNL     1      -4.291   0.842   0.397  0.00  0.00    +0.007 A 
ATOM      4  C   UNL     1      -5.657   0.735   0.591  0.00  0.00    +0.000 A 
ATOM      5  C   UNL     1      -6.384  -0.191  -0.135  0.00  0.00    +0.002 A 
ATOM      6  C   UNL     1      -5.755  -1.009  -1.051  0.00  0.00    +0.024 A 
ATOM      7  C   UNL     1      -4.380  -0.907  -1.252  0.00  0.00    +0.041 A 
ATOM      8  N   UNL     1      -3.528  -1.608  -2.105  0.00  0.00    -0.273 N 
ATOM      9  C   UNL     1      -2.248  -1.202  -1.997  0.00  0.00    +0.241 C 
ATOM     10  O   UNL     1      -1.298  -1.632  -2.616  0.00  0.00    -0.273 OA
ATOM     11  C   UNL     1      -3.974  -2.665  -3.017  0.00  0.00    +0.138 C 
ENDROOT
BRANCH   1  12
ATOM     12  N   UNL     1      -1.371  -0.494   0.180  0.00  0.00    -0.295 NA
ATOM     13  H   UNL     1      -0.999  -1.423   0.051  0.00  0.00    +0.124 HD
BRANCH  12  15
ATOM     14  C   UNL     1      -0.917   1.841   0.702  0.00  0.00    +0.029 C 
ATOM     15  C   UNL     1      -0.292   0.480   0.389  0.00  0.00    +0.038 C 
ATOM     16  C   UNL     1       0.514   0.598  -0.904  0.00  0.00    +0.046 C 
ATOM     17  C   UNL     1       1.982   0.998  -0.589  0.00  0.00    +0.168 C 
ATOM     18  S   UNL     1       2.262  -0.023   0.924  0.00  0.00    -0.029 S 
ATOM     19  O   UNL     1       2.569  -1.356   0.538  0.00  0.00    -0.174 OA
ATOM     20  O   UNL     1       3.135   0.673   1.803  0.00  0.00    -0.174 OA
ATOM     21  C   UNL     1       0.550   0.033   1.599  0.00  0.00    +0.187 C 
ENDBRANCH  12  15
ENDBRANCH   1  12
TORSDOF 2
