REMARK  Name = ZINC64219070
REMARK  9 active torsions:
REMARK  status: ('A' for Active; 'I' for Inactive)
REMARK    1  A    between atoms: C_1  and  C_2
REMARK    2  A    between atoms: N_4  and  C_5
REMARK    3  A    between atoms: C_5  and  C_7
REMARK    4  A    between atoms: C_5  and  C_17
REMARK    5  A    between atoms: C_7  and  C_8
REMARK    6  A    between atoms: N_19  and  C_20
REMARK    7  A    between atoms: C_20  and  C_21
REMARK    8  A    between atoms: C_21  and  C_23
REMARK    9  A    between atoms: C_21  and  N_28
REMARK                            x       y       z     vdW  Elec       q    Type
REMARK                         _______ _______ _______ _____ _____    ______ ____
ROOT
ATOM      1  C   UNL     1       1.294  -2.660  -0.942  0.00  0.00    +0.234 C 
ATOM      2  O   UNL     1       1.791  -1.871  -0.166  0.00  0.00    -0.274 OA
ATOM      3  N   UNL     1       1.768  -3.920  -1.018  0.00  0.00    -0.315 N 
ATOM      4  H   UNL     1       1.371  -4.551  -1.638  0.00  0.00    +0.149 HD
ENDROOT
BRANCH   1   5
ATOM      5  C   UNL     1       0.146  -2.233  -1.820  0.00  0.00    +0.163 C 
BRANCH   5   9
ATOM      6  C   UNL     1      -0.046   1.479  -0.903  0.00  0.00    +0.109 C 
ATOM      7  C   UNL     1      -0.022  -0.025  -0.803  0.00  0.00    +0.211 C 
ATOM      8  O   UNL     1      -0.134  -0.563   0.278  0.00  0.00    -0.276 OA
ATOM      9  N   UNL     1       0.123  -0.771  -1.916  0.00  0.00    -0.304 N 
ATOM     10  H   UNL     1       0.213  -0.341  -2.781  0.00  0.00    +0.149 HD
ENDBRANCH   5   9
BRANCH   5  11
ATOM     11  C   UNL     1      -1.170  -2.725  -1.214  0.00  0.00    +0.065 C 
BRANCH  11  12
ATOM     12  C   UNL     1      -2.305  -2.405  -2.152  0.00  0.00    -0.039 C 
ATOM     13  C   UNL     1      -2.849  -3.225  -3.080  0.00  0.00    -0.001 A 
ATOM     14  C   UNL     1      -2.558  -4.608  -3.478  0.00  0.00    +0.010 A 
ATOM     15  C   UNL     1      -3.290  -5.175  -4.464  0.00  0.00    +0.001 A 
ATOM     16  C   UNL     1      -4.318  -4.477  -5.113  0.00  0.00    +0.002 A 
ATOM     17  C   UNL     1      -4.644  -3.204  -4.803  0.00  0.00    +0.026 A 
ATOM     18  C   UNL     1      -3.940  -2.510  -3.781  0.00  0.00    +0.043 A 
ATOM     19  N   UNL     1      -4.065  -1.295  -3.305  0.00  0.00    -0.380 N 
ATOM     20  C   UNL     1      -3.070  -1.104  -2.243  0.00  0.00    +0.144 C 
ATOM     21  H   UNL     1      -4.710  -0.634  -3.603  0.00  0.00    +0.160 HD
ENDBRANCH  11  12
ENDBRANCH   5  11
ENDBRANCH   1   5
BRANCH   3  22
ATOM     22  C   UNL     1       2.884  -4.335  -0.164  0.00  0.00    +0.096 C 
BRANCH  22  23
ATOM     23  C   UNL     1       3.139  -5.832  -0.351  0.00  0.00    +0.016 C 
BRANCH  23  24
ATOM     24  N   UNL     1       1.894  -6.575  -0.113  0.00  0.00    +0.387 N 
ATOM     25  C   UNL     1       1.437  -6.330   1.260  0.00  0.00    -0.078 C 
ATOM     26  C   UNL     1       0.098  -7.036   1.489  0.00  0.00    -0.019 C 
ATOM     27  C   UNL     1       0.277  -8.541   1.269  0.00  0.00    -0.004 C 
ATOM     28  C   UNL     1       0.825  -8.779  -0.141  0.00  0.00    -0.019 C 
ATOM     29  C   UNL     1       2.136  -8.009  -0.309  0.00  0.00    -0.078 C 
ATOM     30  H   UNL     1       1.188  -6.262  -0.761  0.00  0.00    -0.081 HD
ENDBRANCH  23  24
BRANCH  23  31
ATOM     31  C   UNL     1       3.615  -6.089  -1.758  0.00  0.00    +0.093 A 
ATOM     32  C   UNL     1       4.893  -6.280  -2.134  0.00  0.00    +0.043 A 
ATOM     33  C   UNL     1       4.882  -6.483  -3.533  0.00  0.00    +0.041 A 
ATOM     34  C   UNL     1       3.599  -6.405  -3.928  0.00  0.00    +0.195 A 
ATOM     35  O   UNL     1       2.835  -6.171  -2.848  0.00  0.00    -0.469 OA
ENDBRANCH  23  31
ENDBRANCH  22  23
ENDBRANCH   3  22
TORSDOF 8
