REMARK  Name = ZINC64678130
REMARK  8 active torsions:
REMARK  status: ('A' for Active; 'I' for Inactive)
REMARK    1  A    between atoms: C_1  and  C_2
REMARK    2  A    between atoms: C_5  and  C_9
REMARK    3  A    between atoms: C_7  and  C_8
REMARK    4  A    between atoms: N_11  and  C_12
REMARK    5  A    between atoms: N_11  and  C_13
REMARK    6  A    between atoms: C_13  and  C_14
REMARK    7  A    between atoms: C_14  and  C_15
REMARK    8  A    between atoms: C_18  and  C_21
REMARK                            x       y       z     vdW  Elec       q    Type
REMARK                         _______ _______ _______ _____ _____    ______ ____
ROOT
ATOM      1  C   UNL     1      -2.140  -8.040  -0.957  0.00  0.00    +0.139 C 
ATOM      2  N   UNL     1      -1.255  -8.961  -1.080  0.00  0.00    -0.072 NA
ATOM      3  O   UNL     1      -1.846 -10.245  -1.022  0.00  0.00    -0.367 OA
ATOM      4  C   UNL     1      -3.256 -10.033  -0.842  0.00  0.00    +0.318 C 
ATOM      5  N   UNL     1      -3.400  -8.569  -0.800  0.00  0.00    -0.291 N 
ATOM      6  H   UNL     1      -4.225  -8.072  -0.685  0.00  0.00    +0.151 HD
ENDROOT
BRANCH   4   7
ATOM      7  C   UNL     1      -4.040 -10.621  -2.016  0.00  0.00    +0.165 C 
ATOM      8  C   UNL     1      -5.523 -10.415  -1.808  0.00  0.00    +0.012 C 
ATOM      9  C   UNL     1      -6.071 -11.651  -1.764  0.00  0.00    -0.004 A 
ATOM     10  C   UNL     1      -7.450 -12.121  -1.587  0.00  0.00    +0.010 A 
ATOM     11  C   UNL     1      -7.695 -13.451  -1.587  0.00  0.00    +0.001 A 
ATOM     12  C   UNL     1      -6.667 -14.389  -1.751  0.00  0.00    +0.002 A 
ATOM     13  C   UNL     1      -5.375 -14.034  -1.919  0.00  0.00    +0.026 A 
ATOM     14  C   UNL     1      -5.004 -12.662  -1.936  0.00  0.00    +0.043 A 
ATOM     15  N   UNL     1      -3.839 -12.073  -2.081  0.00  0.00    -0.373 N 
ATOM     16  H   UNL     1      -2.989 -12.522  -2.209  0.00  0.00    +0.160 HD
ENDBRANCH   4   7
BRANCH   1  17
ATOM     17  C   UNL     1      -1.836  -6.564  -0.976  0.00  0.00    +0.094 C 
BRANCH  17  18
ATOM     18  C   UNL     1      -0.333  -6.355  -1.169  0.00  0.00    +0.115 C 
BRANCH  18  21
ATOM     19  C   UNL     1       0.249  -4.276  -0.038  0.00  0.00    +0.246 C 
ATOM     20  O   UNL     1       0.349  -4.901   0.999  0.00  0.00    -0.270 OA
ATOM     21  N   UNL     1      -0.038  -4.920  -1.187  0.00  0.00    -0.300 N 
ATOM     22  C   UNL     1      -0.054  -4.185  -2.454  0.00  0.00    +0.132 C 
BRANCH  19  27
ATOM     23  C   UNL     1       0.997   1.429  -0.047  0.00  0.00    +0.044 C 
ATOM     24  C   UNL     1       0.800  -0.065  -0.045  0.00  0.00    -0.047 A 
ATOM     25  C   UNL     1       1.293  -0.826  -1.091  0.00  0.00    +0.004 A 
ATOM     26  C   UNL     1       1.118  -2.194  -1.094  0.00  0.00    +0.013 A 
ATOM     27  C   UNL     1       0.441  -2.811  -0.041  0.00  0.00    +0.037 A 
ATOM     28  C   UNL     1      -0.053  -2.037   1.011  0.00  0.00    +0.016 A 
ATOM     29  C   UNL     1       0.134  -0.670   1.005  0.00  0.00    -0.047 A 
ATOM     30  C   UNL     1      -0.395   0.166   2.142  0.00  0.00    +0.044 C 
ENDBRANCH  19  27
ENDBRANCH  18  21
ENDBRANCH  17  18
ENDBRANCH   1  17
TORSDOF 5
