REMARK  Name = ZINC54642138
REMARK  9 active torsions:
REMARK  status: ('A' for Active; 'I' for Inactive)
REMARK    1  A    between atoms: C_1  and  C_2
REMARK    2  A    between atoms: C_6  and  N_9
REMARK    3  A    between atoms: C_7  and  C_8
REMARK    4  A    between atoms: C_10  and  C_12
REMARK    5  A    between atoms: C_13  and  C_37
REMARK    6  A    between atoms: C_17  and  S_28
REMARK    7  A    between atoms: C_20  and  C_22
REMARK    8  A    between atoms: S_28  and  C_29
REMARK    9  A    between atoms: C_29  and  C_30
REMARK                            x       y       z     vdW  Elec       q    Type
REMARK                         _______ _______ _______ _____ _____    ______ ____
ROOT
ATOM      1  C   UNL     1       0.150  -4.687   3.699  0.00  0.00    +0.060 C 
ATOM      2  C   UNL     1       0.236  -6.024   3.747  0.00  0.00    +0.018 C 
ATOM      3  N   UNL     1       0.272  -6.712   4.936  0.00  0.00    -0.287 N 
ATOM      4  C   UNL     1      -0.046  -6.010   6.090  0.00  0.00    +0.219 A 
ATOM      5  N   UNL     1      -0.304  -6.446   7.294  0.00  0.00    -0.187 NA
ATOM      6  C   UNL     1      -0.568  -5.406   8.099  0.00  0.00    +0.211 A 
ATOM      7  N   UNL     1      -0.476  -4.292   7.405  0.00  0.00    -0.141 NA
ATOM      8  N   UNL     1      -0.137  -4.658   6.103  0.00  0.00    -0.220 N 
ATOM      9  C   UNL     1       0.104  -3.821   4.929  0.00  0.00    +0.177 C 
ATOM     10  C   UNL     1       0.295  -6.798   2.456  0.00  0.00    +0.061 C 
ATOM     11  H   UNL     1       0.510  -7.652   4.967  0.00  0.00    +0.155 HD
ENDROOT
BRANCH   9  12
ATOM     12  C   UNL     1       1.416  -3.096   5.083  0.00  0.00    -0.018 A 
ATOM     13  C   UNL     1       2.590  -3.814   5.219  0.00  0.00    +0.006 A 
ATOM     14  C   UNL     1       3.794  -3.149   5.361  0.00  0.00    +0.000 A 
ATOM     15  C   UNL     1       3.824  -1.767   5.366  0.00  0.00    +0.000 A 
ATOM     16  C   UNL     1       2.650  -1.050   5.230  0.00  0.00    +0.000 A 
ATOM     17  C   UNL     1       1.447  -1.714   5.084  0.00  0.00    +0.006 A 
ENDBRANCH   9  12
BRANCH   1  19
ATOM     18  N   UNL     1       1.213  -4.021   1.661  0.00  0.00    -0.281 N 
ATOM     19  C   UNL     1       0.107  -4.060   2.431  0.00  0.00    +0.248 C 
ATOM     20  O   UNL     1      -0.928  -3.555   2.036  0.00  0.00    -0.270 OA
ATOM     21  H   UNL     1       2.022  -4.471   1.950  0.00  0.00    +0.155 HD
BRANCH  18  27
ATOM     22  C   UNL     1       3.543  -1.271  -1.682  0.00  0.00    +0.044 C 
ATOM     23  C   UNL     1       2.309  -1.989  -1.200  0.00  0.00    -0.046 A 
ATOM     24  C   UNL     1       1.155  -1.966  -1.962  0.00  0.00    +0.004 A 
ATOM     25  C   UNL     1       0.020  -2.623  -1.524  0.00  0.00    +0.002 A 
ATOM     26  C   UNL     1       0.036  -3.306  -0.323  0.00  0.00    +0.023 A 
ATOM     27  C   UNL     1       1.193  -3.331   0.444  0.00  0.00    +0.037 A 
ATOM     28  C   UNL     1       2.333  -2.674  -0.002  0.00  0.00    -0.026 A 
ATOM     29  C   UNL     1       3.593  -2.704   0.825  0.00  0.00    +0.046 C 
ENDBRANCH  18  27
ENDBRANCH   1  19
BRANCH   6  30
ATOM     30  S   UNL     1      -0.971  -5.514   9.811  0.00  0.00    -0.080 S 
BRANCH  30  31
ATOM     31  C   UNL     1      -0.934  -7.295  10.158  0.00  0.00    +0.115 C 
BRANCH  31  32
ATOM     32  C   UNL     1      -1.267  -7.530  11.609  0.00  0.00    -0.002 A 
ATOM     33  C   UNL     1      -0.259  -7.553  12.555  0.00  0.00    +0.007 A 
ATOM     34  C   UNL     1      -0.563  -7.769  13.885  0.00  0.00    +0.000 A 
ATOM     35  C   UNL     1      -1.877  -7.962  14.273  0.00  0.00    +0.003 A 
ATOM     36  C   UNL     1      -2.886  -7.939  13.329  0.00  0.00    +0.038 A 
ATOM     37  C   UNL     1      -2.583  -7.717  11.996  0.00  0.00    +0.127 A 
ATOM     38  F   UNL     1      -3.569  -7.689  11.074  0.00  0.00    -0.205 F 
ENDBRANCH  31  32
ENDBRANCH  30  31
ENDBRANCH   6  30
TORSDOF 6
