REMARK  Name = ZINC21880990
REMARK  4 active torsions:
REMARK  status: ('A' for Active; 'I' for Inactive)
REMARK    1  A    between atoms: C_1  and  C_2
REMARK    2  A    between atoms: C_5  and  N_9
REMARK    3  A    between atoms: N_9  and  S_10
REMARK    4  A    between atoms: S_10  and  C_13
REMARK                            x       y       z     vdW  Elec       q    Type
REMARK                         _______ _______ _______ _____ _____    ______ ____
ROOT
ATOM      1  S   UNL     1       3.711  -0.158  -0.456  0.00  0.00    +0.072 S 
ATOM      2  O   UNL     1       4.830   0.539   0.075  0.00  0.00    -0.150 OA
ATOM      3  O   UNL     1       2.811  -0.890   0.363  0.00  0.00    -0.150 OA
ENDROOT
BRANCH   1   4
ATOM      4  C   UNL     1       2.746   1.030  -1.329  0.00  0.00    +0.109 A 
ATOM      5  C   UNL     1       3.350   2.131  -1.907  0.00  0.00    +0.030 A 
ATOM      6  C   UNL     1       2.583   3.050  -2.580  0.00  0.00    +0.025 A 
ATOM      7  C   UNL     1       1.190   2.900  -2.695  0.00  0.00    +0.037 A 
ATOM      8  C   UNL     1       0.594   1.796  -2.124  0.00  0.00    -0.024 A 
ATOM      9  C   UNL     1       1.384   0.870  -1.441  0.00  0.00    +0.034 A 
ATOM     10  C   UNL     1      -0.865   1.481  -2.180  0.00  0.00    +0.037 C 
ATOM     11  C   UNL     1      -1.564   1.853  -3.450  0.00  0.00    +0.014 C 
ATOM     12  C   UNL     1      -1.871   3.328  -3.557  0.00  0.00    +0.096 C 
ATOM     13  C   UNL     1      -0.649   4.130  -3.828  0.00  0.00    +0.217 C 
ATOM     14  O   UNL     1      -0.785   5.094  -4.551  0.00  0.00    -0.275 OA
ATOM     15  N   UNL     1       0.553   3.913  -3.373  0.00  0.00    -0.285 N 
ATOM     16  H   UNL     1       1.107   4.820  -3.654  0.00  0.00    +0.155 HD
ENDBRANCH   1   4
BRANCH   1  17
ATOM     17  N   UNL     1       4.306  -1.224  -1.576  0.00  0.00    -0.216 N 
ATOM     18  H   UNL     1       5.391  -1.312  -1.729  0.00  0.00    +0.174 HD
BRANCH  17  23
ATOM     19  C   UNL     1       0.742  -4.422  -4.616  0.00  0.00    +0.047 C 
ATOM     20  C   UNL     1       1.689  -3.572  -3.809  0.00  0.00    -0.015 A 
ATOM     21  C   UNL     1       1.934  -3.880  -2.483  0.00  0.00    +0.008 A 
ATOM     22  C   UNL     1       2.805  -3.107  -1.742  0.00  0.00    +0.025 A 
ATOM     23  C   UNL     1       3.428  -2.010  -2.325  0.00  0.00    +0.051 A 
ATOM     24  C   UNL     1       3.181  -1.702  -3.656  0.00  0.00    +0.063 A 
ATOM     25  C   UNL     1       2.312  -2.483  -4.396  0.00  0.00    +0.128 A 
ATOM     26  F   UNL     1       2.070  -2.184  -5.691  0.00  0.00    -0.205 F 
ENDBRANCH  17  23
ENDBRANCH   1  17
TORSDOF 3
