REMARK  Name = ZINC24018153
REMARK  8 active torsions:
REMARK  status: ('A' for Active; 'I' for Inactive)
REMARK    1  A    between atoms: C_1  and  C_2
REMARK    2  A    between atoms: C_5  and  C_9
REMARK    3  A    between atoms: C_6  and  C_8
REMARK    4  A    between atoms: C_15  and  C_17
REMARK    5  A    between atoms: C_17  and  N_18
REMARK    6  A    between atoms: C_23  and  C_30
REMARK    7  A    between atoms: C_26  and  C_28
REMARK    8  A    between atoms: C_26  and  C_29
REMARK                            x       y       z     vdW  Elec       q    Type
REMARK                         _______ _______ _______ _____ _____    ______ ____
ROOT
ATOM      1  C   UNL     1       7.379   1.569  -4.641  0.00  0.00    +0.080 A 
ATOM      2  C   UNL     1       6.263   1.327  -5.393  0.00  0.00    +0.076 A 
ATOM      3  S   UNL     1       5.065   0.992  -4.108  0.00  0.00    -0.060 S 
ATOM      4  C   UNL     1       6.165   1.206  -2.716  0.00  0.00    +0.165 A 
ATOM      5  N   UNL     1       7.299   1.507  -3.321  0.00  0.00    -0.225 NA
ATOM      6  N   UNL     1       5.897   1.091  -1.357  0.00  0.00    -0.263 N 
ATOM      7  C   UNL     1       4.654   0.776  -0.941  0.00  0.00    +0.237 C 
ATOM      8  O   UNL     1       3.771   0.592  -1.751  0.00  0.00    -0.274 OA
ATOM      9  H   UNL     1       6.698   1.257  -0.623  0.00  0.00    +0.157 HD
ENDROOT
BRANCH   1  14
ATOM     10  C   UNL     1      12.377   2.864  -7.193  0.00  0.00    +0.044 C 
ATOM     11  C   UNL     1      11.069   2.525  -6.525  0.00  0.00    -0.050 A 
ATOM     12  C   UNL     1      10.324   1.450  -6.975  0.00  0.00    +0.004 A 
ATOM     13  C   UNL     1       9.129   1.131  -6.364  0.00  0.00    +0.010 A 
ATOM     14  C   UNL     1       8.666   1.902  -5.298  0.00  0.00    +0.004 A 
ATOM     15  C   UNL     1       9.421   2.985  -4.850  0.00  0.00    -0.041 A 
ATOM     16  C   UNL     1      10.618   3.291  -5.465  0.00  0.00    +0.007 A 
ATOM     17  C   UNL     1       8.931   3.819  -3.694  0.00  0.00    +0.044 C 
ENDBRANCH   1  14
BRANCH   7  18
ATOM     18  C   UNL     1       4.363   0.651   0.533  0.00  0.00    +0.214 C 
BRANCH  18  19
ATOM     19  N   UNL     1       2.953   0.304   0.724  0.00  0.00    -0.215 N 
ATOM     20  C   UNL     1       2.484  -0.961   0.783  0.00  0.00    +0.247 C 
ATOM     21  O   UNL     1       3.122  -1.970   0.572  0.00  0.00    -0.273 OA
ATOM     22  C   UNL     1       1.020  -0.839   1.133  0.00  0.00    +0.113 C 
ATOM     23  C   UNL     1       0.158  -1.570   0.114  0.00  0.00    +0.038 C 
ATOM     24  C   UNL     1       0.277  -3.081   0.315  0.00  0.00    -0.011 C 
ATOM     25  C   UNL     1      -0.241  -3.432   1.707  0.00  0.00    +0.009 C 
ATOM     26  C   UNL     1       0.595  -2.754   2.787  0.00  0.00    -0.032 C 
ATOM     27  C   UNL     1       0.738  -1.259   2.561  0.00  0.00    +0.041 C 
ATOM     28  C   UNL     1      -0.122  -2.967   4.139  0.00  0.00    +0.011 C 
ATOM     29  C   UNL     1       1.969  -3.423   2.887  0.00  0.00    +0.011 C 
ATOM     30  C   UNL     1      -0.572  -3.799  -0.739  0.00  0.00    +0.007 C 
ATOM     31  N   UNL     1       0.766   0.615   1.013  0.00  0.00    -0.285 N 
ATOM     32  C   UNL     1       1.965   1.198   0.839  0.00  0.00    +0.310 C 
ATOM     33  O   UNL     1       2.133   2.402   0.792  0.00  0.00    -0.252 OA
ATOM     34  H   UNL     1      -0.262   1.001   1.074  0.00  0.00    +0.151 HD
ENDBRANCH  18  19
ENDBRANCH   7  18
TORSDOF 3
