REMARK  Name = ZINC34732177
REMARK  8 active torsions:
REMARK  status: ('A' for Active; 'I' for Inactive)
REMARK    1  A    between atoms: C_1  and  C_2
REMARK    2  A    between atoms: C_2  and  C_3
REMARK    3  A    between atoms: C_4  and  C_25
REMARK    4  A    between atoms: N_11  and  C_21
REMARK    5  A    between atoms: N_14  and  C_17
REMARK    6  A    between atoms: C_17  and  C_18
REMARK    7  A    between atoms: C_21  and  C_22
REMARK    8  A    between atoms: C_22  and  C_24
REMARK                            x       y       z     vdW  Elec       q    Type
REMARK                         _______ _______ _______ _____ _____    ______ ____
ROOT
ATOM      1  C   UNL     1       0.707  -0.490  -1.238  0.00  0.00    -0.040 C 
ATOM      2  C   UNL     1       1.986  -0.815  -1.285  0.00  0.00    -0.064 C 
ATOM      3  C   UNL     1       2.292  -1.248  -2.701  0.00  0.00    +0.073 C 
ATOM      4  C   UNL     1       0.991  -1.114  -3.433  0.00  0.00    +0.004 A 
ATOM      5  C   UNL     1       0.046  -0.670  -2.561  0.00  0.00    +0.003 A 
ATOM      6  C   UNL     1      -1.313  -0.484  -3.113  0.00  0.00    +0.078 A 
ATOM      7  C   UNL     1      -2.525  -0.013  -2.411  0.00  0.00    +0.266 A 
ATOM      8  O   UNL     1      -2.480   0.278  -1.230  0.00  0.00    -0.267 OA
ATOM      9  N   UNL     1      -3.679   0.090  -3.095  0.00  0.00    -0.256 N 
ATOM     10  C   UNL     1      -3.762  -0.224  -4.399  0.00  0.00    +0.334 A 
ATOM     11  O   UNL     1      -4.829  -0.114  -4.972  0.00  0.00    -0.246 OA
ATOM     12  N   UNL     1      -2.685  -0.657  -5.084  0.00  0.00    -0.278 N 
ATOM     13  C   UNL     1      -1.476  -0.789  -4.461  0.00  0.00    +0.098 A 
ATOM     14  S   UNL     1       0.143  -1.296  -4.978  0.00  0.00    -0.074 S 
ATOM     15  C   UNL     1       2.962  -0.763  -0.138  0.00  0.00    +0.039 C 
ENDROOT
BRANCH   1  17
ATOM     16  C   UNL     1      -0.019   1.526   0.010  0.00  0.00    +0.009 C 
ATOM     17  C   UNL     1       0.002  -0.004   0.002  0.00  0.00    +0.032 C 
ENDBRANCH   1  17
BRANCH  12  18
ATOM     18  C   UNL     1      -2.812  -0.990  -6.505  0.00  0.00    +0.222 C 
BRANCH  18  19
ATOM     19  C   UNL     1      -2.534   0.237  -7.335  0.00  0.00    +0.230 C 
ATOM     20  O   UNL     1      -2.257   1.286  -6.793  0.00  0.00    -0.274 OA
ATOM     21  N   UNL     1      -2.593   0.168  -8.680  0.00  0.00    -0.328 N 
ATOM     22  H   UNL     1      -2.814  -0.670  -9.113  0.00  0.00    +0.145 HD
ATOM     23  H   UNL     1      -2.414   0.958  -9.214  0.00  0.00    +0.145 HD
ENDBRANCH  18  19
ENDBRANCH  12  18
BRANCH   9  24
ATOM     24  C   UNL     1      -4.880   0.557  -2.398  0.00  0.00    +0.160 C 
BRANCH  24  25
ATOM     25  C   UNL     1      -4.969   2.058  -2.501  0.00  0.00    -0.060 C 
ATOM     26  C   UNL     1      -5.686   2.607  -3.450  0.00  0.00    +0.009 C 
ATOM     27  C   UNL     1      -4.234   2.926  -1.513  0.00  0.00    +0.040 C 
ENDBRANCH  24  25
ENDBRANCH   9  24
TORSDOF 5
