REMARK  Name = ZINC35939284
REMARK  9 active torsions:
REMARK  status: ('A' for Active; 'I' for Inactive)
REMARK    1  A    between atoms: C_1  and  N_2
REMARK    2  A    between atoms: C_6  and  C_8
REMARK    3  A    between atoms: C_8  and  C_9
REMARK    4  A    between atoms: C_9  and  N_10
REMARK    5  A    between atoms: C_11  and  C_13
REMARK    6  A    between atoms: C_13  and  N_14
REMARK    7  A    between atoms: C_20  and  C_22
REMARK    8  A    between atoms: N_27  and  C_28
REMARK    9  A    between atoms: C_28  and  C_29
REMARK                            x       y       z     vdW  Elec       q    Type
REMARK                         _______ _______ _______ _____ _____    ______ ____
ROOT
ATOM      1  N   UNL     1      -5.667  -1.791   4.969  0.00  0.00    -0.291 NA
ATOM      2  C   UNL     1      -6.578  -1.343   3.907  0.00  0.00    +0.104 C 
ATOM      3  C   UNL     1      -7.385  -0.139   4.406  0.00  0.00    +0.123 C 
ATOM      4  N   UNL     1      -8.038  -0.507   5.671  0.00  0.00    -0.294 N 
ATOM      5  C   UNL     1      -7.210  -1.092   6.737  0.00  0.00    +0.123 C 
ATOM      6  C   UNL     1      -6.410  -2.258   6.147  0.00  0.00    +0.104 C 
ATOM      7  C   UNL     1      -9.359  -0.311   5.850  0.00  0.00    +0.266 C 
ATOM      8  O   UNL     1      -9.908  -0.740   6.848  0.00  0.00    -0.268 OA
ENDROOT
BRANCH   7   9
ATOM      9  C   UNL     1     -10.139   0.421   4.839  0.00  0.00    +0.135 A 
ATOM     10  C   UNL     1     -11.507   0.476   4.920  0.00  0.00    +0.081 A 
ATOM     11  S   UNL     1     -11.887   1.462   3.478  0.00  0.00    -0.060 S 
ATOM     12  C   UNL     1     -10.208   1.700   2.916  0.00  0.00    +0.159 A 
ATOM     13  N   UNL     1      -9.524   1.046   3.832  0.00  0.00    -0.220 NA
ATOM     14  N   UNL     1      -9.747   2.395   1.810  0.00  0.00    -0.319 N 
ATOM     15  H   UNL     1      -8.795   2.440   1.628  0.00  0.00    +0.148 HD
BRANCH  14  16
ATOM     16  C   UNL     1     -10.696   3.063   0.917  0.00  0.00    +0.138 C 
BRANCH  16  17
ATOM     17  C   UNL     1      -9.943   3.742  -0.199  0.00  0.00    -0.030 A 
ATOM     18  C   UNL     1      -9.513   5.047  -0.048  0.00  0.00    +0.005 A 
ATOM     19  C   UNL     1      -8.823   5.670  -1.071  0.00  0.00    +0.000 A 
ATOM     20  C   UNL     1      -8.562   4.987  -2.245  0.00  0.00    +0.000 A 
ATOM     21  C   UNL     1      -8.991   3.681  -2.395  0.00  0.00    +0.000 A 
ATOM     22  C   UNL     1      -9.678   3.057  -1.370  0.00  0.00    +0.005 A 
ENDBRANCH  16  17
ENDBRANCH  14  16
ENDBRANCH   7   9
BRANCH   1  23
ATOM     23  C   UNL     1      -4.755  -2.832   4.475  0.00  0.00    +0.180 C 
BRANCH  23  25
ATOM     24  N   UNL     1      -2.913  -3.019   2.835  0.00  0.00    -0.314 N 
ATOM     25  C   UNL     1      -3.840  -2.244   3.432  0.00  0.00    +0.227 C 
ATOM     26  O   UNL     1      -3.938  -1.074   3.129  0.00  0.00    -0.274 OA
ATOM     27  H   UNL     1      -2.835  -3.955   3.077  0.00  0.00    +0.149 HD
BRANCH  24  28
ATOM     28  C   UNL     1      -2.023  -2.448   1.821  0.00  0.00    +0.102 C 
BRANCH  28  29
ATOM     29  C   UNL     1      -1.074  -3.532   1.307  0.00  0.00    +0.003 C 
BRANCH  29  35
ATOM     30  C   UNL     1      -0.726  -1.086  -1.177  0.00  0.00    -0.096 C 
ATOM     31  N   UNL     1      -0.928  -2.519  -0.930  0.00  0.00    +0.380 N 
ATOM     32  C   UNL     1      -0.467  -3.296  -2.100  0.00  0.00    -0.079 C 
ATOM     33  C   UNL     1       0.981  -3.720  -1.748  0.00  0.00    -0.020 C 
ATOM     34  C   UNL     1       0.864  -4.003  -0.227  0.00  0.00    -0.017 C 
ATOM     35  C   UNL     1      -0.144  -2.935   0.248  0.00  0.00    -0.068 C 
ATOM     36  H   UNL     1      -1.907  -2.702  -0.768  0.00  0.00    -0.082 HD
ENDBRANCH  29  35
ENDBRANCH  28  29
ENDBRANCH  24  28
ENDBRANCH  23  25
ENDBRANCH   1  23
TORSDOF 8
