REMARK  Name = ZINC08636055
REMARK  12 active torsions:
REMARK  status: ('A' for Active; 'I' for Inactive)
REMARK    1  A    between atoms: C_1  and  C_2
REMARK    2  A    between atoms: C_2  and  C_3
REMARK    3  A    between atoms: C_2  and  C_4
REMARK    4  A    between atoms: C_7  and  C_10
REMARK    5  A    between atoms: C_13  and  N_75
REMARK    6  A    between atoms: C_18  and  C_31
REMARK    7  A    between atoms: C_31  and  O_33
REMARK    8  A    between atoms: O_33  and  C_34
REMARK    9  A    between atoms: C_35  and  C_36
REMARK   10  A    between atoms: C_35  and  N_75
REMARK   11  A    between atoms: C_36  and  N_37
REMARK   12  A    between atoms: C_38  and  C_40
REMARK                            x       y       z     vdW  Elec       q    Type
REMARK                         _______ _______ _______ _____ _____    ______ ____
ROOT
ATOM      1  C   UNL     1       1.302  -1.532   1.373  0.00  0.00    -0.037 C 
ATOM      2  C   UNL     1       2.335  -1.583   2.502  0.00  0.00    -0.027 C 
ATOM      3  C   UNL     1       3.656  -0.986   2.011  0.00  0.00    -0.074 C 
ATOM      4  C   UNL     1       3.416   0.446   1.524  0.00  0.00    -0.025 C 
ATOM      5  C   UNL     1       2.358   0.426   0.419  0.00  0.00    -0.020 C 
ATOM      6  C   UNL     1       0.002  -0.004   0.002  0.00  0.00    +0.049 C 
ATOM      7  C   UNL     1      -0.411   1.471  -0.095  0.00  0.00    +0.033 C 
ATOM      8  C   UNL     1       0.835   2.298  -0.286  0.00  0.00    -0.022 A 
ATOM      9  C   UNL     1       2.084   1.831  -0.056  0.00  0.00    +0.007 A 
ATOM     10  N   UNL     1       3.000   2.814  -0.317  0.00  0.00    -0.359 N 
ATOM     11  H   UNL     1       3.961   2.719  -0.226  0.00  0.00    +0.166 HD
ATOM     12  C   UNL     1       2.358   3.948  -0.726  0.00  0.00    +0.047 A 
ATOM     13  C   UNL     1       0.966   3.670  -0.724  0.00  0.00    +0.003 A 
ATOM     14  C   UNL     1       0.033   4.641  -1.099  0.00  0.00    +0.010 A 
ATOM     15  C   UNL     1       0.526   5.868  -1.467  0.00  0.00    +0.001 A 
ATOM     16  C   UNL     1       1.883   6.144  -1.470  0.00  0.00    +0.002 A 
ATOM     17  C   UNL     1       2.830   5.203  -1.103  0.00  0.00    +0.026 A 
ATOM     18  N   UNL     1       1.106  -0.119   0.986  0.00  0.00    +0.399 N 
ATOM     19  H   UNL     1       0.859   0.421   1.823  0.00  0.00    -0.079 HD
ENDROOT
BRANCH   1  23
ATOM     20  C   UNL     1      -2.409  -3.127   2.763  0.00  0.00    -0.045 A 
ATOM     21  C   UNL     1      -1.565  -3.909   1.997  0.00  0.00    +0.004 A 
ATOM     22  C   UNL     1      -0.364  -3.393   1.547  0.00  0.00    +0.002 A 
ATOM     23  C   UNL     1      -0.007  -2.095   1.863  0.00  0.00    -0.061 A 
ATOM     24  C   UNL     1      -0.849  -1.315   2.633  0.00  0.00    +0.002 A 
ATOM     25  C   UNL     1      -2.053  -1.829   3.079  0.00  0.00    +0.004 A 
BRANCH  20  27
ATOM     26  C   UNL     1      -3.745  -3.660   4.782  0.00  0.00    +0.012 C 
ATOM     27  C   UNL     1      -3.719  -3.689   3.253  0.00  0.00    +0.013 C 
ATOM     28  C   UNL     1      -4.872  -2.845   2.707  0.00  0.00    +0.012 C 
ENDBRANCH  20  27
ENDBRANCH   1  23
BRANCH   3  29
ATOM     29  N   UNL     1       4.629  -0.964   3.120  0.00  0.00    +0.382 N 
ATOM     30  H   UNL     1       4.134  -0.776   4.001  0.00  0.00    -0.085 HD
ATOM     31  H   UNL     1       5.319  -0.223   2.951  0.00  0.00    -0.085 HD
BRANCH  29  32
ATOM     32  C   UNL     1       5.322  -2.262   3.220  0.00  0.00    -0.063 C 
BRANCH  32  33
ATOM     33  C   UNL     1       6.322  -2.209   4.376  0.00  0.00    +0.085 C 
BRANCH  33  34
ATOM     34  N   UNL     1       7.016  -3.495   4.481  0.00  0.00    -0.317 N 
ATOM     35  C   UNL     1       7.949  -3.682   5.436  0.00  0.00    +0.210 C 
ATOM     36  O   UNL     1       8.214  -2.785   6.208  0.00  0.00    -0.276 OA
ATOM     37  C   UNL     1       8.662  -5.005   5.544  0.00  0.00    +0.109 C 
ATOM     38  H   UNL     1       6.803  -4.212   3.864  0.00  0.00    +0.149 HD
ENDBRANCH  33  34
ENDBRANCH  32  33
ENDBRANCH  29  32
ENDBRANCH   3  29
BRANCH   6  39
ATOM     39  C   UNL     1       0.442  -0.493  -1.354  0.00  0.00    +0.294 C 
ATOM     40  O   UNL     1       1.482  -1.097  -1.471  0.00  0.00    -0.253 OA
BRANCH  39  41
ATOM     41  O   UNL     1      -0.323  -0.258  -2.432  0.00  0.00    -0.469 OA
ATOM     42  C   UNL     1       0.163  -0.758  -3.706  0.00  0.00    +0.280 C 
ENDBRANCH  39  41
ENDBRANCH   6  39
TORSDOF 8
