REMARK  Name = ZINC02485178
REMARK  8 active torsions:
REMARK  status: ('A' for Active; 'I' for Inactive)
REMARK    1  A    between atoms: C_3  and  S_24
REMARK    2  A    between atoms: C_6  and  S_7
REMARK    3  A    between atoms: S_7  and  C_8
REMARK    4  A    between atoms: C_11  and  S_14
REMARK    5  A    between atoms: S_14  and  N_17
REMARK    6  A    between atoms: N_17  and  C_18
REMARK    7  A    between atoms: S_24  and  N_27
REMARK    8  A    between atoms: N_27  and  C_28
REMARK                            x       y       z     vdW  Elec       q    Type
REMARK                         _______ _______ _______ _____ _____    ______ ____
ROOT
ATOM      1  S   UNL     1       0.064  -4.533  -0.023  0.00  0.00    -0.089 S 
ENDROOT
BRANCH   1   7
ATOM      2  C   UNL     1      -0.106  -3.952  -2.692  0.00  0.00    +0.017 A 
ATOM      3  C   UNL     1      -0.227  -4.285  -4.027  0.00  0.00    +0.029 A 
ATOM      4  C   UNL     1      -0.349  -5.610  -4.403  0.00  0.00    +0.105 A 
ATOM      5  C   UNL     1      -0.346  -6.607  -3.444  0.00  0.00    +0.029 A 
ATOM      6  C   UNL     1      -0.220  -6.283  -2.108  0.00  0.00    +0.017 A 
ATOM      7  C   UNL     1      -0.097  -4.952  -1.727  0.00  0.00    +0.013 A 
BRANCH   4   8
ATOM      8  S   UNL     1      -0.511  -6.029  -6.106  0.00  0.00    +0.059 S 
ATOM      9  O   UNL     1       0.062  -4.958  -6.844  0.00  0.00    -0.153 OA
ATOM     10  O   UNL     1      -0.062  -7.371  -6.239  0.00  0.00    -0.153 OA
BRANCH   8  11
ATOM     11  N   UNL     1      -2.129  -6.034  -6.458  0.00  0.00    -0.187 NA
ATOM     12  H   UNL     1      -2.568  -6.861  -6.712  0.00  0.00    +0.148 HD
BRANCH  11  13
ATOM     13  C   UNL     1      -2.898  -4.789  -6.386  0.00  0.00    +0.077 C 
ATOM     14  C   UNL     1      -3.569  -4.684  -5.015  0.00  0.00    +0.020 C 
ATOM     15  C   UNL     1      -4.372  -3.384  -4.939  0.00  0.00    +0.002 C 
ATOM     16  C   UNL     1      -5.443  -3.381  -6.032  0.00  0.00    +0.000 C 
ATOM     17  C   UNL     1      -4.772  -3.487  -7.403  0.00  0.00    +0.002 C 
ATOM     18  C   UNL     1      -3.969  -4.787  -7.479  0.00  0.00    +0.020 C 
ENDBRANCH  11  13
ENDBRANCH   8  11
ENDBRANCH   4   8
ENDBRANCH   1   7
BRANCH   1  19
ATOM     19  C   UNL     1       0.022  -2.771  -0.011  0.00  0.00    +0.013 A 
ATOM     20  C   UNL     1      -1.196  -2.103   0.012  0.00  0.00    +0.017 A 
ATOM     21  C   UNL     1      -1.224  -0.723   0.021  0.00  0.00    +0.029 A 
ATOM     22  C   UNL     1      -0.042  -0.005   0.008  0.00  0.00    +0.105 A 
ATOM     23  C   UNL     1       1.172  -0.666  -0.021  0.00  0.00    +0.029 A 
ATOM     24  C   UNL     1       1.208  -2.047  -0.025  0.00  0.00    +0.017 A 
BRANCH  22  25
ATOM     25  S   UNL     1      -0.084   1.757   0.020  0.00  0.00    +0.059 S 
ATOM     26  O   UNL     1       1.143   2.195  -0.547  0.00  0.00    -0.153 OA
ATOM     27  O   UNL     1      -1.347   2.137  -0.509  0.00  0.00    -0.153 OA
BRANCH  25  28
ATOM     28  N   UNL     1      -0.071   2.236   1.605  0.00  0.00    -0.187 NA
ATOM     29  H   UNL     1      -0.838   2.698   1.978  0.00  0.00    +0.148 HD
BRANCH  28  30
ATOM     30  C   UNL     1       1.099   1.962   2.443  0.00  0.00    +0.077 C 
ATOM     31  C   UNL     1       0.877   0.661   3.219  0.00  0.00    +0.020 C 
ATOM     32  C   UNL     1       2.098   0.375   4.095  0.00  0.00    +0.002 C 
ATOM     33  C   UNL     1       2.301   1.528   5.080  0.00  0.00    +0.000 C 
ATOM     34  C   UNL     1       2.522   2.829   4.305  0.00  0.00    +0.002 C 
ATOM     35  C   UNL     1       1.301   3.115   3.429  0.00  0.00    +0.020 C 
ENDBRANCH  28  30
ENDBRANCH  25  28
ENDBRANCH  22  25
ENDBRANCH   1  19
TORSDOF 8
