REMARK  Name = ZINC23465039
REMARK  10 active torsions:
REMARK  status: ('A' for Active; 'I' for Inactive)
REMARK    1  A    between atoms: C_1  and  C_2
REMARK    2  A    between atoms: C_4  and  C_34
REMARK    3  A    between atoms: C_5  and  N_9
REMARK    4  A    between atoms: C_6  and  C_8
REMARK    5  A    between atoms: C_10  and  C_12
REMARK    6  A    between atoms: C_12  and  N_13
REMARK    7  A    between atoms: C_14  and  C_16
REMARK    8  A    between atoms: C_16  and  O_17
REMARK    9  A    between atoms: O_17  and  C_18
REMARK   10  A    between atoms: C_18  and  C_20
REMARK                            x       y       z     vdW  Elec       q    Type
REMARK                         _______ _______ _______ _____ _____    ______ ____
ROOT
ATOM      1  N   UNL     1       0.858  -6.983   2.265  0.00  0.00    -0.304 N 
ATOM      2  C   UNL     1       0.984  -8.311   2.462  0.00  0.00    +0.251 C 
ATOM      3  O   UNL     1       0.718  -9.085   1.567  0.00  0.00    -0.272 OA
ATOM      4  H   UNL     1       1.071  -6.364   2.981  0.00  0.00    +0.149 HD
ENDROOT
BRANCH   1   5
ATOM      5  C   UNL     1       0.399  -6.476   0.969  0.00  0.00    +0.200 C 
BRANCH   5   7
ATOM      6  N   UNL     1      -0.052  -4.280  -0.077  0.00  0.00    -0.284 N 
ATOM      7  C   UNL     1       0.345  -4.970   1.011  0.00  0.00    +0.234 C 
ATOM      8  O   UNL     1       0.659  -4.380   2.022  0.00  0.00    -0.274 OA
ATOM      9  H   UNL     1      -0.370  -4.753  -0.862  0.00  0.00    +0.155 HD
BRANCH   6  14
ATOM     10  C   UNL     1       0.136   1.390  -0.065  0.00  0.00    +0.044 C 
ATOM     11  C   UNL     1       0.086  -0.116  -0.068  0.00  0.00    -0.050 A 
ATOM     12  C   UNL     1       0.759  -0.827  -1.045  0.00  0.00    +0.008 A 
ATOM     13  C   UNL     1       0.715  -2.207  -1.051  0.00  0.00    -0.029 A 
ATOM     14  C   UNL     1      -0.005  -2.882  -0.074  0.00  0.00    +0.039 A 
ATOM     15  C   UNL     1      -0.679  -2.165   0.906  0.00  0.00    -0.029 A 
ATOM     16  C   UNL     1      -0.628  -0.785   0.909  0.00  0.00    +0.008 A 
ATOM     17  C   UNL     1      -1.463  -2.893   1.968  0.00  0.00    +0.045 C 
ATOM     18  C   UNL     1       1.448  -2.981  -2.117  0.00  0.00    +0.045 C 
ENDBRANCH   6  14
ENDBRANCH   5   7
ENDBRANCH   1   5
BRANCH   2  19
ATOM     19  C   UNL     1       1.456  -8.833   3.794  0.00  0.00    +0.328 C 
BRANCH  19  20
ATOM     20  O   UNL     1       1.508 -10.261   3.755  0.00  0.00    -0.452 OA
BRANCH  20  21
ATOM     21  C   UNL     1       1.913 -10.889   4.876  0.00  0.00    +0.340 C 
ATOM     22  O   UNL     1       2.215 -10.243   5.860  0.00  0.00    -0.245 OA
BRANCH  21  23
ATOM     23  C   UNL     1       1.991 -12.362   4.909  0.00  0.00    +0.060 A 
ATOM     24  C   UNL     1       1.648 -13.107   3.771  0.00  0.00    +0.017 A 
ATOM     25  C   UNL     1       1.714 -14.468   3.787  0.00  0.00    +0.027 A 
ATOM     26  C   UNL     1       2.125 -15.139   4.937  0.00  0.00    +0.047 A 
ATOM     27  C   UNL     1       2.474 -14.402   6.088  0.00  0.00    +0.004 A 
ATOM     28  C   UNL     1       2.410 -13.010   6.067  0.00  0.00    +0.025 A 
ATOM     29  C   UNL     1       2.851 -15.389   7.095  0.00  0.00    -0.019 A 
ATOM     30  C   UNL     1       2.719 -16.605   6.532  0.00  0.00    +0.020 A 
ATOM     31  N   UNL     1       2.286 -16.470   5.243  0.00  0.00    -0.358 N 
ATOM     32  H   UNL     1       2.118 -17.205   4.633  0.00  0.00    +0.166 HD
ATOM     33  C   UNL     1       3.017 -17.899   7.255  0.00  0.00    +0.053 C 
ATOM     34  C   UNL     1       3.858 -17.581   8.496  0.00  0.00    +0.006 C 
ATOM     35  C   UNL     1       3.191 -16.457   9.293  0.00  0.00    +0.005 C 
ATOM     36  C   UNL     1       3.306 -15.143   8.510  0.00  0.00    +0.037 C 
ENDBRANCH  21  23
ENDBRANCH  20  21
ENDBRANCH  19  20
ENDBRANCH   2  19
TORSDOF 7
