REMARK  Name = ZINC21328182
REMARK  10 active torsions:
REMARK  status: ('A' for Active; 'I' for Inactive)
REMARK    1  A    between atoms: C_1  and  C_2
REMARK    2  A    between atoms: C_5  and  C_8
REMARK    3  A    between atoms: C_8  and  S_9
REMARK    4  A    between atoms: S_9  and  C_10
REMARK    5  A    between atoms: N_14  and  N_15
REMARK    6  A    between atoms: N_16  and  N_17
REMARK    7  A    between atoms: C_18  and  C_19
REMARK    8  A    between atoms: C_18  and  C_20
REMARK    9  A    between atoms: C_23  and  O_26
REMARK   10  A    between atoms: O_26  and  C_27
REMARK                            x       y       z     vdW  Elec       q    Type
REMARK                         _______ _______ _______ _____ _____    ______ ____
ROOT
ATOM      1  C   UNL     1       1.225   1.819   0.000  0.00  0.00    +0.210 A 
ATOM      2  N   UNL     1      -0.017   1.397   0.010  0.00  0.00    -0.119 NA
ATOM      3  N   UNL     1       0.002  -0.004   0.002  0.00  0.00    -0.109 NA
ATOM      4  C   UNL     1       1.254  -0.392  -0.012  0.00  0.00    +0.254 A 
ATOM      5  N   UNL     1       2.043   0.725  -0.014  0.00  0.00    -0.211 N 
ATOM      6  N   UNL     1       1.701  -1.706  -0.023  0.00  0.00    -0.204 N 
ATOM      7  H   UNL     1       2.780  -1.919  -0.034  0.00  0.00    +0.178 HD
ENDROOT
BRANCH   5   8
ATOM      8  N   UNL     1       3.409   0.744  -0.026  0.00  0.00    -0.294 N 
ATOM      9  H   UNL     1       3.971  -0.201  -0.037  0.00  0.00    +0.163 HD
ATOM     10  H   UNL     1       3.945   1.704  -0.026  0.00  0.00    +0.163 HD
ENDBRANCH   5   8
BRANCH   6  11
ATOM     11  N   UNL     1       0.778  -2.759  -0.019  0.00  0.00    -0.184 NA
ATOM     12  C   UNL     1       1.196  -3.989  -0.029  0.00  0.00    +0.063 C 
ATOM     13  C   UNL     1       2.674  -4.282  -0.044  0.00  0.00    +0.068 C 
BRANCH  12  14
ATOM     14  C   UNL     1       0.225  -5.098  -0.026  0.00  0.00    -0.002 A 
ATOM     15  C   UNL     1       0.672  -6.421  -0.042  0.00  0.00    +0.013 A 
ATOM     16  C   UNL     1      -0.239  -7.455  -0.033  0.00  0.00    +0.046 A 
ATOM     17  C   UNL     1      -1.601  -7.182  -0.020  0.00  0.00    +0.120 A 
ATOM     18  C   UNL     1      -2.051  -5.868  -0.009  0.00  0.00    +0.046 A 
ATOM     19  C   UNL     1      -1.146  -4.828  -0.011  0.00  0.00    +0.013 A 
BRANCH  17  20
ATOM     20  O   UNL     1      -2.497  -8.204  -0.017  0.00  0.00    -0.495 OA
ATOM     21  C   UNL     1      -1.966  -9.531  -0.029  0.00  0.00    +0.277 C 
ENDBRANCH  17  20
ENDBRANCH  12  14
ENDBRANCH   6  11
BRANCH   1  22
ATOM     22  S   UNL     1       1.747   3.502   0.003  0.00  0.00    -0.080 S 
BRANCH  22  23
ATOM     23  C   UNL     1       0.195   4.442   0.023  0.00  0.00    +0.112 C 
BRANCH  23  28
ATOM     24  C   UNL     1       1.371  10.100   0.039  0.00  0.00    +0.044 C 
ATOM     25  C   UNL     1       1.065   8.625   0.035  0.00  0.00    -0.050 A 
ATOM     26  C   UNL     1       0.913   7.954  -1.164  0.00  0.00    +0.003 A 
ATOM     27  C   UNL     1       0.631   6.600  -1.168  0.00  0.00    +0.005 A 
ATOM     28  C   UNL     1       0.502   5.918   0.027  0.00  0.00    -0.037 A 
ATOM     29  C   UNL     1       0.649   6.590   1.226  0.00  0.00    +0.005 A 
ATOM     30  C   UNL     1       0.935   7.942   1.230  0.00  0.00    +0.003 A 
ENDBRANCH  23  28
ENDBRANCH  22  23
ENDBRANCH   1  22
TORSDOF 7
