REMARK  Name = ZINC05125328
REMARK  5 active torsions:
REMARK  status: ('A' for Active; 'I' for Inactive)
REMARK    1  A    between atoms: C_3  and  N_19
REMARK    2  A    between atoms: C_5  and  S_7
REMARK    3  A    between atoms: S_7  and  N_10
REMARK    4  A    between atoms: N_10  and  N_11
REMARK    5  A    between atoms: N_11  and  C_12
REMARK                            x       y       z     vdW  Elec       q    Type
REMARK                         _______ _______ _______ _____ _____    ______ ____
ROOT
ATOM      1  S   UNL     1      -2.733   0.849   0.020  0.00  0.00    +0.074 S 
ATOM      2  O   UNL     1      -3.722   1.714  -0.522  0.00  0.00    -0.152 OA
ATOM      3  O   UNL     1      -2.447  -0.426  -0.539  0.00  0.00    -0.152 OA
ENDROOT
BRANCH   1   8
ATOM      4  C   UNL     1       1.175   1.783   0.000  0.00  0.00    +0.004 A 
ATOM      5  C   UNL     1       1.156   3.166   0.008  0.00  0.00    +0.033 A 
ATOM      6  C   UNL     1      -0.050   3.840   0.022  0.00  0.00    +0.128 A 
ATOM      7  C   UNL     1      -1.238   3.133   0.030  0.00  0.00    +0.061 A 
ATOM      8  C   UNL     1      -1.219   1.751   0.017  0.00  0.00    +0.109 A 
ATOM      9  C   UNL     1      -0.013   1.076   0.008  0.00  0.00    +0.029 A 
BRANCH   6  10
ATOM     10  N   UNL     1      -0.070   5.320   0.029  0.00  0.00    +0.056 N 
ATOM     11  O   UNL     1       0.976   5.944   0.022  0.00  0.00    -0.126 OA
ATOM     12  O   UNL     1      -1.133   5.915   0.043  0.00  0.00    -0.126 OA
ENDBRANCH   6  10
ENDBRANCH   1   8
BRANCH   1  13
ATOM     13  N   UNL     1      -3.146   0.590   1.602  0.00  0.00    -0.110 NA
ATOM     14  H   UNL     1      -3.240  -0.316   1.937  0.00  0.00    +0.172 HD
BRANCH  13  15
ATOM     15  N   UNL     1      -3.360   1.679   2.458  0.00  0.00    -0.262 N 
ATOM     16  H   UNL     1      -2.671   2.354   2.565  0.00  0.00    +0.168 HD
BRANCH  15  17
ATOM     17  C   UNL     1      -4.564   1.792   3.156  0.00  0.00    +0.043 A 
ATOM     18  C   UNL     1      -5.553   0.830   2.999  0.00  0.00    +0.025 A 
ATOM     19  C   UNL     1      -6.741   0.942   3.695  0.00  0.00    +0.017 A 
ATOM     20  C   UNL     1      -6.951   2.018   4.539  0.00  0.00    +0.018 A 
ATOM     21  C   UNL     1      -5.970   2.981   4.694  0.00  0.00    +0.017 A 
ATOM     22  C   UNL     1      -4.778   2.871   4.005  0.00  0.00    +0.025 A 
ATOM     23 BR   UNL     1      -8.581   2.172   5.485  0.00  0.00    -0.050 Br
ENDBRANCH  15  17
ENDBRANCH  13  15
ENDBRANCH   1  13
TORSDOF 5
