REMARK  Name = ZINC13118410
REMARK  4 active torsions:
REMARK  status: ('A' for Active; 'I' for Inactive)
REMARK    1  A    between atoms: C_6  and  N_7
REMARK    2  A    between atoms: N_7  and  N_8
REMARK    3  A    between atoms: C_9  and  C_10
REMARK    4  A    between atoms: C_9  and  C_12
REMARK                            x       y       z     vdW  Elec       q    Type
REMARK                         _______ _______ _______ _____ _____    ______ ____
ROOT
ATOM      1  N   UNL     1      -1.698  -2.882  -1.127  0.00  0.00    -0.168 NA
ATOM      2  C   UNL     1      -2.396  -2.826  -0.015  0.00  0.00    +0.197 C 
ENDROOT
BRANCH   2   3
ATOM      3  C   UNL     1      -3.746  -2.229  -0.020  0.00  0.00    +0.152 C 
ATOM      4  N   UNL     1      -4.795  -2.989  -0.179  0.00  0.00    -0.283 NA
ATOM      5  N   UNL     1      -3.898  -0.868   0.143  0.00  0.00    -0.309 N 
ATOM      6  C   UNL     1      -5.234  -0.265   0.266  0.00  0.00    +0.134 C 
ATOM      7  C   UNL     1      -5.244   0.642   1.502  0.00  0.00    +0.178 C 
ATOM      8  O   UNL     1      -4.142   1.549   1.429  0.00  0.00    -0.377 OA
ATOM      9  C   UNL     1      -2.860   0.916   1.438  0.00  0.00    +0.178 C 
ATOM     10  C   UNL     1      -2.728   0.023   0.204  0.00  0.00    +0.134 C 
ATOM     11  H   UNL     1      -5.675  -2.589  -0.264  0.00  0.00    +0.188 HD
ENDBRANCH   2   3
BRANCH   1  12
ATOM     12  N   UNL     1      -2.149  -2.327  -2.201  0.00  0.00    -0.236 N 
ATOM     13  H   UNL     1      -2.967  -1.806  -2.170  0.00  0.00    +0.174 HD
BRANCH  12  19
ATOM     14  C   UNL     1      -2.000  -1.970  -4.582  0.00  0.00    +0.026 A 
ATOM     15  C   UNL     1      -1.316  -2.119  -5.773  0.00  0.00    +0.017 A 
ATOM     16  C   UNL     1      -0.096  -2.772  -5.795  0.00  0.00    +0.018 A 
ATOM     17  C   UNL     1       0.443  -3.278  -4.625  0.00  0.00    +0.017 A 
ATOM     18  C   UNL     1      -0.236  -3.132  -3.431  0.00  0.00    +0.026 A 
ATOM     19  C   UNL     1      -1.461  -2.477  -3.405  0.00  0.00    +0.048 A 
ATOM     20 BR   UNL     1       0.836  -2.974  -7.428  0.00  0.00    -0.050 Br
ENDBRANCH  12  19
ENDBRANCH   1  12
BRANCH   2  21
ATOM     21  C   UNL     1      -1.847  -3.345   1.202  0.00  0.00    +0.124 C 
ATOM     22  N   UNL     1      -1.412  -3.757   2.167  0.00  0.00    -0.189 NA
ENDBRANCH   2  21
TORSDOF 4
