REMARK  Name = ZINC39664031
REMARK  8 active torsions:
REMARK  status: ('A' for Active; 'I' for Inactive)
REMARK    1  A    between atoms: C_1  and  O_2
REMARK    2  A    between atoms: O_2  and  C_3
REMARK    3  A    between atoms: C_6  and  C_9
REMARK    4  A    between atoms: C_9  and  C_11
REMARK    5  A    between atoms: C_9  and  N_36
REMARK    6  A    between atoms: C_11  and  N_12
REMARK    7  A    between atoms: C_13  and  C_15
REMARK    8  A    between atoms: C_26  and  C_28
REMARK                            x       y       z     vdW  Elec       q    Type
REMARK                         _______ _______ _______ _____ _____    ______ ____
ROOT
ATOM      1  C   UNL     1       7.895  -8.486   8.268  0.00  0.00    +0.100 C 
ATOM      2  C   UNL     1       7.123  -9.296   7.202  0.00  0.00    +0.121 C 
ATOM      3  N   UNL     1       7.539  -8.704   5.908  0.00  0.00    -0.296 N 
ATOM      4  C   UNL     1       8.986  -8.430   6.076  0.00  0.00    +0.115 C 
ATOM      5  C   UNL     1       9.119  -7.923   7.526  0.00  0.00    -0.004 C 
ATOM      6  C   UNL     1      10.406  -8.450   8.154  0.00  0.00    -0.010 C 
ATOM      7  C   UNL     1      11.609  -7.830   7.437  0.00  0.00    -0.082 C 
ATOM      8  N   UNL     1      11.549  -6.368   7.550  0.00  0.00    +0.379 N 
ATOM      9  C   UNL     1      10.354  -5.862   6.862  0.00  0.00    -0.082 C 
ATOM     10  C   UNL     1       9.098  -6.398   7.554  0.00  0.00    -0.010 C 
ATOM     11  C   UNL     1       6.774  -8.467   4.824  0.00  0.00    +0.249 C 
ATOM     12  O   UNL     1       7.280  -8.045   3.803  0.00  0.00    -0.270 OA
ATOM     13  H   UNL     1      11.509  -6.108   8.524  0.00  0.00    -0.086 HD
ATOM     14  H   UNL     1      12.373  -5.965   7.130  0.00  0.00    -0.086 HD
ENDROOT
BRANCH  11  15
ATOM     15  C   UNL     1       5.321  -8.722   4.877  0.00  0.00    +0.072 A 
ATOM     16  C   UNL     1       4.481  -7.849   5.573  0.00  0.00    +0.019 A 
ATOM     17  C   UNL     1       3.125  -8.091   5.619  0.00  0.00    +0.039 A 
ATOM     18  C   UNL     1       2.592  -9.199   4.976  0.00  0.00    +0.126 A 
ATOM     19  C   UNL     1       3.418 -10.069   4.283  0.00  0.00    +0.077 A 
ATOM     20  C   UNL     1       4.779  -9.834   4.225  0.00  0.00    +0.138 A 
ATOM     21  F   UNL     1       5.583 -10.680   3.545  0.00  0.00    -0.205 F 
ATOM     22  F   UNL     1       1.262  -9.430   5.026  0.00  0.00    -0.205 F 
ENDBRANCH  11  15
BRANCH   1  24
ATOM     23  N   UNL     1       7.287  -6.844  10.014  0.00  0.00    -0.316 N 
ATOM     24  C   UNL     1       7.040  -7.364   8.796  0.00  0.00    +0.218 C 
ATOM     25  O   UNL     1       6.128  -6.929   8.125  0.00  0.00    -0.275 OA
ATOM     26  H   UNL     1       7.966  -7.241  10.582  0.00  0.00    +0.149 HD
BRANCH  23  27
ATOM     27  C   UNL     1       6.531  -5.679  10.481  0.00  0.00    +0.093 C 
BRANCH  27  28
ATOM     28  C   UNL     1       7.089  -5.215  11.828  0.00  0.00    -0.020 C 
BRANCH  28  32
ATOM     29  C   UNL     1      11.066  -3.747  11.294  0.00  0.00    +0.120 A 
ATOM     30  C   UNL     1      10.858  -5.029  11.781  0.00  0.00    +0.046 A 
ATOM     31  C   UNL     1       9.572  -5.501  11.953  0.00  0.00    +0.005 A 
ATOM     32  C   UNL     1       8.491  -4.697  11.640  0.00  0.00    -0.059 A 
ATOM     33  C   UNL     1       8.695  -3.419  11.154  0.00  0.00    +0.005 A 
ATOM     34  C   UNL     1       9.980  -2.940  10.986  0.00  0.00    +0.046 A 
BRANCH  29  36
ATOM     35  C   UNL     1      13.400  -4.165  11.462  0.00  0.00    +0.277 C 
ATOM     36  O   UNL     1      12.331  -3.280  11.124  0.00  0.00    -0.495 OA
ENDBRANCH  29  36
ENDBRANCH  28  32
BRANCH  28  37
ATOM     37  N   UNL     1       6.240  -4.145  12.367  0.00  0.00    +0.385 N 
ATOM     38  C   UNL     1       4.887  -4.673  12.681  0.00  0.00    -0.078 C 
ATOM     39  C   UNL     1       4.339  -3.654  13.711  0.00  0.00    -0.020 C 
ATOM     40  C   UNL     1       5.589  -3.305  14.550  0.00  0.00    -0.020 C 
ATOM     41  C   UNL     1       6.789  -3.656  13.650  0.00  0.00    -0.078 C 
ATOM     42  H   UNL     1       6.173  -3.386  11.705  0.00  0.00    -0.081 HD
ENDBRANCH  28  37
ENDBRANCH  27  28
ENDBRANCH  23  27
ENDBRANCH   1  24
TORSDOF 7
