REMARK  Name = ZINC57991177
REMARK  7 active torsions:
REMARK  status: ('A' for Active; 'I' for Inactive)
REMARK    1  A    between atoms: C_4  and  C_7
REMARK    2  A    between atoms: C_7  and  N_8
REMARK    3  A    between atoms: C_11  and  C_14
REMARK    4  A    between atoms: N_19  and  C_20
REMARK    5  A    between atoms: C_20  and  C_21
REMARK    6  A    between atoms: N_26  and  C_27
REMARK    7  A    between atoms: C_27  and  C_28
REMARK                            x       y       z     vdW  Elec       q    Type
REMARK                         _______ _______ _______ _____ _____    ______ ____
ROOT
ATOM      1  C   UNL     1       6.402  -1.112   4.974  0.00  0.00    -0.065 C 
ATOM      2  C   UNL     1       6.709   0.194   5.736  0.00  0.00    -0.017 C 
ATOM      3  C   UNL     1       7.881  -0.212   6.669  0.00  0.00    -0.020 C 
ATOM      4  C   UNL     1       8.660  -1.210   5.776  0.00  0.00    -0.078 C 
ATOM      5  N   UNL     1       7.613  -1.952   5.034  0.00  0.00    +0.387 N 
ATOM      6  H   UNL     1       7.935  -2.151   4.099  0.00  0.00    -0.081 HD
ENDROOT
BRANCH   1  10
ATOM      7  N   UNL     1       4.153  -0.953   1.342  0.00  0.00    +0.382 N 
ATOM      8  C   UNL     1       4.424   0.329   2.003  0.00  0.00    -0.078 C 
ATOM      9  C   UNL     1       4.807   0.083   3.464  0.00  0.00    -0.017 C 
ATOM     10  C   UNL     1       6.060  -0.796   3.517  0.00  0.00    -0.028 C 
ATOM     11  C   UNL     1       5.790  -2.099   2.760  0.00  0.00    -0.017 C 
ATOM     12  C   UNL     1       5.371  -1.772   1.325  0.00  0.00    -0.078 C 
ATOM     13  H   UNL     1       3.427  -1.441   1.844  0.00  0.00    -0.081 HD
BRANCH   7  14
ATOM     14  C   UNL     1       3.711  -0.707  -0.038  0.00  0.00    -0.043 C 
BRANCH  14  18
ATOM     15  C   UNL     1      -0.017   1.378   0.010  0.00  0.00    +0.000 A 
ATOM     16  C   UNL     1       1.171   2.086   0.002  0.00  0.00    +0.000 A 
ATOM     17  C   UNL     1       2.377   1.411  -0.013  0.00  0.00    +0.002 A 
ATOM     18  C   UNL     1       2.396   0.029  -0.020  0.00  0.00    -0.064 A 
ATOM     19  C   UNL     1       1.208  -0.679  -0.012  0.00  0.00    +0.002 A 
ATOM     20  C   UNL     1       0.002  -0.004   0.002  0.00  0.00    +0.000 A 
ENDBRANCH  14  18
ENDBRANCH   7  14
ENDBRANCH   1  10
BRANCH   5  21
ATOM     21  C   UNL     1       7.308  -3.209   5.729  0.00  0.00    +0.019 C 
BRANCH  21  22
ATOM     22  C   UNL     1       8.512  -4.114   5.681  0.00  0.00    +0.204 C 
ATOM     23  O   UNL     1       9.524  -3.748   5.123  0.00  0.00    -0.277 OA
ATOM     24  N   UNL     1       8.464  -5.332   6.258  0.00  0.00    -0.242 N 
ATOM     25  C   UNL     1       9.540  -6.141   6.215  0.00  0.00    +0.306 C 
ATOM     26  O   UNL     1      10.555  -5.773   5.655  0.00  0.00    -0.252 OA
ATOM     27  N   UNL     1       9.492  -7.358   6.792  0.00  0.00    -0.292 N 
ATOM     28  H   UNL     1       7.654  -5.625   6.704  0.00  0.00    +0.159 HD
ATOM     29  H   UNL     1       8.683  -7.651   7.238  0.00  0.00    +0.151 HD
BRANCH  27  30
ATOM     30  C   UNL     1      10.663  -8.238   6.745  0.00  0.00    +0.180 C 
BRANCH  30  31
ATOM     31  C   UNL     1      10.350  -9.528   7.457  0.00  0.00    +0.122 A 
ATOM     32  C   UNL     1       9.831 -10.633   6.892  0.00  0.00    +0.046 A 
ATOM     33  C   UNL     1       9.703 -11.597   7.919  0.00  0.00    +0.041 A 
ATOM     34  C   UNL     1      10.152 -11.023   9.050  0.00  0.00    +0.195 A 
ATOM     35  O   UNL     1      10.547  -9.772   8.763  0.00  0.00    -0.466 OA
ENDBRANCH  30  31
ENDBRANCH  27  30
ENDBRANCH  21  22
ENDBRANCH   5  21
TORSDOF 7
