REMARK  Name = ZINC02465081
REMARK  5 active torsions:
REMARK  status: ('A' for Active; 'I' for Inactive)
REMARK    1  A    between atoms: C_4  and  C_7
REMARK    2  A    between atoms: C_7  and  N_53
REMARK    3  A    between atoms: C_10  and  N_13
REMARK    4  A    between atoms: N_13  and  S_14
REMARK    5  A    between atoms: S_14  and  C_17
REMARK                            x       y       z     vdW  Elec       q    Type
REMARK                         _______ _______ _______ _____ _____    ______ ____
ROOT
ATOM      1  N   UNL     1       0.835  -1.969   1.200  0.00  0.00    -0.187 NA
ATOM      2  H   UNL     1       0.924  -2.431   0.352  0.00  0.00    +0.148 HD
ENDROOT
BRANCH   1   5
ATOM      3  C   UNL     1      -0.019   1.526   0.010  0.00  0.00    -0.077 C 
ATOM      4  C   UNL     1       0.002  -0.004   0.002  0.00  0.00    +0.002 C 
ATOM      5  C   UNL     1       0.761  -0.506   1.233  0.00  0.00    +0.073 C 
ATOM      6  C   UNL     1       2.177   0.078   1.224  0.00  0.00    +0.002 C 
ATOM      7  C   UNL     1       2.093   1.605   1.197  0.00  0.00    -0.077 C 
ATOM      8  N   UNL     1       1.373   2.025  -0.024  0.00  0.00    +0.382 N 
ATOM      9  H   UNL     1       1.848   1.629  -0.844  0.00  0.00    -0.081 HD
BRANCH   8  10
ATOM     10  C   UNL     1       1.378   3.499  -0.132  0.00  0.00    -0.043 C 
BRANCH  10  14
ATOM     11  C   UNL     1       5.343   4.938   0.543  0.00  0.00    +0.000 A 
ATOM     12  C   UNL     1       4.939   4.597  -0.734  0.00  0.00    +0.000 A 
ATOM     13  C   UNL     1       3.656   4.131  -0.953  0.00  0.00    +0.002 A 
ATOM     14  C   UNL     1       2.776   4.006   0.106  0.00  0.00    -0.064 A 
ATOM     15  C   UNL     1       3.178   4.353   1.383  0.00  0.00    +0.002 A 
ATOM     16  C   UNL     1       4.463   4.814   1.602  0.00  0.00    +0.000 A 
ENDBRANCH  10  14
ENDBRANCH   8  10
ENDBRANCH   1   5
BRANCH   1  17
ATOM     17  S   UNL     1       0.766  -2.833   2.611  0.00  0.00    +0.059 S 
ATOM     18  O   UNL     1       0.834  -4.206   2.250  0.00  0.00    -0.153 OA
ATOM     19  O   UNL     1       1.697  -2.233   3.501  0.00  0.00    -0.153 OA
BRANCH  17  20
ATOM     20  C   UNL     1      -0.833  -2.573   3.304  0.00  0.00    +0.106 A 
ATOM     21  C   UNL     1      -1.874  -3.421   2.974  0.00  0.00    +0.030 A 
ATOM     22  C   UNL     1      -3.129  -3.220   3.515  0.00  0.00    +0.025 A 
ATOM     23  C   UNL     1      -3.343  -2.166   4.393  0.00  0.00    +0.037 A 
ATOM     24  C   UNL     1      -2.295  -1.317   4.723  0.00  0.00    -0.024 A 
ATOM     25  C   UNL     1      -1.042  -1.526   4.182  0.00  0.00    +0.034 A 
ATOM     26  C   UNL     1      -2.528  -0.174   5.676  0.00  0.00    +0.046 C 
ATOM     27  C   UNL     1      -3.945   0.369   5.487  0.00  0.00    +0.101 C 
ATOM     28  C   UNL     1      -4.933  -0.767   5.484  0.00  0.00    +0.218 C 
ATOM     29  O   UNL     1      -6.031  -0.608   5.973  0.00  0.00    -0.275 OA
ATOM     30  N   UNL     1      -4.611  -1.958   4.945  0.00  0.00    -0.285 N 
ATOM     31  H   UNL     1      -5.263  -2.676   4.940  0.00  0.00    +0.155 HD
ENDBRANCH  17  20
ENDBRANCH   1  17
TORSDOF 5
