REMARK  Name = ZINC12438864
REMARK  17 active torsions:
REMARK  status: ('A' for Active; 'I' for Inactive)
REMARK    1  A    between atoms: C_1  and  C_2
REMARK    2  A    between atoms: C_6  and  C_10
REMARK    3  A    between atoms: C_10  and  N_60
REMARK    4  A    between atoms: C_11  and  C_12
REMARK    5  A    between atoms: C_11  and  N_60
REMARK    6  A    between atoms: C_15  and  O_20
REMARK    7  A    between atoms: C_16  and  O_18
REMARK    8  A    between atoms: O_18  and  C_19
REMARK    9  A    between atoms: O_20  and  C_21
REMARK   10  A    between atoms: C_21  and  C_22
REMARK   11  A    between atoms: C_22  and  C_24
REMARK   12  A    between atoms: C_22  and  O_29
REMARK   13  A    between atoms: C_24  and  N_63
REMARK   14  A    between atoms: C_25  and  N_63
REMARK   15  A    between atoms: C_26  and  C_27
REMARK   16  A    between atoms: C_26  and  C_28
REMARK   17  A    between atoms: C_26  and  N_63
REMARK                            x       y       z     vdW  Elec       q    Type
REMARK                         _______ _______ _______ _____ _____    ______ ____
ROOT
ATOM      1  C   UNL     1      -5.069  -3.881   0.194  0.00  0.00    -0.061 A 
ATOM      2  C   UNL     1      -5.013  -2.503   0.090  0.00  0.00    +0.005 A 
ATOM      3  C   UNL     1      -3.790  -1.858   0.066  0.00  0.00    +0.049 A 
ATOM      4  C   UNL     1      -2.618  -2.592   0.146  0.00  0.00    +0.162 A 
ATOM      5  C   UNL     1      -2.674  -3.978   0.245  0.00  0.00    +0.162 A 
ATOM      6  C   UNL     1      -3.903  -4.619   0.275  0.00  0.00    +0.051 A 
ENDROOT
BRANCH   5   7
ATOM      7  O   UNL     1      -1.526  -4.704   0.319  0.00  0.00    -0.491 OA
ATOM      8  C   UNL     1      -1.660  -6.123   0.419  0.00  0.00    +0.277 C 
ENDBRANCH   5   7
BRANCH   1   9
ATOM      9  C   UNL     1      -6.404  -4.579   0.221  0.00  0.00    -0.046 C 
BRANCH   9  10
ATOM     10  N   UNL     1      -6.804  -4.909  -1.160  0.00  0.00    +0.385 N 
ATOM     11  H   UNL     1      -6.874  -4.044  -1.709  0.00  0.00    -0.085 HD
ATOM     12  H   UNL     1      -6.097  -5.524  -1.580  0.00  0.00    -0.085 HD
BRANCH  10  13
ATOM     13  C   UNL     1      -8.110  -5.595  -1.165  0.00  0.00    -0.024 C 
BRANCH  13  19
ATOM     14  C   UNL     1      -9.670  -7.959  -8.069  0.00  0.00    +0.053 C 
ATOM     15  C   UNL     1      -9.456  -7.279  -6.741  0.00  0.00    +0.007 A 
ATOM     16  C   UNL     1      -8.879  -7.755  -5.638  0.00  0.00    +0.103 A 
ATOM     17  N   UNL     1      -8.773  -6.976  -4.506  0.00  0.00    -0.300 N 
ATOM     18  C   UNL     1      -8.269  -7.087  -3.212  0.00  0.00    +0.114 A 
ATOM     19  C   UNL     1      -8.492  -5.920  -2.586  0.00  0.00    +0.044 A 
ATOM     20  N   UNL     1      -9.118  -5.094  -3.438  0.00  0.00    -0.228 NA
ATOM     21  C   UNL     1      -9.284  -5.707  -4.575  0.00  0.00    +0.178 A 
ATOM     22  S   UNL     1      -9.908  -5.626  -6.237  0.00  0.00    -0.055 S 
ENDBRANCH  13  19
ENDBRANCH  10  13
ENDBRANCH   9  10
ENDBRANCH   1   9
BRANCH   4  23
ATOM     23  O   UNL     1      -1.415  -1.958   0.122  0.00  0.00    -0.486 OA
BRANCH  23  24
ATOM     24  C   UNL     1      -1.433  -0.534   0.013  0.00  0.00    +0.258 C 
BRANCH  24  25
ATOM     25  C   UNL     1       0.002  -0.004   0.002  0.00  0.00    +0.135 C 
BRANCH  25  26
ATOM     26  O   UNL     1       0.671  -0.465  -1.174  0.00  0.00    -0.390 OA
ATOM     27  H   UNL     1       0.256  -0.181  -1.999  0.00  0.00    +0.210 HD
ENDBRANCH  25  26
BRANCH  25  28
ATOM     28  C   UNL     1      -0.019   1.526   0.010  0.00  0.00    -0.044 C 
BRANCH  28  30
ATOM     29  C   UNL     1       2.058   1.687   1.245  0.00  0.00    -0.096 C 
ATOM     30  N   UNL     1       1.373   2.022  -0.022  0.00  0.00    +0.381 N 
ATOM     31  H   UNL     1       1.870   1.570  -0.799  0.00  0.00    -0.082 HD
BRANCH  30  32
ATOM     32  C   UNL     1       1.384   3.485  -0.231  0.00  0.00    -0.075 C 
ATOM     33  C   UNL     1       2.833   3.977  -0.235  0.00  0.00    -0.014 C 
ATOM     34  C   UNL     1       0.735   3.797  -1.581  0.00  0.00    -0.014 C 
ENDBRANCH  30  32
ENDBRANCH  28  30
ENDBRANCH  25  28
ENDBRANCH  24  25
ENDBRANCH  23  24
ENDBRANCH   4  23
TORSDOF 12
