REMARK  Name = ZINC38596181
REMARK  10 active torsions:
REMARK  status: ('A' for Active; 'I' for Inactive)
REMARK    1  A    between atoms: C_1  and  C_2
REMARK    2  A    between atoms: C_2  and  C_4
REMARK    3  A    between atoms: C_2  and  N_24
REMARK    4  A    between atoms: C_4  and  C_6
REMARK    5  A    between atoms: C_4  and  N_11
REMARK    6  A    between atoms: N_14  and  C_17
REMARK    7  A    between atoms: C_17  and  C_18
REMARK    8  A    between atoms: N_24  and  S_25
REMARK    9  A    between atoms: S_25  and  C_28
REMARK   10  A    between atoms: C_32  and  N_34
REMARK                            x       y       z     vdW  Elec       q    Type
REMARK                         _______ _______ _______ _____ _____    ______ ____
ROOT
ATOM      1  C   UNL     1       0.742  -0.511   1.242  0.00  0.00    +0.112 C 
ENDROOT
BRANCH   1   2
ATOM      2  N   UNL     1       2.102   0.035   1.347  0.00  0.00    -0.297 NA
ATOM      3  C   UNL     1       2.898  -0.303   0.159  0.00  0.00    +0.066 C 
ATOM      4  C   UNL     1       4.285   0.333   0.280  0.00  0.00    -0.063 C 
ATOM      5  N   UNL     1       4.947  -0.164   1.493  0.00  0.00    +0.384 N 
ATOM      6  C   UNL     1       4.152   0.203   2.673  0.00  0.00    -0.063 C 
ATOM      7  C   UNL     1       2.765  -0.434   2.571  0.00  0.00    +0.066 C 
ATOM      8  H   UNL     1       5.031  -1.168   1.443  0.00  0.00    -0.081 HD
BRANCH   5   9
ATOM      9  C   UNL     1       6.285   0.433   1.600  0.00  0.00    -0.043 C 
BRANCH   9  10
ATOM     10  C   UNL     1       7.012  -0.168   2.775  0.00  0.00    -0.064 A 
ATOM     11  C   UNL     1       6.901   0.411   4.026  0.00  0.00    +0.002 A 
ATOM     12  C   UNL     1       7.567  -0.141   5.104  0.00  0.00    +0.000 A 
ATOM     13  C   UNL     1       8.344  -1.272   4.932  0.00  0.00    +0.000 A 
ATOM     14  C   UNL     1       8.454  -1.851   3.682  0.00  0.00    +0.000 A 
ATOM     15  C   UNL     1       7.784  -1.302   2.604  0.00  0.00    +0.002 A 
ENDBRANCH   9  10
ENDBRANCH   5   9
ENDBRANCH   1   2
BRANCH   1  16
ATOM     16  C   UNL     1       0.797  -2.015   1.323  0.00  0.00    +0.008 A 
ATOM     17  C   UNL     1       0.060  -2.856   2.089  0.00  0.00    +0.013 A 
ATOM     18  C   UNL     1       0.285  -4.216   1.997  0.00  0.00    +0.008 A 
ATOM     19  C   UNL     1       1.236  -4.670   1.144  0.00  0.00    +0.045 A 
ATOM     20  S   UNL     1       1.845  -3.151   0.430  0.00  0.00    -0.100 S 
ENDBRANCH   1  16
BRANCH   1  22
ATOM     21  C   UNL     1       0.071   1.432  -0.179  0.00  0.00    +0.027 C 
ATOM     22  C   UNL     1       0.127  -0.095  -0.096  0.00  0.00    +0.095 C 
BRANCH  22  23
ATOM     23  N   UNL     1      -1.229  -0.640  -0.201  0.00  0.00    -0.185 NA
ATOM     24  H   UNL     1      -1.786  -0.710   0.590  0.00  0.00    +0.148 HD
BRANCH  23  25
ATOM     25  S   UNL     1      -1.811  -1.135  -1.670  0.00  0.00    +0.059 S 
ATOM     26  O   UNL     1      -3.123  -1.631  -1.440  0.00  0.00    -0.153 OA
ATOM     27  O   UNL     1      -1.544  -0.084  -2.588  0.00  0.00    -0.153 OA
BRANCH  25  28
ATOM     28  C   UNL     1      -0.835  -2.510  -2.180  0.00  0.00    +0.107 A 
ATOM     29  C   UNL     1       0.310  -2.306  -2.927  0.00  0.00    +0.028 A 
ATOM     30  C   UNL     1       1.076  -3.385  -3.327  0.00  0.00    +0.004 A 
ATOM     31  C   UNL     1       0.697  -4.668  -2.980  0.00  0.00    +0.033 A 
ATOM     32  C   UNL     1      -0.447  -4.873  -2.233  0.00  0.00    +0.128 A 
ATOM     33  C   UNL     1      -1.211  -3.793  -1.829  0.00  0.00    +0.061 A 
BRANCH  32  34
ATOM     34  N   UNL     1      -0.853  -6.247  -1.861  0.00  0.00    +0.056 N 
ATOM     35  O   UNL     1      -0.184  -7.191  -2.212  0.00  0.00    -0.126 OA
ATOM     36  O   UNL     1      -1.854  -6.426  -1.208  0.00  0.00    -0.126 OA
ENDBRANCH  32  34
ENDBRANCH  25  28
ENDBRANCH  23  25
ENDBRANCH  22  23
ENDBRANCH   1  22
TORSDOF 9
