REMARK  Name = ZINC21881051
REMARK  7 active torsions:
REMARK  status: ('A' for Active; 'I' for Inactive)
REMARK    1  A    between atoms: C_1  and  N_2
REMARK    2  A    between atoms: N_2  and  C_3
REMARK    3  A    between atoms: N_2  and  C_4
REMARK    4  A    between atoms: C_7  and  C_10
REMARK    5  A    between atoms: C_10  and  N_11
REMARK    6  A    between atoms: N_11  and  S_12
REMARK    7  A    between atoms: S_12  and  C_15
REMARK                            x       y       z     vdW  Elec       q    Type
REMARK                         _______ _______ _______ _____ _____    ______ ____
ROOT
ATOM      1  S   UNL     1      -3.921  -0.965  -0.029  0.00  0.00    +0.059 S 
ATOM      2  O   UNL     1      -4.912  -0.105  -0.575  0.00  0.00    -0.153 OA
ATOM      3  O   UNL     1      -3.618  -2.233  -0.594  0.00  0.00    -0.153 OA
ENDROOT
BRANCH   1   4
ATOM      4  C   UNL     1      -2.416  -0.049  -0.010  0.00  0.00    +0.106 A 
ATOM      5  C   UNL     1      -2.441   1.334   0.007  0.00  0.00    +0.030 A 
ATOM      6  C   UNL     1      -1.259   2.033   0.017  0.00  0.00    +0.025 A 
ATOM      7  C   UNL     1      -0.017   1.374   0.010  0.00  0.00    +0.037 A 
ATOM      8  C   UNL     1       0.002  -0.004   0.002  0.00  0.00    -0.024 A 
ATOM      9  C   UNL     1      -1.206  -0.704  -0.012  0.00  0.00    +0.034 A 
ATOM     10  C   UNL     1       1.234  -0.850   0.011  0.00  0.00    +0.037 C 
ATOM     11  C   UNL     1       2.382  -0.319   0.811  0.00  0.00    +0.014 C 
ATOM     12  C   UNL     1       3.136   0.791   0.119  0.00  0.00    +0.096 C 
ATOM     13  C   UNL     1       2.369   2.065   0.115  0.00  0.00    +0.217 C 
ATOM     14  O   UNL     1       3.016   3.084   0.229  0.00  0.00    -0.275 OA
ATOM     15  N   UNL     1       1.079   2.206   0.004  0.00  0.00    -0.285 N 
ATOM     16  H   UNL     1       0.945   3.291  -0.121  0.00  0.00    +0.155 HD
ENDBRANCH   1   4
BRANCH   1  17
ATOM     17  N   UNL     1      -4.348  -1.239   1.547  0.00  0.00    -0.186 NA
ATOM     18  H   UNL     1      -4.208  -2.242   1.975  0.00  0.00    +0.148 HD
BRANCH  17  19
ATOM     19  C   UNL     1      -4.697  -0.114   2.418  0.00  0.00    +0.141 C 
BRANCH  19  23
ATOM     20  C   UNL     1      -6.657  -1.578   5.922  0.00  0.00    +0.029 A 
ATOM     21  C   UNL     1      -5.276  -1.438   5.905  0.00  0.00    +0.023 A 
ATOM     22  C   UNL     1      -4.645  -0.964   4.771  0.00  0.00    +0.007 A 
ATOM     23  C   UNL     1      -5.388  -0.630   3.653  0.00  0.00    -0.032 A 
ATOM     24  C   UNL     1      -6.765  -0.763   3.669  0.00  0.00    +0.007 A 
ATOM     25  C   UNL     1      -7.401  -1.242   4.798  0.00  0.00    +0.023 A 
BRANCH  20  27
ATOM     26  C   UNL     1      -6.513  -2.412   8.251  0.00  0.00    +0.129 C 
ATOM     27  N   UNL     1      -7.298  -2.057   7.067  0.00  0.00    -0.336 N 
ATOM     28  C   UNL     1      -8.755  -2.205   7.083  0.00  0.00    +0.129 C 
ENDBRANCH  20  27
ENDBRANCH  19  23
ENDBRANCH  17  19
ENDBRANCH   1  17
TORSDOF 5
