REMARK  Name = ZINC08920014
REMARK  8 active torsions:
REMARK  status: ('A' for Active; 'I' for Inactive)
REMARK    1  A    between atoms: C_1  and  C_2
REMARK    2  A    between atoms: C_2  and  O_3
REMARK    3  A    between atoms: O_3  and  C_4
REMARK    4  A    between atoms: C_7  and  C_10
REMARK    5  A    between atoms: N_17  and  C_20
REMARK    6  A    between atoms: C_20  and  C_21
REMARK    7  A    between atoms: N_23  and  C_24
REMARK    8  A    between atoms: C_25  and  C_33
REMARK                            x       y       z     vdW  Elec       q    Type
REMARK                         _______ _______ _______ _____ _____    ______ ____
ROOT
ATOM      1  C   UNL     1       0.146   5.267   0.028  0.00  0.00    +0.004 A 
ATOM      2  C   UNL     1       1.410   5.755   0.019  0.00  0.00    +0.056 A 
ATOM      3  S   UNL     1       2.420   4.287   0.002  0.00  0.00    -0.076 S 
ATOM      4  C   UNL     1       1.135   3.063   0.007  0.00  0.00    +0.116 A 
ATOM      5  C   UNL     1      -0.047   3.822   0.022  0.00  0.00    +0.080 A 
ATOM      6  C   UNL     1      -1.266   3.071   0.030  0.00  0.00    +0.263 A 
ATOM      7  O   UNL     1      -2.344   3.641   0.043  0.00  0.00    -0.267 OA
ATOM      8  N   UNL     1      -1.204   1.727   0.017  0.00  0.00    -0.290 N 
ATOM      9  C   UNL     1      -0.013   1.076   0.008  0.00  0.00    +0.203 A 
ATOM     10  N   UNL     1       1.116   1.733   0.001  0.00  0.00    -0.230 NA
ENDROOT
BRANCH   1  14
ATOM     11  C   UNL     1      -3.193   7.901   0.073  0.00  0.00    +0.121 A 
ATOM     12  C   UNL     1      -2.163   8.073   0.987  0.00  0.00    +0.046 A 
ATOM     13  C   UNL     1      -1.078   7.221   0.975  0.00  0.00    +0.012 A 
ATOM     14  C   UNL     1      -1.018   6.185   0.044  0.00  0.00    -0.016 A 
ATOM     15  C   UNL     1      -2.053   6.018  -0.876  0.00  0.00    +0.012 A 
ATOM     16  C   UNL     1      -3.136   6.870  -0.855  0.00  0.00    +0.046 A 
BRANCH  11  17
ATOM     17  O   UNL     1      -4.260   8.743   0.088  0.00  0.00    -0.492 OA
BRANCH  17  19
ATOM     18  C   UNL     1      -6.394   9.548  -0.711  0.00  0.00    +0.048 C 
ATOM     19  C   UNL     1      -5.285   8.508  -0.880  0.00  0.00    +0.225 C 
ENDBRANCH  17  19
ENDBRANCH  11  17
ENDBRANCH   1  14
BRANCH   8  20
ATOM     20  C   UNL     1      -2.446   0.951   0.019  0.00  0.00    +0.222 C 
BRANCH  20  21
ATOM     21  C   UNL     1      -2.865   0.677   1.441  0.00  0.00    +0.237 C 
ATOM     22  O   UNL     1      -2.192   1.090   2.361  0.00  0.00    -0.273 OA
ATOM     23  N   UNL     1      -3.988  -0.026   1.689  0.00  0.00    -0.278 N 
ATOM     24  H   UNL     1      -4.598  -0.400   0.854  0.00  0.00    +0.155 HD
BRANCH  23  25
ATOM     25  C   UNL     1      -4.373  -0.278   2.997  0.00  0.00    +0.084 A 
ATOM     26  C   UNL     1      -5.487  -0.971   3.450  0.00  0.00    +0.068 A 
ATOM     27  C   UNL     1      -5.662  -1.097   4.887  0.00  0.00    -0.023 A 
ATOM     28  C   UNL     1      -4.706  -0.505   5.636  0.00  0.00    -0.004 A 
ATOM     29  S   UNL     1      -3.585   0.203   4.463  0.00  0.00    -0.077 S 
ATOM     30  C   UNL     1      -4.627  -0.466   7.131  0.00  0.00    +0.043 C 
ATOM     31  C   UNL     1      -5.993  -0.877   7.699  0.00  0.00    +0.005 C 
ATOM     32  C   UNL     1      -6.460  -2.150   6.988  0.00  0.00    +0.005 C 
ATOM     33  C   UNL     1      -6.828  -1.831   5.538  0.00  0.00    +0.037 C 
BRANCH  26  34
ATOM     34  C   UNL     1      -6.450  -1.557   2.513  0.00  0.00    +0.244 C 
ATOM     35  O   UNL     1      -6.296  -2.697   2.115  0.00  0.00    -0.270 OA
ATOM     36  N   UNL     1      -7.507  -0.834   2.091  0.00  0.00    -0.325 N 
ATOM     37  H   UNL     1      -8.229  -1.273   1.388  0.00  0.00    +0.145 HD
ATOM     38  H   UNL     1      -7.646   0.197   2.450  0.00  0.00    +0.145 HD
ENDBRANCH  26  34
ENDBRANCH  23  25
ENDBRANCH  20  21
ENDBRANCH   8  20
TORSDOF 7
