REMARK  Name = ZINC21236860
REMARK  13 active torsions:
REMARK  status: ('A' for Active; 'I' for Inactive)
REMARK    1  A    between atoms: C_1  and  C_2
REMARK    2  A    between atoms: C_2  and  C_3
REMARK    3  A    between atoms: C_2  and  C_4
REMARK    4  A    between atoms: C_4  and  O_5
REMARK    5  A    between atoms: O_5  and  C_6
REMARK    6  A    between atoms: C_9  and  C_12
REMARK    7  A    between atoms: C_17  and  C_22
REMARK    8  A    between atoms: C_25  and  O_30
REMARK    9  A    between atoms: C_26  and  O_28
REMARK   10  A    between atoms: O_28  and  C_29
REMARK   11  A    between atoms: O_30  and  C_31
REMARK   12  A    between atoms: C_31  and  C_32
REMARK   13  A    between atoms: C_31  and  C_33
REMARK                            x       y       z     vdW  Elec       q    Type
REMARK                         _______ _______ _______ _____ _____    ______ ____
ROOT
ATOM      1  C   UNL     1       1.305  -6.048   1.680  0.00  0.00    +0.136 C 
ATOM      2  C   UNL     1       0.113  -6.561   2.455  0.00  0.00    +0.036 C 
ATOM      3  C   UNL     1      -0.895  -7.293   1.957  0.00  0.00    +0.017 C 
ATOM      4  C   UNL     1      -2.052  -7.714   2.849  0.00  0.00    +0.059 C 
ATOM      5  C   UNL     1      -1.553  -7.946   4.274  0.00  0.00    +0.032 C 
ATOM      6  C   UNL     1      -0.949  -6.629   4.777  0.00  0.00    +0.088 C 
ATOM      7  C   UNL     1       0.128  -6.204   3.825  0.00  0.00    +0.163 C 
ATOM      8  O   UNL     1       1.047  -5.528   4.244  0.00  0.00    -0.292 OA
ATOM      9  N   UNL     1      -0.994  -7.717   0.671  0.00  0.00    -0.316 N 
ATOM     10  C   UNL     1      -0.787  -6.915  -0.447  0.00  0.00    +0.052 A 
ATOM     11  C   UNL     1      -1.793  -6.638  -1.356  0.00  0.00    +0.025 A 
ATOM     12  C   UNL     1      -1.505  -5.872  -2.473  0.00  0.00    +0.002 A 
ATOM     13  C   UNL     1      -0.224  -5.393  -2.678  0.00  0.00    +0.002 A 
ATOM     14  C   UNL     1       0.778  -5.654  -1.760  0.00  0.00    +0.025 A 
ATOM     15  C   UNL     1       0.488  -6.401  -0.628  0.00  0.00    +0.049 A 
ATOM     16  N   UNL     1       1.446  -6.622   0.359  0.00  0.00    -0.331 N 
ATOM     17  H   UNL     1      -1.253  -8.764   0.456  0.00  0.00    +0.152 HD
ATOM     18  H   UNL     1       2.321  -7.245   0.120  0.00  0.00    +0.147 HD
ENDROOT
BRANCH   1  22
ATOM     19  C   UNL     1       0.947  -1.808   1.286  0.00  0.00    +0.121 A 
ATOM     20  C   UNL     1       2.002  -2.353   2.004  0.00  0.00    +0.046 A 
ATOM     21  C   UNL     1       2.112  -3.723   2.135  0.00  0.00    +0.009 A 
ATOM     22  C   UNL     1       1.179  -4.553   1.541  0.00  0.00    -0.023 A 
ATOM     23  C   UNL     1       0.130  -4.013   0.820  0.00  0.00    +0.009 A 
ATOM     24  C   UNL     1       0.012  -2.642   0.691  0.00  0.00    +0.046 A 
BRANCH  19  25
ATOM     25  O   UNL     1       0.833  -0.460   1.161  0.00  0.00    -0.492 OA
BRANCH  25  26
ATOM     26  C   UNL     1       1.832   0.338   1.800  0.00  0.00    +0.232 C 
BRANCH  26  28
ATOM     27  C   UNL     1       2.534   2.675   2.336  0.00  0.00    +0.010 C 
ATOM     28  C   UNL     1       1.539   1.819   1.550  0.00  0.00    +0.020 C 
ATOM     29  C   UNL     1       1.675   2.121   0.056  0.00  0.00    +0.010 C 
ENDBRANCH  26  28
ENDBRANCH  25  26
ENDBRANCH  19  25
ENDBRANCH   1  22
BRANCH   5  30
ATOM     30  C   UNL     1      -2.702  -8.352   5.160  0.00  0.00    -0.040 A 
ATOM     31  C   UNL     1      -3.796  -7.518   5.296  0.00  0.00    +0.008 A 
ATOM     32  C   UNL     1      -4.854  -7.886   6.106  0.00  0.00    +0.050 A 
ATOM     33  C   UNL     1      -4.818  -9.094   6.786  0.00  0.00    +0.162 A 
ATOM     34  C   UNL     1      -3.716  -9.933   6.650  0.00  0.00    +0.162 A 
ATOM     35  C   UNL     1      -2.663  -9.560   5.831  0.00  0.00    +0.053 A 
BRANCH  34  36
ATOM     36  O   UNL     1      -3.677 -11.119   7.314  0.00  0.00    -0.491 OA
ATOM     37  C   UNL     1      -2.515 -11.929   7.127  0.00  0.00    +0.277 C 
ENDBRANCH  34  36
BRANCH  33  38
ATOM     38  O   UNL     1      -5.858  -9.458   7.583  0.00  0.00    -0.486 OA
BRANCH  38  39
ATOM     39  C   UNL     1      -7.007  -8.608   7.580  0.00  0.00    +0.167 C 
ATOM     40  C   UNL     1      -8.241  -9.418   7.984  0.00  0.00    +0.051 C 
ATOM     41  C   UNL     1      -6.799  -7.465   8.575  0.00  0.00    +0.051 C 
ENDBRANCH  38  39
ENDBRANCH  33  38
ENDBRANCH   5  30
TORSDOF 8
