REMARK  Name = ZINC12542718
REMARK  11 active torsions:
REMARK  status: ('A' for Active; 'I' for Inactive)
REMARK    1  A    between atoms: C_1  and  C_2
REMARK    2  A    between atoms: C_2  and  C_3
REMARK    3  A    between atoms: C_3  and  C_5
REMARK    4  A    between atoms: C_3  and  N_65
REMARK    5  A    between atoms: C_8  and  S_16
REMARK    6  A    between atoms: N_9  and  C_10
REMARK    7  A    between atoms: S_16  and  C_17
REMARK    8  A    between atoms: C_17  and  C_18
REMARK    9  A    between atoms: C_23  and  C_26
REMARK   10  A    between atoms: C_33  and  N_65
REMARK   11  A    between atoms: C_34  and  N_65
REMARK                            x       y       z     vdW  Elec       q    Type
REMARK                         _______ _______ _______ _____ _____    ______ ____
ROOT
ATOM      1  C   UNL     1      -0.198  -0.438   2.332  0.00  0.00    +0.121 A 
ATOM      2  N   UNL     1      -0.070  -1.167   1.260  0.00  0.00    -0.135 NA
ATOM      3  N   UNL     1      -0.268  -2.405   1.542  0.00  0.00    -0.123 NA
ATOM      4  C   UNL     1      -0.546  -2.533   2.819  0.00  0.00    +0.192 A 
ATOM      5  N   UNL     1      -0.510  -1.281   3.363  0.00  0.00    -0.304 N 
ENDROOT
BRANCH   5   6
ATOM      6  C   UNL     1      -0.754  -0.916   4.761  0.00  0.00    +0.091 C 
ATOM      7  C   UNL     1       0.261  -1.627   5.658  0.00  0.00    +0.025 C 
ATOM      8  C   UNL     1       0.006  -1.246   7.118  0.00  0.00    +0.002 C 
ATOM      9  C   UNL     1      -1.410  -1.669   7.515  0.00  0.00    +0.000 C 
ATOM     10  C   UNL     1      -2.425  -0.959   6.618  0.00  0.00    +0.002 C 
ATOM     11  C   UNL     1      -2.170  -1.339   5.158  0.00  0.00    +0.025 C 
ENDBRANCH   5   6
BRANCH   1  12
ATOM     12  C   UNL     1      -0.039   1.058   2.419  0.00  0.00    +0.000 C 
BRANCH  12  15
ATOM     13  C   UNL     1      -0.031   1.448   0.029  0.00  0.00    -0.096 C 
ATOM     14  C   UNL     1      -0.919   3.130   1.527  0.00  0.00    -0.096 C 
ATOM     15  N   UNL     1      -0.765   1.679   1.291  0.00  0.00    +0.383 N 
ATOM     16  H   UNL     1      -1.696   1.252   1.219  0.00  0.00    -0.082 HD
ENDBRANCH  12  15
BRANCH  12  18
ATOM     17  C   UNL     1       2.150   0.878   3.609  0.00  0.00    +0.002 C 
ATOM     18  C   UNL     1       1.447   1.417   2.362  0.00  0.00    -0.011 C 
ENDBRANCH  12  18
ENDBRANCH   1  12
BRANCH   4  19
ATOM     19  S   UNL     1      -0.898  -4.035   3.670  0.00  0.00    -0.077 S 
BRANCH  19  20
ATOM     20  C   UNL     1      -0.756  -5.212   2.302  0.00  0.00    +0.173 C 
BRANCH  20  21
ATOM     21  C   UNL     1      -1.025  -6.605   2.808  0.00  0.00    +0.229 C 
ATOM     22  O   UNL     1      -1.286  -6.785   3.978  0.00  0.00    -0.275 OA
ATOM     23  N   UNL     1      -0.974  -7.652   1.960  0.00  0.00    -0.264 N 
ATOM     24  C   UNL     1      -1.222  -8.937   2.427  0.00  0.00    +0.165 A 
ATOM     25  N   UNL     1      -1.221 -10.080   1.767  0.00  0.00    -0.225 NA
ATOM     26  C   UNL     1      -1.482 -11.226   2.376  0.00  0.00    +0.080 A 
ATOM     27  C   UNL     1      -1.756 -11.227   3.716  0.00  0.00    +0.076 A 
ATOM     28  S   UNL     1      -1.618  -9.482   4.082  0.00  0.00    -0.060 S 
ATOM     29  H   UNL     1      -0.765  -7.508   1.024  0.00  0.00    +0.157 HD
BRANCH  26  30
ATOM     30  C   UNL     1      -1.475 -12.499   1.613  0.00  0.00    +0.001 A 
ATOM     31  C   UNL     1      -1.743 -13.703   2.261  0.00  0.00    +0.013 A 
ATOM     32  C   UNL     1      -1.741 -14.884   1.546  0.00  0.00    +0.039 A 
ATOM     33  C   UNL     1      -1.461 -14.874   0.189  0.00  0.00    +0.123 A 
ATOM     34  C   UNL     1      -1.189 -13.679  -0.457  0.00  0.00    +0.039 A 
ATOM     35  C   UNL     1      -1.194 -12.493   0.248  0.00  0.00    +0.013 A 
ATOM     36  F   UNL     1      -1.454 -16.032  -0.505  0.00  0.00    -0.205 F 
ENDBRANCH  26  30
ENDBRANCH  20  21
ENDBRANCH  19  20
ENDBRANCH   4  19
TORSDOF 8
