REMARK  Name = ZINC24951405
REMARK  5 active torsions:
REMARK  status: ('A' for Active; 'I' for Inactive)
REMARK    1  A    between atoms: C_1  and  C_2
REMARK    2  A    between atoms: C_2  and  C_22
REMARK    3  A    between atoms: N_5  and  C_9
REMARK    4  A    between atoms: C_9  and  C_10
REMARK    5  A    between atoms: C_13  and  C_15
REMARK                            x       y       z     vdW  Elec       q    Type
REMARK                         _______ _______ _______ _____ _____    ______ ____
ROOT
ATOM      1  C   UNL     1      -0.664   2.878  -4.285  0.00  0.00    +0.047 C 
ATOM      2  C   UNL     1      -1.423   2.820  -2.958  0.00  0.00    +0.135 C 
ATOM      3  C   UNL     1      -0.456   2.741  -1.793  0.00  0.00    +0.251 C 
ATOM      4  O   UNL     1       0.382   3.559  -1.480  0.00  0.00    -0.272 OA
ATOM      5  N   UNL     1      -0.721   1.571  -1.179  0.00  0.00    -0.218 N 
ATOM      6  C   UNL     1      -1.708   0.905  -1.790  0.00  0.00    +0.310 C 
ATOM      7  O   UNL     1      -2.121  -0.177  -1.422  0.00  0.00    -0.252 OA
ATOM      8  N   UNL     1      -2.193   1.569  -2.855  0.00  0.00    -0.281 N 
ATOM      9  H   UNL     1      -2.988   1.350  -3.583  0.00  0.00    +0.152 HD
ENDROOT
BRANCH   2  10
ATOM     10  C   UNL     1      -2.331   4.015  -2.813  0.00  0.00    -0.012 A 
ATOM     11  C   UNL     1      -1.881   5.148  -2.161  0.00  0.00    +0.010 A 
ATOM     12  C   UNL     1      -2.711   6.245  -2.025  0.00  0.00    +0.050 A 
ATOM     13  C   UNL     1      -3.998   6.211  -2.542  0.00  0.00    +0.162 A 
ATOM     14  C   UNL     1      -4.448   5.073  -3.200  0.00  0.00    +0.162 A 
ATOM     15  C   UNL     1      -3.609   3.977  -3.337  0.00  0.00    +0.055 A 
ATOM     16  O   UNL     1      -5.705   5.020  -3.720  0.00  0.00    -0.485 OA
ATOM     17  C   UNL     1      -6.641   5.991  -3.239  0.00  0.00    +0.270 C 
ATOM     18  C   UNL     1      -5.955   7.364  -3.246  0.00  0.00    +0.270 C 
ATOM     19  O   UNL     1      -4.806   7.296  -2.393  0.00  0.00    -0.485 OA
ENDBRANCH   2  10
BRANCH   5  20
ATOM     20  C   UNL     1      -0.013   1.086   0.008  0.00  0.00    +0.174 C 
BRANCH  20  21
ATOM     21  C   UNL     1      -0.718   1.572   1.248  0.00  0.00    +0.067 A 
ATOM     22  C   UNL     1      -1.631   0.777   1.867  0.00  0.00    +0.072 A 
ATOM     23  S   UNL     1      -2.120   1.834   3.225  0.00  0.00    -0.075 S 
ATOM     24  C   UNL     1      -1.058   3.214   2.820  0.00  0.00    +0.110 A 
ATOM     25  N   UNL     1      -0.448   2.760   1.734  0.00  0.00    -0.242 NA
BRANCH  24  26
ATOM     26  C   UNL     1      -0.899   4.511   3.513  0.00  0.00    +0.025 A 
ATOM     27  C   UNL     1       0.001   5.460   3.027  0.00  0.00    +0.012 A 
ATOM     28  C   UNL     1       0.140   6.670   3.675  0.00  0.00    +0.001 A 
ATOM     29  C   UNL     1      -0.601   6.939   4.812  0.00  0.00    +0.001 A 
ATOM     30  C   UNL     1      -1.491   6.002   5.303  0.00  0.00    +0.020 A 
ATOM     31  C   UNL     1      -1.645   4.788   4.661  0.00  0.00    +0.051 A 
ATOM     32 CL   UNL     1      -2.761   3.612   5.280  0.00  0.00    -0.083 Cl
ENDBRANCH  24  26
ENDBRANCH  20  21
ENDBRANCH   5  20
TORSDOF 4
