REMARK  Name = ZINC12372475
REMARK  8 active torsions:
REMARK  status: ('A' for Active; 'I' for Inactive)
REMARK    1  A    between atoms: C_1  and  C_2
REMARK    2  A    between atoms: C_3  and  N_9
REMARK    3  A    between atoms: N_9  and  C_10
REMARK    4  A    between atoms: C_10  and  C_11
REMARK    5  A    between atoms: N_13  and  N_14
REMARK    6  A    between atoms: C_15  and  C_16
REMARK    7  A    between atoms: C_15  and  C_17
REMARK    8  A    between atoms: C_20  and  N_23
REMARK                            x       y       z     vdW  Elec       q    Type
REMARK                         _______ _______ _______ _____ _____    ______ ____
ROOT
ATOM      1  C   UNL     1      -0.042   6.178   1.811  0.00  0.00    +0.249 C 
ATOM      2  O   UNL     1       1.030   6.706   2.023  0.00  0.00    -0.272 OA
ATOM      3  N   UNL     1      -0.975   6.820   1.081  0.00  0.00    -0.205 N 
ATOM      4  H   UNL     1      -1.832   6.399   0.911  0.00  0.00    +0.177 HD
ENDROOT
BRANCH   3   5
ATOM      5  N   UNL     1      -0.708   8.096   0.568  0.00  0.00    -0.185 NA
ATOM      6  C   UNL     1      -1.644   8.762  -0.036  0.00  0.00    +0.063 C 
ATOM      7  C   UNL     1      -1.315  10.048  -0.748  0.00  0.00    +0.068 C 
BRANCH   6   8
ATOM      8  C   UNL     1      -3.031   8.258  -0.026  0.00  0.00    -0.002 A 
ATOM      9  C   UNL     1      -3.844   8.418  -1.150  0.00  0.00    +0.012 A 
ATOM     10  C   UNL     1      -5.137   7.940  -1.136  0.00  0.00    +0.033 A 
ATOM     11  C   UNL     1      -5.634   7.313  -0.007  0.00  0.00    +0.126 A 
ATOM     12  C   UNL     1      -4.837   7.157   1.113  0.00  0.00    +0.033 A 
ATOM     13  C   UNL     1      -3.539   7.625   1.111  0.00  0.00    +0.012 A 
BRANCH  11  14
ATOM     14  N   UNL     1      -7.025   6.808   0.004  0.00  0.00    +0.056 N 
ATOM     15  O   UNL     1      -7.466   6.257   0.996  0.00  0.00    -0.126 OA
ATOM     16  O   UNL     1      -7.730   6.944  -0.981  0.00  0.00    -0.126 OA
ENDBRANCH  11  14
ENDBRANCH   6   8
ENDBRANCH   3   5
BRANCH   1  17
ATOM     17  C   UNL     1      -0.329   4.806   2.363  0.00  0.00    +0.199 C 
BRANCH  17  18
ATOM     18  N   UNL     1       0.835   4.328   3.113  0.00  0.00    -0.335 N 
ATOM     19  H   UNL     1       1.626   4.884   3.188  0.00  0.00    +0.147 HD
BRANCH  18  22
ATOM     20  C   UNL     1       3.139   3.478   4.550  0.00  0.00    +0.047 C 
ATOM     21  C   UNL     1       1.909   2.616   4.433  0.00  0.00    -0.011 A 
ATOM     22  C   UNL     1       0.806   3.071   3.722  0.00  0.00    +0.032 A 
ATOM     23  C   UNL     1      -0.326   2.273   3.617  0.00  0.00    +0.023 A 
ATOM     24  C   UNL     1      -0.353   1.030   4.219  0.00  0.00    +0.003 A 
ATOM     25  C   UNL     1       0.746   0.580   4.927  0.00  0.00    +0.020 A 
ATOM     26  C   UNL     1       1.876   1.372   5.034  0.00  0.00    +0.046 A 
ATOM     27 CL   UNL     1       3.254   0.802   5.924  0.00  0.00    -0.083 Cl
ENDBRANCH  18  22
ENDBRANCH  17  18
ENDBRANCH   1  17
TORSDOF 6
