REMARK  Name = ZINC27843916
REMARK  4 active torsions:
REMARK  status: ('A' for Active; 'I' for Inactive)
REMARK    1  A    between atoms: C_5  and  C_7
REMARK    2  A    between atoms: C_7  and  C_14
REMARK    3  A    between atoms: N_8  and  N_9
REMARK    4  A    between atoms: N_11  and  N_12
REMARK                            x       y       z     vdW  Elec       q    Type
REMARK                         _______ _______ _______ _____ _____    ______ ____
ROOT
ATOM      1  C   UNL     1       1.285  -2.112  -0.069  0.00  0.00    +0.091 C 
ATOM      2  N   UNL     1       0.468  -2.380   0.904  0.00  0.00    -0.183 NA
ENDROOT
BRANCH   1   3
ATOM      3  C   UNL     1       2.639  -2.771  -0.119  0.00  0.00    +0.017 C 
ATOM      4  C   UNL     1       3.402  -2.467   1.172  0.00  0.00    +0.016 C 
ATOM      5  C   UNL     1       4.777  -3.137   1.121  0.00  0.00    -0.010 C 
ATOM      6  C   UNL     1       4.603  -4.650   0.976  0.00  0.00    +0.007 C 
ATOM      7  C   UNL     1       3.840  -4.954  -0.315  0.00  0.00    -0.010 C 
ATOM      8  C   UNL     1       2.465  -4.285  -0.264  0.00  0.00    +0.016 C 
ATOM      9  C   UNL     1       4.626  -4.413  -1.511  0.00  0.00    +0.007 C 
ATOM     10  C   UNL     1       4.800  -2.900  -1.366  0.00  0.00    -0.010 C 
ATOM     11  C   UNL     1       5.563  -2.596  -0.075  0.00  0.00    +0.007 C 
ATOM     12  C   UNL     1       3.425  -2.231  -1.315  0.00  0.00    +0.016 C 
ENDBRANCH   1   3
BRANCH   1  17
ATOM     13  C   UNL     1      -0.727   0.333  -2.071  0.00  0.00    +0.004 A 
ATOM     14  C   UNL     1       0.182   0.586  -3.090  0.00  0.00    +0.020 A 
ATOM     15  C   UNL     1       1.409  -0.051  -3.080  0.00  0.00    +0.111 A 
ATOM     16  N   UNL     1       1.727  -0.892  -2.118  0.00  0.00    -0.254 NA
ATOM     17  C   UNL     1       0.887  -1.163  -1.124  0.00  0.00    +0.087 A 
ATOM     18  C   UNL     1      -0.369  -0.555  -1.073  0.00  0.00    +0.029 A 
ENDBRANCH   1  17
BRANCH   2  19
ATOM     19  N   UNL     1       0.797  -3.367   1.843  0.00  0.00    -0.215 N 
ATOM     20  C   UNL     1      -0.107  -3.721   2.808  0.00  0.00    +0.175 C 
ATOM     21  N   UNL     1       0.214  -4.684   3.724  0.00  0.00    -0.293 N 
ATOM     22  S   UNL     1      -1.592  -2.983   2.866  0.00  0.00    -0.013 SA
ATOM     23  H   UNL     1       1.665  -3.799   1.809  0.00  0.00    +0.176 HD
ATOM     24  H   UNL     1       1.082  -5.116   3.691  0.00  0.00    +0.186 HD
BRANCH  21  25
ATOM     25  N   UNL     1      -0.711  -5.047   4.712  0.00  0.00    -0.303 N 
ATOM     26  H   UNL     1      -0.484  -5.730   5.362  0.00  0.00    +0.162 HD
ATOM     27  H   UNL     1      -1.579  -4.615   4.746  0.00  0.00    +0.162 HD
ENDBRANCH  21  25
ENDBRANCH   2  19
TORSDOF 4
