REMARK  Name = ZINC35745694
REMARK  11 active torsions:
REMARK  status: ('A' for Active; 'I' for Inactive)
REMARK    1  A    between atoms: C_1  and  C_2
REMARK    2  A    between atoms: C_2  and  C_3
REMARK    3  A    between atoms: C_3  and  N_4
REMARK    4  A    between atoms: N_4  and  C_5
REMARK    5  A    between atoms: N_4  and  C_23
REMARK    6  A    between atoms: C_5  and  C_6
REMARK    7  A    between atoms: C_12  and  C_17
REMARK    8  A    between atoms: C_23  and  C_24
REMARK    9  A    between atoms: C_24  and  C_26
REMARK   10  A    between atoms: C_24  and  O_33
REMARK   11  A    between atoms: C_26  and  C_27
REMARK                            x       y       z     vdW  Elec       q    Type
REMARK                         _______ _______ _______ _____ _____    ______ ____
ROOT
ATOM      1  C   UNL     1      -0.886  -2.591   1.119  0.00  0.00    -0.003 C 
ENDROOT
BRANCH   1   2
ATOM      2  C   UNL     1      -0.638  -4.061   0.902  0.00  0.00    +0.094 A 
ATOM      3  N   UNL     1      -0.054  -4.792   1.887  0.00  0.00    -0.312 N 
ATOM      4  H   UNL     1       0.195  -4.357   2.717  0.00  0.00    +0.170 HD
ATOM      5  C   UNL     1       0.184  -6.107   1.733  0.00  0.00    +0.260 A 
ATOM      6  O   UNL     1       0.709  -6.750   2.627  0.00  0.00    -0.267 OA
ATOM      7  C   UNL     1      -0.187  -6.742   0.505  0.00  0.00    +0.080 A 
ATOM      8  C   UNL     1      -0.035  -8.135   0.103  0.00  0.00    +0.004 A 
ATOM      9  C   UNL     1      -0.467  -8.509  -1.125  0.00  0.00    +0.056 A 
ATOM     10  S   UNL     1      -1.107  -6.996  -1.817  0.00  0.00    -0.076 S 
ATOM     11  C   UNL     1      -0.783  -5.907  -0.454  0.00  0.00    +0.116 A 
ATOM     12  N   UNL     1      -0.992  -4.613  -0.228  0.00  0.00    -0.229 NA
BRANCH   8  13
ATOM     13  C   UNL     1       0.579  -9.123   1.021  0.00  0.00    -0.017 A 
ATOM     14  C   UNL     1       1.796  -8.840   1.641  0.00  0.00    +0.008 A 
ATOM     15  C   UNL     1       2.364  -9.764   2.495  0.00  0.00    +0.001 A 
ATOM     16  C   UNL     1       1.727 -10.968   2.737  0.00  0.00    +0.000 A 
ATOM     17  C   UNL     1       0.520 -11.254   2.126  0.00  0.00    +0.001 A 
ATOM     18  C   UNL     1      -0.060 -10.336   1.274  0.00  0.00    +0.008 A 
ENDBRANCH   8  13
ENDBRANCH   1   2
BRANCH   1  19
ATOM     19  N   UNL     1      -1.662  -2.054  -0.007  0.00  0.00    +0.386 N 
ATOM     20  H   UNL     1      -1.202  -2.288  -0.875  0.00  0.00    -0.081 HD
BRANCH  19  21
ATOM     21  C   UNL     1      -1.760  -0.594   0.117  0.00  0.00    -0.078 C 
BRANCH  21  23
ATOM     22  C   UNL     1      -0.487   1.550  -0.043  0.00  0.00    +0.002 C 
ATOM     23  C   UNL     1      -0.368   0.025  -0.027  0.00  0.00    -0.022 C 
ENDBRANCH  21  23
ENDBRANCH  19  21
BRANCH  19  24
ATOM     24  C   UNL     1      -3.010  -2.638   0.005  0.00  0.00    -0.046 C 
BRANCH  24  25
ATOM     25  C   UNL     1      -3.777  -2.177  -1.236  0.00  0.00    +0.102 C 
BRANCH  25  26
ATOM     26  O   UNL     1      -3.148  -2.701  -2.407  0.00  0.00    -0.393 OA
ATOM     27  H   UNL     1      -3.114  -3.667  -2.436  0.00  0.00    +0.210 HD
ENDBRANCH  25  26
BRANCH  25  28
ATOM     28  C   UNL     1      -5.219  -2.682  -1.161  0.00  0.00    +0.064 C 
BRANCH  28  29
ATOM     29  C   UNL     1      -6.007  -2.126  -2.320  0.00  0.00    -0.045 A 
ATOM     30  C   UNL     1      -6.663  -0.916  -2.192  0.00  0.00    +0.004 A 
ATOM     31  C   UNL     1      -7.386  -0.406  -3.254  0.00  0.00    +0.000 A 
ATOM     32  C   UNL     1      -7.451  -1.106  -4.445  0.00  0.00    +0.000 A 
ATOM     33  C   UNL     1      -6.795  -2.316  -4.573  0.00  0.00    +0.000 A 
ATOM     34  C   UNL     1      -6.068  -2.824  -3.512  0.00  0.00    +0.004 A 
ENDBRANCH  28  29
ENDBRANCH  25  28
ENDBRANCH  24  25
ENDBRANCH  19  24
ENDBRANCH   1  19
TORSDOF 10
