REMARK  Name = ZINC13776491
REMARK  11 active torsions:
REMARK  status: ('A' for Active; 'I' for Inactive)
REMARK    1  A    between atoms: C_1  and  C_2
REMARK    2  A    between atoms: C_2  and  C_4
REMARK    3  A    between atoms: C_2  and  O_35
REMARK    4  A    between atoms: C_4  and  N_5
REMARK    5  A    between atoms: N_5  and  C_6
REMARK    6  A    between atoms: C_6  and  C_7
REMARK    7  A    between atoms: C_7  and  C_9
REMARK    8  A    between atoms: C_7  and  O_10
REMARK    9  A    between atoms: C_17  and  C_21
REMARK   10  A    between atoms: C_31  and  S_33
REMARK   11  A    between atoms: S_33  and  C_34
REMARK                            x       y       z     vdW  Elec       q    Type
REMARK                         _______ _______ _______ _____ _____    ______ ____
ROOT
ATOM      1  N   UNL     1       0.867  -1.927  -1.299  0.00  0.00    -0.309 N 
ATOM      2  C   UNL     1       1.883  -2.659  -0.706  0.00  0.00    +0.140 A 
ATOM      3  C   UNL     1       1.877  -4.048  -0.748  0.00  0.00    +0.080 A 
ATOM      4  C   UNL     1       2.900  -4.792  -0.151  0.00  0.00    +0.094 A 
ATOM      5  C   UNL     1       2.781  -6.258  -0.263  0.00  0.00    +0.037 A 
ATOM      6  C   UNL     1       3.668  -7.236   0.244  0.00  0.00    -0.030 A 
ATOM      7  C   UNL     1       3.398  -8.558   0.043  0.00  0.00    -0.018 A 
ATOM      8  C   UNL     1       2.250  -8.935  -0.663  0.00  0.00    +0.076 A 
ATOM      9  N   UNL     1       1.421  -8.014  -1.136  0.00  0.00    -0.239 NA
ATOM     10  C   UNL     1       1.653  -6.732  -0.958  0.00  0.00    +0.112 A 
ATOM     11  S   UNL     1       0.784  -5.259  -1.440  0.00  0.00    -0.064 S 
ATOM     12  C   UNL     1       4.483  -9.405   0.674  0.00  0.00    +0.038 C 
ATOM     13  C   UNL     1       5.665  -8.439   0.907  0.00  0.00    +0.009 C 
ATOM     14  C   UNL     1       4.952  -7.074   1.025  0.00  0.00    +0.036 C 
ATOM     15  N   UNL     1       3.877  -4.082   0.458  0.00  0.00    -0.221 NA
ATOM     16  C   UNL     1       3.854  -2.766   0.480  0.00  0.00    +0.190 A 
ATOM     17  N   UNL     1       2.892  -2.049  -0.087  0.00  0.00    -0.206 NA
ENDROOT
BRANCH   8  18
ATOM     18  C   UNL     1       1.958 -10.372  -0.882  0.00  0.00    +0.001 A 
ATOM     19  C   UNL     1       2.143 -11.290   0.151  0.00  0.00    +0.010 A 
ATOM     20  C   UNL     1       1.870 -12.626  -0.059  0.00  0.00    +0.001 A 
ATOM     21  C   UNL     1       1.414 -13.056  -1.292  0.00  0.00    +0.000 A 
ATOM     22  C   UNL     1       1.229 -12.150  -2.321  0.00  0.00    +0.001 A 
ATOM     23  C   UNL     1       1.493 -10.811  -2.121  0.00  0.00    +0.010 A 
ENDBRANCH   8  18
BRANCH  16  24
ATOM     24  S   UNL     1       5.165  -1.917   1.295  0.00  0.00    -0.089 S 
ATOM     25  C   UNL     1       6.237  -3.247   1.906  0.00  0.00    +0.093 C 
ENDBRANCH  16  24
BRANCH   1  26
ATOM     26  C   UNL     1      -0.288  -2.615  -1.882  0.00  0.00    +0.137 C 
BRANCH  26  28
ATOM     27  C   UNL     1      -1.171  -3.742  -3.929  0.00  0.00    +0.039 C 
ATOM     28  C   UNL     1       0.035  -3.023  -3.320  0.00  0.00    +0.129 C 
BRANCH  28  29
ATOM     29  O   UNL     1       0.334  -1.858  -4.091  0.00  0.00    -0.391 OA
ATOM     30  H   UNL     1       0.548  -2.042  -5.016  0.00  0.00    +0.210 HD
ENDBRANCH  28  29
ENDBRANCH  26  28
ENDBRANCH   1  26
BRANCH   1  31
ATOM     31  C   UNL     1       0.947  -0.465  -1.343  0.00  0.00    +0.137 C 
BRANCH  31  32
ATOM     32  C   UNL     1       0.174   0.124  -0.161  0.00  0.00    +0.129 C 
ATOM     33  C   UNL     1       0.143   1.649  -0.281  0.00  0.00    +0.039 C 
BRANCH  32  34
ATOM     34  O   UNL     1       0.817  -0.244   1.060  0.00  0.00    -0.391 OA
ATOM     35  H   UNL     1       1.700   0.136   1.171  0.00  0.00    +0.210 HD
ENDBRANCH  32  34
ENDBRANCH  31  32
ENDBRANCH   1  31
TORSDOF 8
