REMARK  Name = ZINC67215843
REMARK  6 active torsions:
REMARK  status: ('A' for Active; 'I' for Inactive)
REMARK    1  A    between atoms: C_1  and  C_2
REMARK    2  A    between atoms: C_3  and  C_15
REMARK    3  A    between atoms: N_5  and  C_7
REMARK    4  A    between atoms: C_15  and  N_16
REMARK    5  A    between atoms: N_16  and  C_17
REMARK    6  A    between atoms: C_17  and  C_18
REMARK                            x       y       z     vdW  Elec       q    Type
REMARK                         _______ _______ _______ _____ _____    ______ ____
ROOT
ATOM      1  C   UNL     1       0.209   1.496  -0.004  0.00  0.00    +0.068 C 
ATOM      2  C   UNL     1       0.105  -0.007  -0.004  0.00  0.00    +0.063 A 
ATOM      3  C   UNL     1      -0.086  -0.814  -1.131  0.00  0.00    -0.005 A 
ATOM      4  C   UNL     1      -0.127  -2.104  -0.719  0.00  0.00    +0.134 A 
ATOM      5  N   UNL     1       0.034  -2.109   0.630  0.00  0.00    -0.220 N 
ATOM      6  N   UNL     1       0.182  -0.780   1.049  0.00  0.00    -0.170 NA
ATOM      7 CL   UNL     1      -0.344  -3.497  -1.731  0.00  0.00    -0.062 Cl
ENDROOT
BRANCH   5   8
ATOM      8  C   UNL     1       0.052  -3.242   1.455  0.00  0.00    +0.085 A 
ATOM      9  C   UNL     1       0.842  -4.334   1.120  0.00  0.00    +0.029 A 
ATOM     10  C   UNL     1       0.859  -5.449   1.935  0.00  0.00    +0.002 A 
ATOM     11  C   UNL     1       0.090  -5.479   3.084  0.00  0.00    +0.002 A 
ATOM     12  C   UNL     1      -0.698  -4.394   3.421  0.00  0.00    +0.022 A 
ATOM     13  C   UNL     1      -0.715  -3.273   2.613  0.00  0.00    +0.066 A 
ATOM     14 CL   UNL     1      -1.699  -1.908   3.040  0.00  0.00    -0.081 Cl
ENDBRANCH   5   8
BRANCH   3  15
ATOM     15  C   UNL     1      -0.221  -0.333  -2.553  0.00  0.00    -0.041 C 
BRANCH  15  16
ATOM     16  N   UNL     1       1.107  -0.272  -3.178  0.00  0.00    +0.387 N 
ATOM     17  H   UNL     1       1.693   0.366  -2.661  0.00  0.00    -0.085 HD
ATOM     18  H   UNL     1       1.524  -1.191  -3.172  0.00  0.00    -0.085 HD
BRANCH  16  19
ATOM     19  C   UNL     1       0.975   0.197  -4.564  0.00  0.00    -0.004 C 
BRANCH  19  20
ATOM     20  C   UNL     1       2.337   0.259  -5.205  0.00  0.00    +0.116 A 
ATOM     21  N   UNL     1       3.151   1.284  -5.205  0.00  0.00    -0.136 NA
ATOM     22  N   UNL     1       4.228   0.985  -5.846  0.00  0.00    -0.134 NA
ATOM     23  C   UNL     1       4.149  -0.237  -6.280  0.00  0.00    +0.133 A 
ATOM     24  N   UNL     1       2.950  -0.732  -5.881  0.00  0.00    -0.316 N 
ATOM     25  C   UNL     1       2.468  -2.083  -6.165  0.00  0.00    +0.125 C 
ATOM     26  C   UNL     1       3.308  -2.678  -7.301  0.00  0.00    +0.022 C 
ATOM     27  C   UNL     1       4.796  -2.508  -6.983  0.00  0.00    +0.009 C 
ATOM     28  C   UNL     1       5.163  -1.019  -7.075  0.00  0.00    +0.076 C 
ENDBRANCH  19  20
ENDBRANCH  16  19
ENDBRANCH  15  16
ENDBRANCH   3  15
TORSDOF 5
