REMARK  Name = ZINC36595392
REMARK  20 active torsions:
REMARK  status: ('A' for Active; 'I' for Inactive)
REMARK    1  A    between atoms: C_1  and  C_2
REMARK    2  A    between atoms: C_5  and  C_7
REMARK    3  A    between atoms: C_7  and  N_8
REMARK    4  A    between atoms: N_8  and  C_9
REMARK    5  A    between atoms: C_9  and  C_11
REMARK    6  A    between atoms: C_9  and  C_21
REMARK    7  A    between atoms: C_14  and  O_19
REMARK    8  A    between atoms: C_15  and  O_17
REMARK    9  A    between atoms: O_17  and  C_18
REMARK   10  A    between atoms: O_19  and  C_20
REMARK   11  A    between atoms: N_23  and  C_24
REMARK   12  A    between atoms: C_24  and  C_25
REMARK   13  A    between atoms: C_24  and  C_26
REMARK   14  A    between atoms: C_24  and  C_27
REMARK   15  A    between atoms: C_27  and  C_28
REMARK   16  A    between atoms: C_28  and  C_29
REMARK   17  A    between atoms: C_28  and  C_30
REMARK   18  A    between atoms: C_28  and  C_31
REMARK   19  A    between atoms: C_32  and  C_34
REMARK   20  A    between atoms: C_39  and  O_40
REMARK                            x       y       z     vdW  Elec       q    Type
REMARK                         _______ _______ _______ _____ _____    ______ ____
ROOT
ATOM      1  C   UNL     1       1.942  -1.610  -3.593  0.00  0.00    +0.193 C 
ENDROOT
BRANCH   1   2
ATOM      2  C   UNL     1       3.056  -2.377  -2.926  0.00  0.00    -0.015 A 
ATOM      3  C   UNL     1       3.103  -2.465  -1.548  0.00  0.00    +0.010 A 
ATOM      4  C   UNL     1       4.122  -3.167  -0.932  0.00  0.00    +0.050 A 
ATOM      5  C   UNL     1       5.099  -3.784  -1.697  0.00  0.00    +0.162 A 
ATOM      6  C   UNL     1       5.051  -3.696  -3.084  0.00  0.00    +0.162 A 
ATOM      7  C   UNL     1       4.024  -2.994  -3.696  0.00  0.00    +0.055 A 
BRANCH   6   8
ATOM      8  O   UNL     1       6.007  -4.300  -3.840  0.00  0.00    -0.491 OA
ATOM      9  C   UNL     1       5.959  -4.075  -5.250  0.00  0.00    +0.277 C 
ENDBRANCH   6   8
BRANCH   5  10
ATOM     10  O   UNL     1       6.103  -4.475  -1.092  0.00  0.00    -0.491 OA
ATOM     11  C   UNL     1       6.088  -4.524   0.336  0.00  0.00    +0.277 C 
ENDBRANCH   5  10
ENDBRANCH   1   2
BRANCH   1  12
ATOM     12  C   UNL     1       2.337  -0.161  -3.720  0.00  0.00    +0.239 C 
ATOM     13  O   UNL     1       1.670   0.699  -3.184  0.00  0.00    -0.273 OA
ATOM     14  N   UNL     1       3.430   0.180  -4.431  0.00  0.00    -0.308 N 
ATOM     15  H   UNL     1       3.963  -0.507  -4.860  0.00  0.00    +0.149 HD
BRANCH  14  16
ATOM     16  C   UNL     1       3.813   1.589  -4.555  0.00  0.00    +0.030 C 
ATOM     17  C   UNL     1       2.859   2.294  -5.521  0.00  0.00    +0.031 C 
ATOM     18  C   UNL     1       3.738   2.260  -3.182  0.00  0.00    +0.031 C 
BRANCH  16  19
ATOM     19  C   UNL     1       5.243   1.683  -5.091  0.00  0.00    +0.031 C 
BRANCH  19  20
ATOM     20  C   UNL     1       6.173   0.838  -4.217  0.00  0.00    -0.036 C 
ATOM     21  C   UNL     1       5.968  -0.643  -4.539  0.00  0.00    +0.010 C 
ATOM     22  C   UNL     1       7.626   1.225  -4.497  0.00  0.00    +0.010 C 
ATOM     23  C   UNL     1       5.853   1.089  -2.742  0.00  0.00    +0.010 C 
ENDBRANCH  19  20
ENDBRANCH  16  19
ENDBRANCH  14  16
ENDBRANCH   1  12
BRANCH   1  24
ATOM     24  N   UNL     1       0.725  -1.715  -2.784  0.00  0.00    -0.275 N 
ATOM     25  C   UNL     1       0.092  -2.900  -2.671  0.00  0.00    +0.251 C 
ATOM     26  O   UNL     1      -0.927  -2.984  -2.013  0.00  0.00    -0.270 OA
BRANCH  25  27
ATOM     27  C   UNL     1       0.636  -4.094  -3.345  0.00  0.00    +0.078 A 
ATOM     28  C   UNL     1       1.802  -4.000  -4.108  0.00  0.00    +0.017 A 
ATOM     29  C   UNL     1       2.305  -5.120  -4.734  0.00  0.00    +0.001 A 
ATOM     30  C   UNL     1       1.660  -6.340  -4.611  0.00  0.00    +0.004 A 
ATOM     31  C   UNL     1       0.506  -6.446  -3.860  0.00  0.00    +0.046 A 
ATOM     32  C   UNL     1      -0.011  -5.331  -3.218  0.00  0.00    +0.129 A 
BRANCH  32  33
ATOM     33  O   UNL     1      -1.141  -5.435  -2.475  0.00  0.00    -0.506 OA
ATOM     34  H   UNL     1      -1.956  -5.284  -2.975  0.00  0.00    +0.292 HD
ENDBRANCH  32  33
ENDBRANCH  25  27
BRANCH  24  35
ATOM     35  C   UNL     1       0.196  -0.533  -2.100  0.00  0.00    +0.183 C 
BRANCH  35  40
ATOM     36  C   UNL     1      -0.950   3.044  -5.466  0.00  0.00    +0.086 C 
ATOM     37  C   UNL     1      -1.084   1.862  -4.541  0.00  0.00    +0.102 A 
ATOM     38  C   UNL     1      -2.199   1.135  -4.350  0.00  0.00    +0.045 A 
ATOM     39  C   UNL     1      -1.878   0.132  -3.407  0.00  0.00    +0.046 A 
ATOM     40  C   UNL     1      -0.586   0.306  -3.078  0.00  0.00    +0.122 A 
ATOM     41  O   UNL     1      -0.108   1.352  -3.772  0.00  0.00    -0.463 OA
ENDBRANCH  35  40
ENDBRANCH  24  35
ENDBRANCH   1  24
TORSDOF 12
