REMARK  Name = ZINC23008484
REMARK  6 active torsions:
REMARK  status: ('A' for Active; 'I' for Inactive)
REMARK    1  A    between atoms: C_1  and  C_2
REMARK    2  A    between atoms: C_2  and  O_3
REMARK    3  A    between atoms: O_3  and  C_4
REMARK    4  A    between atoms: C_9  and  N_10
REMARK    5  A    between atoms: C_11  and  C_13
REMARK    6  A    between atoms: C_26  and  C_29
REMARK                            x       y       z     vdW  Elec       q    Type
REMARK                         _______ _______ _______ _____ _____    ______ ____
ROOT
ATOM      1  N   UNL     1      -2.397  -0.529   0.012  0.00  0.00    -0.277 N 
ATOM      2  C   UNL     1      -2.384   0.692  -0.559  0.00  0.00    +0.265 C 
ATOM      3  O   UNL     1      -3.392   1.130  -1.081  0.00  0.00    -0.268 OA
ATOM      4  H   UNL     1      -1.465  -0.964   0.402  0.00  0.00    +0.155 HD
ENDROOT
BRANCH   2   5
ATOM      5  C   UNL     1      -1.149   1.496  -0.550  0.00  0.00    +0.105 A 
ATOM      6  C   UNL     1      -1.161   2.724  -1.126  0.00  0.00    +0.039 A 
ATOM      7  C   UNL     1       0.061   3.528  -1.128  0.00  0.00    -0.011 A 
ATOM      8  C   UNL     1       0.107   4.797  -1.710  0.00  0.00    +0.009 A 
ATOM      9  C   UNL     1       1.283   5.514  -1.684  0.00  0.00    +0.001 A 
ATOM     10  C   UNL     1       2.421   4.989  -1.087  0.00  0.00    +0.001 A 
ATOM     11  C   UNL     1       2.399   3.739  -0.506  0.00  0.00    +0.014 A 
ATOM     12  C   UNL     1       1.221   2.995  -0.519  0.00  0.00    +0.046 A 
ATOM     13  C   UNL     1       1.144   1.657   0.086  0.00  0.00    +0.257 A 
ATOM     14  O   UNL     1       2.123   1.167   0.618  0.00  0.00    -0.267 OA
ATOM     15  N   UNL     1      -0.020   0.979   0.046  0.00  0.00    -0.318 N 
ATOM     16  H   UNL     1      -0.050  -0.018   0.511  0.00  0.00    +0.169 HD
ENDBRANCH   2   5
BRANCH   1  22
ATOM     17  C   UNL     1      -3.572  -2.634   0.200  0.00  0.00    +0.142 A 
ATOM     18  C   UNL     1      -4.763  -3.336   0.290  0.00  0.00    +0.055 A 
ATOM     19  C   UNL     1      -5.964  -2.659   0.290  0.00  0.00    +0.001 A 
ATOM     20  C   UNL     1      -6.003  -1.273   0.204  0.00  0.00    +0.126 A 
ATOM     21  C   UNL     1      -4.806  -0.568   0.114  0.00  0.00    +0.073 A 
ATOM     22  C   UNL     1      -3.597  -1.244   0.107  0.00  0.00    +0.079 A 
ATOM     23  O   UNL     1      -7.285  -0.812   0.236  0.00  0.00    -0.488 OA
ATOM     24  C   UNL     1      -8.182  -1.885  -0.095  0.00  0.00    +0.175 C 
ATOM     25  C   UNL     1      -7.401  -3.139   0.365  0.00  0.00    +0.083 C 
ATOM     26  C   UNL     1      -9.495  -1.751   0.678  0.00  0.00    +0.052 C 
BRANCH  17  27
ATOM     27  O   UNL     1      -2.384  -3.299   0.202  0.00  0.00    -0.490 OA
BRANCH  27  29
ATOM     28  C   UNL     1      -1.017  -5.290   0.288  0.00  0.00    +0.048 C 
ATOM     29  C   UNL     1      -2.438  -4.723   0.300  0.00  0.00    +0.226 C 
ENDBRANCH  27  29
ENDBRANCH  17  27
ENDBRANCH   1  22
TORSDOF 4
