REMARK  Name = ZINC39914394
REMARK  15 active torsions:
REMARK  status: ('A' for Active; 'I' for Inactive)
REMARK    1  A    between atoms: C_1  and  C_2
REMARK    2  A    between atoms: C_2  and  C_3
REMARK    3  A    between atoms: C_3  and  C_4
REMARK    4  A    between atoms: C_4  and  N_5
REMARK    5  A    between atoms: C_6  and  C_25
REMARK    6  A    between atoms: C_9  and  C_16
REMARK    7  A    between atoms: C_19  and  C_23
REMARK    8  A    between atoms: C_21  and  O_22
REMARK    9  A    between atoms: C_28  and  O_33
REMARK   10  A    between atoms: C_29  and  O_31
REMARK   11  A    between atoms: O_31  and  C_32
REMARK   12  A    between atoms: O_33  and  C_34
REMARK   13  A    between atoms: C_34  and  C_35
REMARK   14  A    between atoms: C_35  and  C_36
REMARK   15  A    between atoms: C_35  and  C_37
REMARK                            x       y       z     vdW  Elec       q    Type
REMARK                         _______ _______ _______ _____ _____    ______ ____
ROOT
ATOM      1  N   UNL     1      -3.009  -2.791  -0.226  0.00  0.00    -0.285 N 
ATOM      2  C   UNL     1      -3.470  -2.914   1.163  0.00  0.00    +0.141 C 
ATOM      3  C   UNL     1      -4.946  -3.196   1.088  0.00  0.00    +0.035 A 
ATOM      4  C   UNL     1      -6.136  -3.443   1.781  0.00  0.00    +0.102 A 
ATOM      5  N   UNL     1      -7.089  -3.604   0.883  0.00  0.00    -0.173 NA
ATOM      6  N   UNL     1      -6.618  -3.484  -0.307  0.00  0.00    -0.272 N 
ATOM      7  H   UNL     1      -7.138  -3.563  -1.122  0.00  0.00    +0.189 HD
ATOM      8  C   UNL     1      -5.277  -3.227  -0.253  0.00  0.00    +0.126 A 
ATOM      9  C   UNL     1      -4.066  -2.968  -1.039  0.00  0.00    +0.265 C 
ATOM     10  O   UNL     1      -4.023  -2.924  -2.254  0.00  0.00    -0.268 OA
ENDROOT
BRANCH   4  11
ATOM     11  C   UNL     1      -6.297  -3.511   3.255  0.00  0.00    +0.045 A 
ATOM     12  C   UNL     1      -5.234  -3.178   4.090  0.00  0.00    +0.034 A 
ATOM     13  C   UNL     1      -5.389  -3.242   5.461  0.00  0.00    +0.045 A 
ATOM     14  C   UNL     1      -6.598  -3.637   6.008  0.00  0.00    -0.029 A 
ATOM     15  C   UNL     1      -7.658  -3.970   5.187  0.00  0.00    +0.050 A 
ATOM     16  C   UNL     1      -7.518  -3.904   3.810  0.00  0.00    +0.126 A 
ATOM     17  C   UNL     1      -6.758  -3.706   7.505  0.00  0.00    +0.045 C 
ATOM     18 CL   UNL     1      -4.063  -2.827   6.502  0.00  0.00    -0.083 Cl
BRANCH  16  19
ATOM     19  O   UNL     1      -8.562  -4.225   3.002  0.00  0.00    -0.506 OA
ATOM     20  H   UNL     1      -8.598  -5.160   2.758  0.00  0.00    +0.292 HD
ENDBRANCH  16  19
ENDBRANCH   4  11
BRANCH   2  21
ATOM     21  C   UNL     1      -2.757  -4.052   1.847  0.00  0.00    -0.019 A 
ATOM     22  C   UNL     1      -2.216  -3.869   3.106  0.00  0.00    +0.009 A 
ATOM     23  C   UNL     1      -1.561  -4.910   3.738  0.00  0.00    +0.050 A 
ATOM     24  C   UNL     1      -1.446  -6.139   3.110  0.00  0.00    +0.162 A 
ATOM     25  C   UNL     1      -1.991  -6.324   1.843  0.00  0.00    +0.162 A 
ATOM     26  C   UNL     1      -2.651  -5.278   1.217  0.00  0.00    +0.055 A 
BRANCH  25  27
ATOM     27  O   UNL     1      -1.881  -7.529   1.222  0.00  0.00    -0.491 OA
ATOM     28  C   UNL     1      -2.365  -7.614  -0.120  0.00  0.00    +0.277 C 
ENDBRANCH  25  27
BRANCH  24  29
ATOM     29  O   UNL     1      -0.802  -7.164   3.730  0.00  0.00    -0.488 OA
BRANCH  29  30
ATOM     30  C   UNL     1      -0.267  -6.903   5.029  0.00  0.00    +0.232 C 
BRANCH  30  31
ATOM     31  C   UNL     1       0.416  -8.163   5.563  0.00  0.00    +0.020 C 
ATOM     32  C   UNL     1       1.095  -7.849   6.897  0.00  0.00    +0.010 C 
ATOM     33  C   UNL     1      -0.630  -9.261   5.769  0.00  0.00    +0.010 C 
ENDBRANCH  30  31
ENDBRANCH  29  30
ENDBRANCH  24  29
ENDBRANCH   2  21
BRANCH   1  34
ATOM     34  C   UNL     1      -1.635  -2.516  -0.653  0.00  0.00    +0.109 C 
BRANCH  34  35
ATOM     35  C   UNL     1      -1.427  -1.004  -0.759  0.00  0.00    +0.019 C 
BRANCH  35  37
ATOM     36  C   UNL     1       0.217   0.795  -1.311  0.00  0.00    +0.004 C 
ATOM     37  C   UNL     1       0.009  -0.717  -1.205  0.00  0.00    -0.002 C 
ENDBRANCH  35  37
ENDBRANCH  34  35
ENDBRANCH   1  34
TORSDOF 10
