REMARK  Name = ZINC63303004
REMARK  5 active torsions:
REMARK  status: ('A' for Active; 'I' for Inactive)
REMARK    1  A    between atoms: C_1  and  C_2
REMARK    2  A    between atoms: C_8  and  C_11
REMARK    3  A    between atoms: C_11  and  C_12
REMARK    4  A    between atoms: C_12  and  N_13
REMARK    5  A    between atoms: C_14  and  C_35
REMARK                            x       y       z     vdW  Elec       q    Type
REMARK                         _______ _______ _______ _____ _____    ______ ____
ROOT
ATOM      1  N   UNL     1      -1.377  -2.600   5.613  0.00  0.00    -0.291 N 
ATOM      2  C   UNL     1      -1.240  -3.731   6.546  0.00  0.00    +0.111 C 
ATOM      3  C   UNL     1      -0.377  -3.260   7.691  0.00  0.00    +0.064 A 
ATOM      4  C   UNL     1      -0.260  -1.900   8.005  0.00  0.00    +0.071 A 
ATOM      5  N   UNL     1       0.569  -1.797   9.087  0.00  0.00    -0.288 N 
ATOM      6  H   UNL     1       0.827  -0.976   9.535  0.00  0.00    +0.187 HD
ATOM      7  N   UNL     1       0.980  -3.095   9.434  0.00  0.00    -0.194 N 
ATOM      8  C   UNL     1       0.401  -3.972   8.584  0.00  0.00    +0.279 A 
ATOM      9  O   UNL     1       0.540  -5.184   8.603  0.00  0.00    -0.265 OA
ATOM     10  C   UNL     1       1.836  -3.421  10.471  0.00  0.00    +0.196 A 
ATOM     11  N   UNL     1       2.264  -4.605  10.844  0.00  0.00    -0.221 NA
ATOM     12  C   UNL     1       3.106  -4.777  11.886  0.00  0.00    +0.081 A 
ATOM     13  C   UNL     1       3.639  -5.987  12.388  0.00  0.00    +0.029 A 
ATOM     14  C   UNL     1       4.487  -5.985  13.465  0.00  0.00    +0.002 A 
ATOM     15  C   UNL     1       4.853  -4.806  14.097  0.00  0.00    +0.001 A 
ATOM     16  C   UNL     1       4.352  -3.604  13.633  0.00  0.00    +0.017 A 
ATOM     17  C   UNL     1       3.502  -3.596  12.555  0.00  0.00    +0.041 A 
ATOM     18  S   UNL     1       2.646  -2.337  11.639  0.00  0.00    -0.048 S 
ATOM     19  C   UNL     1      -0.921  -0.916   7.245  0.00  0.00    +0.095 C 
ATOM     20  C   UNL     1      -1.496  -1.314   6.071  0.00  0.00    +0.242 C 
ATOM     21  O   UNL     1      -2.201  -0.417   5.348  0.00  0.00    -0.271 OA
ATOM     22  C   UNL     1      -2.618  -4.147   7.067  0.00  0.00    +0.033 C 
ENDROOT
BRANCH   1  23
ATOM     23  C   UNL     1      -1.379  -2.854   4.170  0.00  0.00    +0.113 C 
BRANCH  23  24
ATOM     24  C   UNL     1       0.055  -2.799   3.641  0.00  0.00    +0.052 C 
BRANCH  24  32
ATOM     25  C   UNL     1      -0.018   1.503   0.010  0.00  0.00    +0.044 C 
ATOM     26  C   UNL     1       0.002  -0.004   0.002  0.00  0.00    -0.050 A 
ATOM     27  C   UNL     1       0.005  -0.680  -1.226  0.00  0.00    +0.005 A 
ATOM     28  C   UNL     1       0.023  -2.026  -1.317  0.00  0.00    +0.026 A 
ATOM     29  C   UNL     1       0.039  -2.826  -0.141  0.00  0.00    +0.043 A 
ATOM     30  N   UNL     1       0.057  -4.126   0.030  0.00  0.00    -0.380 N 
ATOM     31  C   UNL     1       0.067  -4.408   1.470  0.00  0.00    +0.144 C 
ATOM     32  C   UNL     1       0.052  -3.060   2.156  0.00  0.00    -0.040 C 
ATOM     33  C   UNL     1       0.036  -2.137   1.168  0.00  0.00    -0.001 A 
ATOM     34  C   UNL     1       0.022  -0.669   1.180  0.00  0.00    +0.013 A 
ATOM     35  H   UNL     1       0.062  -4.790  -0.677  0.00  0.00    +0.160 HD
ENDBRANCH  24  32
ENDBRANCH  23  24
ENDBRANCH   1  23
TORSDOF 3
