REMARK  Name = ZINC41572859
REMARK  3 active torsions:
REMARK  status: ('A' for Active; 'I' for Inactive)
REMARK    1  A    between atoms: C_1  and  N_2
REMARK    2  A    between atoms: C_11  and  C_13
REMARK    3  A    between atoms: C_13  and  N_14
REMARK                            x       y       z     vdW  Elec       q    Type
REMARK                         _______ _______ _______ _____ _____    ______ ____
ROOT
ATOM      1  C   UNL     1      -0.018   1.465   0.010  0.00  0.00    +0.105 C 
ATOM      2  N   UNL     1       0.002  -0.004   0.002  0.00  0.00    -0.300 NA
ATOM      3  C   UNL     1      -1.362  -0.549   0.020  0.00  0.00    +0.090 C 
ATOM      4  C   UNL     1      -1.348  -2.033  -0.362  0.00  0.00    +0.071 C 
ATOM      5  C   UNL     1      -0.326  -2.738   0.518  0.00  0.00    +0.056 A 
ATOM      6  C   UNL     1       0.616  -2.008   1.173  0.00  0.00    +0.028 A 
ATOM      7  S   UNL     1       1.533  -3.250   2.037  0.00  0.00    -0.055 S 
ATOM      8  C   UNL     1       0.655  -4.585   1.500  0.00  0.00    +0.165 A 
ATOM      9  N   UNL     1      -0.259  -4.049   0.721  0.00  0.00    -0.229 NA
ATOM     10  N   UNL     1       0.850  -5.927   1.806  0.00  0.00    -0.263 N 
ATOM     11  C   UNL     1       1.849  -6.291   2.634  0.00  0.00    +0.236 C 
ATOM     12  O   UNL     1       2.579  -5.448   3.111  0.00  0.00    -0.274 OA
ATOM     13  C   UNL     1       0.790  -0.529   1.135  0.00  0.00    +0.128 C 
ATOM     14  H   UNL     1       0.266  -6.601   1.425  0.00  0.00    +0.157 HD
ENDROOT
BRANCH  11  15
ATOM     15  C   UNL     1       2.061  -7.746   2.966  0.00  0.00    +0.199 C 
BRANCH  15  16
ATOM     16  N   UNL     1       3.200  -7.878   3.877  0.00  0.00    -0.320 N 
ATOM     17  C   UNL     1       3.585  -9.125   4.322  0.00  0.00    +0.130 A 
ATOM     18  C   UNL     1       4.681  -9.275   5.207  0.00  0.00    +0.040 A 
ATOM     19  C   UNL     1       5.418  -8.180   5.670  0.00  0.00    +0.013 A 
ATOM     20  C   UNL     1       6.463  -8.386   6.522  0.00  0.00    +0.001 A 
ATOM     21  C   UNL     1       6.805  -9.670   6.937  0.00  0.00    +0.002 A 
ATOM     22  C   UNL     1       6.106 -10.758   6.503  0.00  0.00    +0.028 A 
ATOM     23  C   UNL     1       5.027 -10.582   5.628  0.00  0.00    +0.076 A 
ATOM     24  N   UNL     1       4.306 -11.618   5.172  0.00  0.00    -0.235 NA
ATOM     25  C   UNL     1       3.301 -11.419   4.353  0.00  0.00    +0.223 A 
ATOM     26  N   UNL     1       2.937 -10.216   3.937  0.00  0.00    -0.220 NA
ATOM     27  H   UNL     1       3.684  -7.089   4.166  0.00  0.00    +0.148 HD
ENDBRANCH  15  16
ENDBRANCH  11  15
TORSDOF 2
