REMARK  Name = ZINC24946886
REMARK  8 active torsions:
REMARK  status: ('A' for Active; 'I' for Inactive)
REMARK    1  A    between atoms: C_1  and  C_2
REMARK    2  A    between atoms: C_2  and  C_4
REMARK    3  A    between atoms: C_2  and  N_17
REMARK    4  A    between atoms: N_6  and  C_7
REMARK    5  A    between atoms: C_10  and  N_14
REMARK    6  A    between atoms: N_17  and  C_18
REMARK    7  A    between atoms: N_17  and  C_19
REMARK    8  A    between atoms: C_19  and  C_20
REMARK                            x       y       z     vdW  Elec       q    Type
REMARK                         _______ _______ _______ _____ _____    ______ ____
ROOT
ATOM      1  C   UNL     1      -4.357  -0.548  -1.350  0.00  0.00    -0.004 C 
ATOM      2  C   UNL     1      -3.740  -1.052  -0.044  0.00  0.00    +0.016 C 
ENDROOT
BRANCH   2   3
ATOM      3  C   UNL     1      -2.459  -0.305   0.228  0.00  0.00    +0.203 C 
ATOM      4  O   UNL     1      -1.411  -0.910   0.316  0.00  0.00    -0.277 OA
ATOM      5  N   UNL     1      -2.478   1.035   0.373  0.00  0.00    -0.286 N 
ATOM      6  H   UNL     1      -3.437   1.573   0.378  0.00  0.00    +0.155 HD
BRANCH   5   7
ATOM      7  C   UNL     1      -1.278   1.740   0.517  0.00  0.00    +0.052 A 
ATOM      8  C   UNL     1      -0.081   1.168   0.108  0.00  0.00    +0.027 A 
ATOM      9  C   UNL     1       1.101   1.869   0.246  0.00  0.00    +0.034 A 
ATOM     10  C   UNL     1       1.094   3.138   0.795  0.00  0.00    +0.128 A 
ATOM     11  C   UNL     1      -0.095   3.710   1.209  0.00  0.00    +0.054 A 
ATOM     12  C   UNL     1      -1.282   3.013   1.074  0.00  0.00    +0.064 A 
ATOM     13 CL   UNL     1      -2.775   3.731   1.592  0.00  0.00    -0.082 Cl
BRANCH  10  14
ATOM     14  N   UNL     1       2.363   3.887   0.941  0.00  0.00    +0.056 N 
ATOM     15  O   UNL     1       3.411   3.385   0.577  0.00  0.00    -0.126 OA
ATOM     16  O   UNL     1       2.358   5.004   1.424  0.00  0.00    -0.126 OA
ENDBRANCH  10  14
ENDBRANCH   5   7
ENDBRANCH   2   3
BRANCH   2  17
ATOM     17  N   UNL     1      -3.453  -2.488  -0.161  0.00  0.00    +0.388 N 
ATOM     18  C   UNL     1      -2.532  -2.753  -1.274  0.00  0.00    -0.095 C 
ATOM     19  H   UNL     1      -2.962  -2.811   0.769  0.00  0.00    -0.081 HD
BRANCH  17  20
ATOM     20  C   UNL     1      -4.693  -3.262  -0.308  0.00  0.00    -0.039 C 
BRANCH  20  21
ATOM     21  C   UNL     1      -4.411  -4.718  -0.043  0.00  0.00    -0.029 A 
ATOM     22  C   UNL     1      -4.269  -5.598  -1.099  0.00  0.00    +0.007 A 
ATOM     23  C   UNL     1      -4.009  -6.934  -0.858  0.00  0.00    +0.039 A 
ATOM     24  C   UNL     1      -3.892  -7.392   0.444  0.00  0.00    +0.126 A 
ATOM     25  C   UNL     1      -4.035  -6.513   1.503  0.00  0.00    +0.076 A 
ATOM     26  C   UNL     1      -4.289  -5.174   1.259  0.00  0.00    +0.127 A 
ATOM     27  F   UNL     1      -4.423  -4.312   2.292  0.00  0.00    -0.205 F 
ATOM     28  F   UNL     1      -3.639  -8.698   0.680  0.00  0.00    -0.205 F 
ENDBRANCH  20  21
ENDBRANCH  17  20
ENDBRANCH   2  17
TORSDOF 6
