REMARK  Name = ZINC21221352
REMARK  9 active torsions:
REMARK  status: ('A' for Active; 'I' for Inactive)
REMARK    1  A    between atoms: C_1  and  O_2
REMARK    2  A    between atoms: O_2  and  C_3
REMARK    3  A    between atoms: C_5  and  C_13
REMARK    4  A    between atoms: C_7  and  O_11
REMARK    5  A    between atoms: C_8  and  O_9
REMARK    6  A    between atoms: O_9  and  C_10
REMARK    7  A    between atoms: O_11  and  C_12
REMARK    8  A    between atoms: C_18  and  C_28
REMARK    9  A    between atoms: C_32  and  O_34
REMARK                            x       y       z     vdW  Elec       q    Type
REMARK                         _______ _______ _______ _____ _____    ______ ____
ROOT
ATOM      1  C   UNL     1       2.324  -0.067  -0.696  0.00  0.00    +0.032 C 
ATOM      2  C   UNL     1       1.229  -0.835   0.043  0.00  0.00    +0.059 C 
ATOM      3  C   UNL     1      -0.067  -0.042   0.015  0.00  0.00    +0.017 C 
ATOM      4  C   UNL     1      -0.044   1.301   0.026  0.00  0.00    +0.036 C 
ATOM      5  C   UNL     1      -1.251   2.209   0.020  0.00  0.00    +0.136 C 
ATOM      6  N   UNL     1      -2.503   1.540  -0.256  0.00  0.00    -0.331 N 
ATOM      7  C   UNL     1      -3.017   0.580   0.614  0.00  0.00    +0.049 A 
ATOM      8  C   UNL     1      -4.173   0.810   1.342  0.00  0.00    +0.025 A 
ATOM      9  C   UNL     1      -4.587  -0.126   2.274  0.00  0.00    +0.002 A 
ATOM     10  C   UNL     1      -3.856  -1.282   2.478  0.00  0.00    +0.002 A 
ATOM     11  C   UNL     1      -2.712  -1.524   1.736  0.00  0.00    +0.025 A 
ATOM     12  C   UNL     1      -2.306  -0.598   0.792  0.00  0.00    +0.052 A 
ATOM     13  N   UNL     1      -1.194  -0.799  -0.017  0.00  0.00    -0.316 N 
ATOM     14  C   UNL     1       1.191   1.992   0.039  0.00  0.00    +0.163 C 
ATOM     15  O   UNL     1       1.182   3.207   0.071  0.00  0.00    -0.292 OA
ATOM     16  C   UNL     1       2.510   1.279   0.013  0.00  0.00    +0.088 C 
ATOM     17  H   UNL     1      -3.069   1.786  -1.167  0.00  0.00    +0.147 HD
ATOM     18  H   UNL     1      -1.270  -1.642  -0.719  0.00  0.00    +0.152 HD
ENDROOT
BRANCH   1  21
ATOM     19  C   UNL     1       5.397  -1.971  -1.798  0.00  0.00    +0.165 A 
ATOM     20  C   UNL     1       4.212  -1.252  -1.832  0.00  0.00    +0.053 A 
ATOM     21  C   UNL     1       3.612  -0.848  -0.654  0.00  0.00    -0.036 A 
ATOM     22  C   UNL     1       4.194  -1.155   0.562  0.00  0.00    +0.053 A 
ATOM     23  C   UNL     1       5.376  -1.878   0.605  0.00  0.00    +0.165 A 
ATOM     24  C   UNL     1       5.982  -2.286  -0.577  0.00  0.00    +0.204 A 
BRANCH  19  26
ATOM     25  C   UNL     1       5.329  -2.010  -4.175  0.00  0.00    +0.277 C 
ATOM     26  O   UNL     1       5.986  -2.368  -2.958  0.00  0.00    -0.491 OA
ENDBRANCH  19  26
BRANCH  24  27
ATOM     27  O   UNL     1       7.145  -2.992  -0.540  0.00  0.00    -0.488 OA
ATOM     28  C   UNL     1       8.361  -2.241  -0.558  0.00  0.00    +0.277 C 
ENDBRANCH  24  27
BRANCH  23  29
ATOM     29  O   UNL     1       5.944  -2.184   1.802  0.00  0.00    -0.491 OA
ATOM     30  C   UNL     1       5.266  -1.732   2.976  0.00  0.00    +0.277 C 
ENDBRANCH  23  29
ENDBRANCH   1  21
BRANCH   5  31
ATOM     31  C   UNL     1      -1.359   2.869   1.370  0.00  0.00    -0.019 A 
ATOM     32  C   UNL     1      -1.572   2.100   2.500  0.00  0.00    +0.006 A 
ATOM     33  C   UNL     1      -1.672   2.702   3.740  0.00  0.00    +0.004 A 
ATOM     34  C   UNL     1      -1.560   4.075   3.854  0.00  0.00    +0.045 A 
ATOM     35  C   UNL     1      -1.345   4.848   2.722  0.00  0.00    +0.117 A 
ATOM     36  C   UNL     1      -1.240   4.240   1.479  0.00  0.00    +0.051 A 
BRANCH  35  37
ATOM     37  O   UNL     1      -1.234   6.198   2.832  0.00  0.00    -0.507 OA
ATOM     38  H   UNL     1      -1.064   6.810   1.934  0.00  0.00    +0.292 HD
ENDBRANCH  35  37
ENDBRANCH   5  31
TORSDOF 6
