REMARK  Name = ZINC30343211
REMARK  4 active torsions:
REMARK  status: ('A' for Active; 'I' for Inactive)
REMARK    1  A    between atoms: C_1  and  C_2
REMARK    2  A    between atoms: C_2  and  C_17
REMARK    3  A    between atoms: N_5  and  C_9
REMARK    4  A    between atoms: C_9  and  C_10
REMARK                            x       y       z     vdW  Elec       q    Type
REMARK                         _______ _______ _______ _____ _____    ______ ____
ROOT
ATOM      1  C   UNL     1       3.216   3.143  -4.569  0.00  0.00    +0.050 C 
ATOM      2  C   UNL     1       3.794   4.030  -3.464  0.00  0.00    +0.168 C 
ATOM      3  C   UNL     1       3.644   3.368  -2.109  0.00  0.00    +0.254 C 
ATOM      4  O   UNL     1       4.127   2.315  -1.751  0.00  0.00    -0.272 OA
ATOM      5  N   UNL     1       2.860   4.191  -1.385  0.00  0.00    -0.219 N 
ATOM      6  C   UNL     1       2.504   5.275  -2.085  0.00  0.00    +0.310 C 
ATOM      7  O   UNL     1       1.802   6.163  -1.643  0.00  0.00    -0.252 OA
ATOM      8  N   UNL     1       3.009   5.270  -3.331  0.00  0.00    -0.279 N 
ATOM      9  H   UNL     1       2.939   5.970  -4.178  0.00  0.00    +0.152 HD
ENDROOT
BRANCH   2  10
ATOM     10  C   UNL     1       5.242   4.346  -3.738  0.00  0.00    +0.137 A 
ATOM     11  C   UNL     1       5.699   5.414  -4.415  0.00  0.00    +0.047 A 
ATOM     12  C   UNL     1       7.110   5.313  -4.434  0.00  0.00    +0.041 A 
ATOM     13  C   UNL     1       7.429   4.189  -3.767  0.00  0.00    +0.195 A 
ATOM     14  O   UNL     1       6.294   3.610  -3.343  0.00  0.00    -0.465 OA
ENDBRANCH   2  10
BRANCH   5  15
ATOM     15  C   UNL     1       2.454   3.935  -0.001  0.00  0.00    +0.153 C 
BRANCH  15  16
ATOM     16  C   UNL     1       1.158   3.165   0.007  0.00  0.00    -0.027 A 
ATOM     17  C   UNL     1       1.175   1.783   0.000  0.00  0.00    +0.005 A 
ATOM     18  C   UNL     1      -0.013   1.076   0.008  0.00  0.00    +0.003 A 
ATOM     19  C   UNL     1      -1.219   1.750   0.017  0.00  0.00    +0.038 A 
ATOM     20  C   UNL     1      -1.237   3.135   0.030  0.00  0.00    +0.124 A 
ATOM     21  C   UNL     1      -0.047   3.842   0.022  0.00  0.00    +0.043 A 
ATOM     22  F   UNL     1      -2.416   3.795   0.044  0.00  0.00    -0.205 F 
ENDBRANCH  15  16
ENDBRANCH   5  15
TORSDOF 3
