REMARK  Name = ZINC09731531
REMARK  10 active torsions:
REMARK  status: ('A' for Active; 'I' for Inactive)
REMARK    1  A    between atoms: C_1  and  C_2
REMARK    2  A    between atoms: C_2  and  C_3
REMARK    3  A    between atoms: N_9  and  C_10
REMARK    4  A    between atoms: C_10  and  C_11
REMARK    5  A    between atoms: C_11  and  C_12
REMARK    6  A    between atoms: C_12  and  N_13
REMARK    7  A    between atoms: C_14  and  C_16
REMARK    8  A    between atoms: C_19  and  C_21
REMARK    9  A    between atoms: C_21  and  S_22
REMARK   10  A    between atoms: S_22  and  C_25
REMARK                            x       y       z     vdW  Elec       q    Type
REMARK                         _______ _______ _______ _____ _____    ______ ____
ROOT
ATOM      1  N   UNL     1      -2.172   3.153   5.154  0.00  0.00    -0.309 N 
ATOM      2  C   UNL     1      -2.480   4.422   5.489  0.00  0.00    +0.279 C 
ATOM      3  O   UNL     1      -2.087   5.345   4.800  0.00  0.00    -0.267 OA
ATOM      4  H   UNL     1      -2.486   2.418   5.703  0.00  0.00    +0.149 HD
ENDROOT
BRANCH   2   5
ATOM      5  C   UNL     1      -3.288   4.691   6.683  0.00  0.00    +0.189 A 
ATOM      6  C   UNL     1      -3.674   5.922   7.130  0.00  0.00    +0.055 A 
ATOM      7  C   UNL     1      -4.428   5.710   8.294  0.00  0.00    +0.047 A 
ATOM      8  C   UNL     1      -4.469   4.375   8.504  0.00  0.00    +0.127 A 
ATOM      9  O   UNL     1      -3.785   3.764   7.528  0.00  0.00    -0.453 OA
BRANCH   8  10
ATOM     10  C   UNL     1      -5.172   3.688   9.646  0.00  0.00    +0.245 C 
BRANCH  10  11
ATOM     11  S   UNL     1      -6.879   3.307   9.164  0.00  0.00    +0.004 S 
ATOM     12  O   UNL     1      -7.624   4.508   9.014  0.00  0.00    -0.169 OA
ATOM     13  O   UNL     1      -6.890   2.316   8.146  0.00  0.00    -0.169 OA
BRANCH  11  14
ATOM     14  C   UNL     1      -7.581   2.514  10.572  0.00  0.00    +0.089 A 
ATOM     15  C   UNL     1      -7.496   1.141  10.706  0.00  0.00    +0.028 A 
ATOM     16  C   UNL     1      -8.046   0.518  11.810  0.00  0.00    +0.017 A 
ATOM     17  C   UNL     1      -8.682   1.270  12.782  0.00  0.00    +0.018 A 
ATOM     18  C   UNL     1      -8.768   2.644  12.647  0.00  0.00    +0.017 A 
ATOM     19  C   UNL     1      -8.212   3.266  11.545  0.00  0.00    +0.028 A 
ATOM     20 BR   UNL     1      -9.436   0.419  14.293  0.00  0.00    -0.050 Br
ENDBRANCH  11  14
ENDBRANCH  10  11
ENDBRANCH   8  10
ENDBRANCH   2   5
BRANCH   1  21
ATOM     21  C   UNL     1      -1.365   2.885   3.962  0.00  0.00    +0.103 C 
BRANCH  21  22
ATOM     22  C   UNL     1      -1.163   1.376   3.811  0.00  0.00    +0.000 C 
BRANCH  22  23
ATOM     23  C   UNL     1      -0.320   1.096   2.566  0.00  0.00    -0.077 C 
BRANCH  23  29
ATOM     24  C   UNL     1       0.584  -0.628   1.166  0.00  0.00    -0.069 C 
ATOM     25  C   UNL     1       0.716  -2.140   0.972  0.00  0.00    -0.015 C 
ATOM     26  C   UNL     1       1.502  -2.733   2.145  0.00  0.00    -0.003 C 
ATOM     27  C   UNL     1       0.792  -2.376   3.454  0.00  0.00    -0.019 C 
ATOM     28  C   UNL     1       0.657  -0.856   3.557  0.00  0.00    -0.078 C 
ATOM     29  N   UNL     1      -0.126  -0.353   2.421  0.00  0.00    +0.382 N 
ATOM     30  H   UNL     1      -1.025  -0.811   2.405  0.00  0.00    -0.081 HD
BRANCH  24  32
ATOM     31  C   UNL     1       0.583  -0.238  -1.302  0.00  0.00    +0.002 C 
ATOM     32  C   UNL     1      -0.201  -0.031  -0.004  0.00  0.00    -0.019 C 
ENDBRANCH  24  32
ENDBRANCH  23  29
ENDBRANCH  22  23
ENDBRANCH  21  22
ENDBRANCH   1  21
TORSDOF 9
