REMARK  Name = ZINC54949263
REMARK  9 active torsions:
REMARK  status: ('A' for Active; 'I' for Inactive)
REMARK    1  A    between atoms: C_1  and  C_2
REMARK    2  A    between atoms: C_5  and  S_23
REMARK    3  A    between atoms: C_6  and  N_8
REMARK    4  A    between atoms: C_9  and  C_11
REMARK    5  A    between atoms: N_13  and  C_14
REMARK    6  A    between atoms: C_14  and  C_16
REMARK    7  A    between atoms: C_14  and  C_17
REMARK    8  A    between atoms: C_20  and  C_22
REMARK    9  A    between atoms: S_23  and  C_26
REMARK                            x       y       z     vdW  Elec       q    Type
REMARK                         _______ _______ _______ _____ _____    ______ ____
ROOT
ATOM      1  N   UNL     1       0.051  -2.797   2.391  0.00  0.00    -0.276 N 
ATOM      2  C   UNL     1       0.149  -2.134   3.560  0.00  0.00    +0.303 C 
ATOM      3  O   UNL     1       0.134  -0.921   3.573  0.00  0.00    -0.265 OA
ATOM      4  H   UNL     1      -0.003  -3.765   2.385  0.00  0.00    +0.155 HD
ENDROOT
BRANCH   1  10
ATOM      5  C   UNL     1      -1.304   1.188  -0.148  0.00  0.00    +0.044 C 
ATOM      6  C   UNL     1      -0.624  -0.155  -0.073  0.00  0.00    -0.049 A 
ATOM      7  C   UNL     1      -0.022  -0.687  -1.199  0.00  0.00    +0.005 A 
ATOM      8  C   UNL     1       0.604  -1.918  -1.135  0.00  0.00    +0.029 A 
ATOM      9  C   UNL     1       0.630  -2.621   0.054  0.00  0.00    +0.109 A 
ATOM     10  C   UNL     1       0.027  -2.089   1.186  0.00  0.00    +0.059 A 
ATOM     11  C   UNL     1      -0.596  -0.849   1.120  0.00  0.00    +0.028 A 
BRANCH   9  12
ATOM     12  S   UNL     1       1.427  -4.190   0.134  0.00  0.00    -0.004 S 
ATOM     13  O   UNL     1       0.467  -5.055   0.724  0.00  0.00    -0.170 OA
ATOM     14  O   UNL     1       1.900  -4.425  -1.186  0.00  0.00    -0.170 OA
ATOM     15  C   UNL     1       2.825  -3.946   1.264  0.00  0.00    +0.200 C 
ENDBRANCH   9  12
ENDBRANCH   1  10
BRANCH   2  16
ATOM     16  C   UNL     1       0.278  -2.893   4.840  0.00  0.00    +0.300 C 
ATOM     17  O   UNL     1       0.293  -4.107   4.827  0.00  0.00    -0.265 OA
ATOM     18  N   UNL     1       0.376  -2.231   6.010  0.00  0.00    -0.301 N 
ATOM     19  H   UNL     1       0.363  -1.261   6.020  0.00  0.00    +0.150 HD
BRANCH  18  20
ATOM     20  C   UNL     1       0.502  -2.975   7.265  0.00  0.00    +0.107 C 
ATOM     21  C   UNL     1       1.972  -3.322   7.507  0.00  0.00    +0.033 C 
BRANCH  20  22
ATOM     22  C   UNL     1      -0.009  -2.130   8.403  0.00  0.00    +0.010 A 
ATOM     23  C   UNL     1      -0.744  -2.502   9.480  0.00  0.00    +0.013 A 
ATOM     24  C   UNL     1      -1.102  -1.544  10.410  0.00  0.00    +0.011 A 
ATOM     25  C   UNL     1      -0.708  -0.262  10.218  0.00  0.00    -0.013 A 
ATOM     26  S   UNL     1       0.205  -0.381   8.688  0.00  0.00    -0.097 S 
ATOM     27  C   UNL     1      -0.968   0.949  11.077  0.00  0.00    +0.051 C 
ENDBRANCH  20  22
ENDBRANCH  18  20
ENDBRANCH   2  16
TORSDOF 5
