REMARK  Name = ZINC38705727
REMARK  13 active torsions:
REMARK  status: ('A' for Active; 'I' for Inactive)
REMARK    1  A    between atoms: C_1  and  C_2
REMARK    2  A    between atoms: C_2  and  C_3
REMARK    3  A    between atoms: C_3  and  C_4
REMARK    4  A    between atoms: C_4  and  C_5
REMARK    5  A    between atoms: C_5  and  O_6
REMARK    6  A    between atoms: O_6  and  C_7
REMARK    7  A    between atoms: C_11  and  C_13
REMARK    8  A    between atoms: C_16  and  C_31
REMARK    9  A    between atoms: N_23  and  C_24
REMARK   10  A    between atoms: C_24  and  C_25
REMARK   11  A    between atoms: C_32  and  C_39
REMARK   12  A    between atoms: C_34  and  C_38
REMARK   13  A    between atoms: C_36  and  O_37
REMARK                            x       y       z     vdW  Elec       q    Type
REMARK                         _______ _______ _______ _____ _____    ______ ____
ROOT
ATOM      1  C   UNL     1      -5.354  -8.214   0.026  0.00  0.00    +0.142 C 
ATOM      2  C   UNL     1      -5.781  -8.699  -1.333  0.00  0.00    +0.035 A 
ATOM      3  C   UNL     1      -5.507  -8.760  -2.703  0.00  0.00    +0.102 A 
ATOM      4  N   UNL     1      -6.480  -9.447  -3.270  0.00  0.00    -0.173 NA
ATOM      5  N   UNL     1      -7.341  -9.825  -2.393  0.00  0.00    -0.272 N 
ATOM      6  H   UNL     1      -8.139 -10.342  -2.583  0.00  0.00    +0.189 HD
ATOM      7  C   UNL     1      -6.965  -9.390  -1.154  0.00  0.00    +0.126 A 
ATOM      8  C   UNL     1      -7.310  -9.363   0.272  0.00  0.00    +0.266 C 
ATOM      9  O   UNL     1      -8.297  -9.882   0.757  0.00  0.00    -0.268 OA
ATOM     10  N   UNL     1      -6.379  -8.682   0.967  0.00  0.00    -0.281 N 
ENDROOT
BRANCH   3  11
ATOM     11  C   UNL     1      -4.337  -8.162  -3.393  0.00  0.00    +0.047 A 
ATOM     12  C   UNL     1      -4.520  -7.378  -4.529  0.00  0.00    -0.037 A 
ATOM     13  C   UNL     1      -3.428  -6.824  -5.166  0.00  0.00    +0.007 A 
ATOM     14  C   UNL     1      -2.151  -7.045  -4.681  0.00  0.00    -0.047 A 
ATOM     15  C   UNL     1      -1.959  -7.822  -3.554  0.00  0.00    +0.049 A 
ATOM     16  C   UNL     1      -3.046  -8.379  -2.901  0.00  0.00    +0.127 A 
ATOM     17  C   UNL     1      -0.966  -6.436  -5.384  0.00  0.00    +0.044 C 
ATOM     18  C   UNL     1      -5.908  -7.135  -5.061  0.00  0.00    +0.044 C 
BRANCH  16  19
ATOM     19  O   UNL     1      -2.859  -9.138  -1.790  0.00  0.00    -0.506 OA
ATOM     20  H   UNL     1      -2.658 -10.065  -1.976  0.00  0.00    +0.292 HD
ENDBRANCH  16  19
ENDBRANCH   3  11
BRANCH   1  25
ATOM     21  C   UNL     1      -4.004  -4.689   0.201  0.00  0.00    +0.121 A 
ATOM     22  C   UNL     1      -5.166  -3.943   0.067  0.00  0.00    +0.045 A 
ATOM     23  C   UNL     1      -6.382  -4.581  -0.081  0.00  0.00    +0.004 A 
ATOM     24  C   UNL     1      -6.441  -5.963  -0.094  0.00  0.00    +0.006 A 
ATOM     25  C   UNL     1      -5.285  -6.708   0.040  0.00  0.00    -0.019 A 
ATOM     26  C   UNL     1      -4.066  -6.075   0.182  0.00  0.00    +0.051 A 
BRANCH  21  27
ATOM     27  O   UNL     1      -2.806  -4.063   0.346  0.00  0.00    -0.492 OA
BRANCH  27  28
ATOM     28  C   UNL     1      -2.817  -2.634   0.357  0.00  0.00    +0.229 C 
BRANCH  28  29
ATOM     29  C   UNL     1      -1.389  -2.114   0.527  0.00  0.00    +0.041 C 
BRANCH  29  30
ATOM     30  C   UNL     1      -1.401  -0.584   0.539  0.00  0.00    +0.003 C 
BRANCH  30  32
ATOM     31  C   UNL     1       0.015   1.466   0.721  0.00  0.00    +0.004 C 
ATOM     32  C   UNL     1       0.027  -0.064   0.710  0.00  0.00    -0.003 C 
ENDBRANCH  30  32
ENDBRANCH  29  30
ENDBRANCH  28  29
ENDBRANCH  27  28
ENDBRANCH  21  27
ENDBRANCH   1  25
BRANCH  10  33
ATOM     33  C   UNL     1      -6.388  -8.448   2.413  0.00  0.00    +0.145 C 
BRANCH  33  34
ATOM     34  C   UNL     1      -7.122  -7.165   2.711  0.00  0.00    -0.012 A 
ATOM     35  C   UNL     1      -6.440  -5.959   2.751  0.00  0.00    +0.008 A 
ATOM     36  C   UNL     1      -7.156  -4.805   3.028  0.00  0.00    +0.020 A 
ATOM     37  C   UNL     1      -8.517  -4.895   3.253  0.00  0.00    +0.111 A 
ATOM     38  N   UNL     1      -9.133  -6.060   3.208  0.00  0.00    -0.263 NA
ATOM     39  C   UNL     1      -8.484  -7.177   2.941  0.00  0.00    +0.115 A 
ENDBRANCH  33  34
ENDBRANCH  10  33
TORSDOF 10
