REMARK  Name = ZINC63234630
REMARK  12 active torsions:
REMARK  status: ('A' for Active; 'I' for Inactive)
REMARK    1  A    between atoms: C_1  and  O_2
REMARK    2  A    between atoms: O_2  and  C_3
REMARK    3  A    between atoms: C_6  and  C_9
REMARK    4  A    between atoms: C_9  and  C_11
REMARK    5  A    between atoms: C_9  and  C_26
REMARK    6  A    between atoms: C_11  and  N_12
REMARK    7  A    between atoms: N_12  and  C_13
REMARK    8  A    between atoms: C_13  and  C_14
REMARK    9  A    between atoms: C_14  and  C_16
REMARK   10  A    between atoms: C_14  and  O_25
REMARK   11  A    between atoms: C_16  and  O_17
REMARK   12  A    between atoms: O_17  and  C_18
REMARK                            x       y       z     vdW  Elec       q    Type
REMARK                         _______ _______ _______ _____ _____    ______ ____
ROOT
ATOM      1  C   UNL     1       2.505  -2.503  -4.381  0.00  0.00    +0.030 C 
ENDROOT
BRANCH   1   2
ATOM      2  C   UNL     1       1.505  -3.369  -5.104  0.00  0.00    -0.036 C 
ATOM      3  C   UNL     1       1.118  -3.260  -6.396  0.00  0.00    -0.001 A 
ATOM      4  C   UNL     1       1.498  -2.337  -7.473  0.00  0.00    +0.010 A 
ATOM      5  C   UNL     1       0.925  -2.479  -8.690  0.00  0.00    +0.001 A 
ATOM      6  C   UNL     1      -0.019  -3.482  -8.948  0.00  0.00    +0.002 A 
ATOM      7  C   UNL     1      -0.418  -4.367  -8.010  0.00  0.00    +0.026 A 
ATOM      8  C   UNL     1       0.119  -4.311  -6.694  0.00  0.00    +0.043 A 
ATOM      9  N   UNL     1      -0.103  -5.041  -5.629  0.00  0.00    -0.380 N 
ATOM     10  C   UNL     1       0.735  -4.539  -4.534  0.00  0.00    +0.145 C 
ATOM     11  H   UNL     1      -0.716  -5.791  -5.574  0.00  0.00    +0.160 HD
ENDBRANCH   1   2
BRANCH   1  15
ATOM     12  C   UNL     1       0.606  -0.607  -1.056  0.00  0.00    +0.120 A 
ATOM     13  C   UNL     1       1.173   0.161  -2.062  0.00  0.00    +0.046 A 
ATOM     14  C   UNL     1       1.786  -0.455  -3.136  0.00  0.00    +0.008 A 
ATOM     15  C   UNL     1       1.835  -1.835  -3.209  0.00  0.00    -0.042 A 
ATOM     16  C   UNL     1       1.270  -2.602  -2.207  0.00  0.00    +0.008 A 
ATOM     17  C   UNL     1       0.661  -1.992  -1.128  0.00  0.00    +0.046 A 
BRANCH  12  19
ATOM     18  C   UNL     1      -0.017   1.425   0.010  0.00  0.00    +0.277 C 
ATOM     19  O   UNL     1       0.002  -0.004   0.002  0.00  0.00    -0.495 OA
ENDBRANCH  12  19
ENDBRANCH   1  15
BRANCH   1  20
ATOM     20  C   UNL     1       3.662  -3.370  -3.882  0.00  0.00    -0.070 C 
BRANCH  20  21
ATOM     21  N   UNL     1       4.389  -3.926  -5.031  0.00  0.00    +0.381 N 
ATOM     22  H   UNL     1       3.761  -4.490  -5.585  0.00  0.00    -0.086 HD
ATOM     23  H   UNL     1       4.752  -3.174  -5.596  0.00  0.00    -0.086 HD
BRANCH  21  24
ATOM     24  C   UNL     1       5.500  -4.759  -4.551  0.00  0.00    -0.047 C 
BRANCH  24  25
ATOM     25  C   UNL     1       6.257  -5.338  -5.748  0.00  0.00    +0.135 C 
BRANCH  25  26
ATOM     26  O   UNL     1       6.869  -4.277  -6.484  0.00  0.00    -0.390 OA
ATOM     27  H   UNL     1       7.503  -3.757  -5.971  0.00  0.00    +0.210 HD
ENDBRANCH  25  26
BRANCH  25  28
ATOM     28  C   UNL     1       7.336  -6.303  -5.251  0.00  0.00    +0.258 C 
BRANCH  28  29
ATOM     29  O   UNL     1       7.964  -6.932  -6.370  0.00  0.00    -0.489 OA
BRANCH  29  30
ATOM     30  C   UNL     1       8.953  -7.825  -6.100  0.00  0.00    +0.121 A 
ATOM     31  C   UNL     1       9.306  -8.094  -4.786  0.00  0.00    +0.047 A 
ATOM     32  C   UNL     1      10.312  -9.002  -4.514  0.00  0.00    +0.019 A 
ATOM     33  C   UNL     1      10.965  -9.642  -5.552  0.00  0.00    +0.018 A 
ATOM     34  C   UNL     1      10.615  -9.375  -6.863  0.00  0.00    +0.019 A 
ATOM     35  C   UNL     1       9.606  -8.472  -7.139  0.00  0.00    +0.047 A 
ATOM     36 BR   UNL     1      12.341 -10.885  -5.177  0.00  0.00    -0.050 Br
ENDBRANCH  29  30
ENDBRANCH  28  29
ENDBRANCH  25  28
ENDBRANCH  24  25
ENDBRANCH  21  24
ENDBRANCH  20  21
ENDBRANCH   1  20
TORSDOF 11
