REMARK  Name = ZINC13147937
REMARK  9 active torsions:
REMARK  status: ('A' for Active; 'I' for Inactive)
REMARK    1  A    between atoms: C_1  and  C_2
REMARK    2  A    between atoms: C_2  and  O_3
REMARK    3  A    between atoms: O_3  and  C_4
REMARK    4  A    between atoms: C_4  and  C_6
REMARK    5  A    between atoms: C_7  and  C_19
REMARK    6  A    between atoms: C_12  and  C_14
REMARK    7  A    between atoms: C_19  and  N_20
REMARK    8  A    between atoms: C_23  and  C_28
REMARK    9  A    between atoms: C_28  and  C_29
REMARK                            x       y       z     vdW  Elec       q    Type
REMARK                         _______ _______ _______ _____ _____    ______ ____
ROOT
ATOM      1  C   UNL     1       3.138   4.865  -3.169  0.00  0.00    +0.169 C 
ENDROOT
BRANCH   1   3
ATOM      2  C   UNL     1       3.004   3.238  -1.317  0.00  0.00    +0.080 C 
ATOM      3  C   UNL     1       2.830   4.509  -1.738  0.00  0.00    +0.042 C 
ATOM      4  N   UNL     1       2.378   5.477  -0.887  0.00  0.00    -0.271 N 
ATOM      5  C   UNL     1       2.078   5.255   0.399  0.00  0.00    +0.304 C 
ATOM      6  O   UNL     1       1.682   6.182   1.078  0.00  0.00    -0.252 OA
ATOM      7  N   UNL     1       2.202   4.039   0.964  0.00  0.00    -0.288 N 
ATOM      8  C   UNL     1       2.682   2.924   0.130  0.00  0.00    +0.150 C 
ATOM      9  H   UNL     1       2.268   6.376  -1.234  0.00  0.00    +0.156 HD
ATOM     10  H   UNL     1       1.979   3.901   1.898  0.00  0.00    +0.151 HD
BRANCH   8  11
ATOM     11  C   UNL     1       3.926   2.365   0.773  0.00  0.00    +0.015 A 
ATOM     12  C   UNL     1       4.281   1.071   0.963  0.00  0.00    +0.013 A 
ATOM     13  C   UNL     1       5.484   0.790   1.582  0.00  0.00    +0.008 A 
ATOM     14  C   UNL     1       6.273   1.818   1.981  0.00  0.00    +0.045 A 
ATOM     15  S   UNL     1       5.314   3.237   1.480  0.00  0.00    -0.099 S 
ENDBRANCH   8  11
BRANCH   2  16
ATOM     16  C   UNL     1       3.472   2.234  -2.196  0.00  0.00    +0.339 C 
ATOM     17  O   UNL     1       3.610   2.478  -3.380  0.00  0.00    -0.245 OA
BRANCH  16  18
ATOM     18  O   UNL     1       3.766   1.005  -1.722  0.00  0.00    -0.462 OA
BRANCH  18  20
ATOM     19  C   UNL     1       4.513  -1.282  -1.949  0.00  0.00    +0.048 C 
ATOM     20  C   UNL     1       4.234   0.040  -2.667  0.00  0.00    +0.229 C 
ENDBRANCH  18  20
ENDBRANCH  16  18
ENDBRANCH   2  16
ENDBRANCH   1   3
BRANCH   1  21
ATOM     21  N   UNL     1       3.413   6.300  -3.267  0.00  0.00    -0.219 N 
ATOM     22  C   UNL     1       4.638   6.848  -3.133  0.00  0.00    +0.244 C 
ATOM     23  O   UNL     1       5.679   6.267  -2.916  0.00  0.00    -0.273 OA
ATOM     24  C   UNL     1       4.441   8.340  -3.310  0.00  0.00    +0.165 C 
ATOM     25  N   UNL     1       2.993   8.473  -3.546  0.00  0.00    -0.287 N 
ATOM     26  C   UNL     1       2.481   7.229  -3.507  0.00  0.00    +0.309 C 
ATOM     27  O   UNL     1       1.303   6.978  -3.668  0.00  0.00    -0.252 OA
ATOM     28  H   UNL     1       2.504   9.296  -3.701  0.00  0.00    +0.151 HD
BRANCH  24  29
ATOM     29  C   UNL     1       4.851   9.091  -2.042  0.00  0.00    +0.069 C 
BRANCH  29  30
ATOM     30  C   UNL     1       4.762  10.576  -2.286  0.00  0.00    -0.020 A 
ATOM     31  C   UNL     1       5.765  11.384  -2.662  0.00  0.00    +0.087 A 
ATOM     32  N   UNL     1       5.308  12.668  -2.786  0.00  0.00    -0.360 N 
ATOM     33  H   UNL     1       5.850  13.430  -3.047  0.00  0.00    +0.165 HD
ATOM     34  C   UNL     1       3.966  12.718  -2.486  0.00  0.00    +0.047 A 
ATOM     35  C   UNL     1       3.563  11.409  -2.165  0.00  0.00    +0.003 A 
ATOM     36  C   UNL     1       2.237  11.155  -1.809  0.00  0.00    +0.010 A 
ATOM     37  C   UNL     1       1.334  12.180  -1.784  0.00  0.00    +0.001 A 
ATOM     38  C   UNL     1       1.724  13.473  -2.105  0.00  0.00    +0.002 A 
ATOM     39  C   UNL     1       3.029  13.746  -2.454  0.00  0.00    +0.026 A 
ENDBRANCH  29  30
ENDBRANCH  24  29
ENDBRANCH   1  21
TORSDOF 8
