REMARK  Name = ZINC17123345
REMARK  7 active torsions:
REMARK  status: ('A' for Active; 'I' for Inactive)
REMARK    1  A    between atoms: C_1  and  C_2
REMARK    2  A    between atoms: C_7  and  N_8
REMARK    3  A    between atoms: N_10  and  C_24
REMARK    4  A    between atoms: C_14  and  C_15
REMARK    5  A    between atoms: C_18  and  O_22
REMARK    6  A    between atoms: C_20  and  O_21
REMARK    7  A    between atoms: C_29  and  C_30
REMARK                            x       y       z     vdW  Elec       q    Type
REMARK                         _______ _______ _______ _____ _____    ______ ____
ROOT
ATOM      1  N   UNL     1       5.010  -1.777  -0.414  0.00  0.00    -0.225 NA
ATOM      2  C   UNL     1       3.735  -1.545  -0.634  0.00  0.00    +0.173 C 
ATOM      3  N   UNL     1       2.703  -2.455  -0.739  0.00  0.00    -0.214 N 
ATOM      4  C   UNL     1       1.466  -2.045  -0.964  0.00  0.00    +0.263 C 
ATOM      5  O   UNL     1       0.543  -2.834  -1.059  0.00  0.00    -0.269 OA
ATOM      6  C   UNL     1       1.254  -0.594  -1.095  0.00  0.00    +0.079 C 
ATOM      7  C   UNL     1       0.104   0.092  -1.325  0.00  0.00    +0.032 C 
ATOM      8  S   UNL     1       2.917   0.023  -0.876  0.00  0.00    -0.048 S 
ENDROOT
BRANCH   1  15
ATOM      9  C   UNL     1       7.387  -1.818  -1.971  0.00  0.00    +0.046 C 
ATOM     10  C   UNL     1       7.065  -0.699  -1.014  0.00  0.00    -0.025 A 
ATOM     11  C   UNL     1       7.935   0.361  -0.871  0.00  0.00    +0.005 A 
ATOM     12  C   UNL     1       7.644   1.386   0.011  0.00  0.00    +0.000 A 
ATOM     13  C   UNL     1       6.476   1.358   0.753  0.00  0.00    +0.002 A 
ATOM     14  C   UNL     1       5.593   0.307   0.616  0.00  0.00    +0.028 A 
ATOM     15  C   UNL     1       5.881  -0.731  -0.273  0.00  0.00    +0.069 A 
ENDBRANCH   1  15
BRANCH   3  16
ATOM     16  C   UNL     1       2.968  -3.824  -0.605  0.00  0.00    +0.046 A 
ATOM     17  C   UNL     1       3.290  -4.583  -1.723  0.00  0.00    +0.024 A 
ATOM     18  C   UNL     1       3.551  -5.932  -1.588  0.00  0.00    +0.002 A 
ATOM     19  C   UNL     1       3.492  -6.528  -0.342  0.00  0.00    +0.000 A 
ATOM     20  C   UNL     1       3.172  -5.775   0.773  0.00  0.00    +0.005 A 
ATOM     21  C   UNL     1       2.915  -4.424   0.646  0.00  0.00    -0.029 A 
ATOM     22  C   UNL     1       2.572  -3.603   1.862  0.00  0.00    +0.045 C 
ENDBRANCH   3  16
BRANCH   7  23
ATOM     23  C   UNL     1       0.081   1.552  -1.192  0.00  0.00    +0.018 A 
ATOM     24  C   UNL     1       1.084   2.208  -0.466  0.00  0.00    +0.015 A 
ATOM     25  C   UNL     1       1.058   3.578  -0.344  0.00  0.00    +0.046 A 
ATOM     26  C   UNL     1       0.039   4.316  -0.939  0.00  0.00    +0.120 A 
ATOM     27  C   UNL     1      -0.959   3.677  -1.660  0.00  0.00    +0.091 A 
ATOM     28  C   UNL     1      -0.943   2.301  -1.796  0.00  0.00    +0.127 A 
BRANCH  28  29
ATOM     29  O   UNL     1      -1.916   1.675  -2.507  0.00  0.00    -0.506 OA
ATOM     30  H   UNL     1      -2.685   1.419  -1.980  0.00  0.00    +0.292 HD
ENDBRANCH  28  29
BRANCH  26  31
ATOM     31  O   UNL     1       0.022   5.668  -0.813  0.00  0.00    -0.507 OA
ATOM     32  H   UNL     1       0.501   6.134  -1.512  0.00  0.00    +0.292 HD
ENDBRANCH  26  31
ENDBRANCH   7  23
TORSDOF 5
