REMARK  Name = ZINC36028120
REMARK  13 active torsions:
REMARK  status: ('A' for Active; 'I' for Inactive)
REMARK    1  A    between atoms: C_1  and  C_2
REMARK    2  A    between atoms: C_2  and  C_3
REMARK    3  A    between atoms: C_3  and  C_5
REMARK    4  A    between atoms: C_3  and  C_6
REMARK    5  A    between atoms: N_10  and  C_28
REMARK    6  A    between atoms: N_15  and  S_18
REMARK    7  A    between atoms: S_18  and  C_21
REMARK    8  A    between atoms: C_28  and  C_29
REMARK    9  A    between atoms: C_29  and  C_30
REMARK   10  A    between atoms: C_33  and  O_38
REMARK   11  A    between atoms: C_34  and  O_36
REMARK   12  A    between atoms: O_36  and  C_37
REMARK   13  A    between atoms: O_38  and  C_39
REMARK                            x       y       z     vdW  Elec       q    Type
REMARK                         _______ _______ _______ _____ _____    ______ ____
ROOT
ATOM      1  C   UNL     1      -1.766  -2.252   0.045  0.00  0.00    +0.022 C 
ATOM      2  C   UNL     1      -1.015  -2.569   1.320  0.00  0.00    +0.201 C 
ATOM      3  O   UNL     1       0.011  -2.038   1.688  0.00  0.00    -0.277 OA
ATOM      4  N   UNL     1      -1.680  -3.542   1.978  0.00  0.00    -0.313 N 
ATOM      5  C   UNL     1      -2.868  -3.926   1.212  0.00  0.00    +0.006 C 
ATOM      6  N   UNL     1      -3.115  -2.835   0.243  0.00  0.00    +0.401 N 
ATOM      7  C   UNL     1      -2.612  -5.232   0.461  0.00  0.00    +0.023 C 
ATOM      8  C   UNL     1      -2.318  -6.348   1.469  0.00  0.00    +0.109 C 
ATOM      9  N   UNL     1      -3.416  -6.407   2.443  0.00  0.00    -0.177 NA
ATOM     10  C   UNL     1      -3.789  -5.182   3.163  0.00  0.00    +0.109 C 
ATOM     11  C   UNL     1      -4.071  -4.075   2.141  0.00  0.00    +0.023 C 
ATOM     12  H   UNL     1      -3.746  -2.150   0.632  0.00  0.00    -0.082 HD
ATOM     13  H   UNL     1      -3.476  -3.202  -0.625  0.00  0.00    -0.082 HD
ENDROOT
BRANCH   9  14
ATOM     14  S   UNL     1      -4.220  -7.828   2.723  0.00  0.00    +0.061 S 
ATOM     15  O   UNL     1      -5.500  -7.477   3.228  0.00  0.00    -0.153 OA
ATOM     16  O   UNL     1      -4.052  -8.625   1.559  0.00  0.00    -0.153 OA
BRANCH  14  17
ATOM     17  C   UNL     1      -3.373  -8.656   4.027  0.00  0.00    +0.106 A 
ATOM     18  C   UNL     1      -2.341  -9.528   3.737  0.00  0.00    +0.031 A 
ATOM     19  C   UNL     1      -1.676 -10.178   4.759  0.00  0.00    +0.040 A 
ATOM     20  C   UNL     1      -2.044  -9.956   6.075  0.00  0.00    +0.124 A 
ATOM     21  C   UNL     1      -3.078  -9.082   6.365  0.00  0.00    +0.040 A 
ATOM     22  C   UNL     1      -3.738  -8.429   5.341  0.00  0.00    +0.031 A 
ATOM     23  F   UNL     1      -1.395 -10.591   7.075  0.00  0.00    -0.205 F 
ENDBRANCH  14  17
ENDBRANCH   9  14
BRANCH   1  24
ATOM     24  C   UNL     1      -1.864  -0.739  -0.154  0.00  0.00    -0.020 C 
ATOM     25  C   UNL     1      -2.689  -0.441  -1.407  0.00  0.00    +0.006 C 
BRANCH  24  27
ATOM     26  C   UNL     1      -0.547   1.372  -0.391  0.00  0.00    +0.004 C 
ATOM     27  C   UNL     1      -0.459  -0.154  -0.317  0.00  0.00    -0.001 C 
ENDBRANCH  24  27
ENDBRANCH   1  24
BRANCH   4  28
ATOM     28  C   UNL     1      -1.276  -4.123   3.261  0.00  0.00    +0.110 C 
BRANCH  28  29
ATOM     29  C   UNL     1      -1.866  -3.296   4.404  0.00  0.00    +0.054 C 
BRANCH  29  30
ATOM     30  C   UNL     1      -1.485  -3.917   5.723  0.00  0.00    -0.042 A 
ATOM     31  C   UNL     1      -2.301  -4.875   6.296  0.00  0.00    +0.007 A 
ATOM     32  C   UNL     1      -1.956  -5.449   7.505  0.00  0.00    +0.049 A 
ATOM     33  C   UNL     1      -0.789  -5.064   8.146  0.00  0.00    +0.161 A 
ATOM     34  C   UNL     1       0.033  -4.100   7.570  0.00  0.00    +0.162 A 
ATOM     35  C   UNL     1      -0.317  -3.533   6.355  0.00  0.00    +0.053 A 
BRANCH  34  36
ATOM     36  O   UNL     1       1.179  -3.719   8.195  0.00  0.00    -0.491 OA
ATOM     37  C   UNL     1       1.973  -2.725   7.545  0.00  0.00    +0.277 C 
ENDBRANCH  34  36
BRANCH  33  38
ATOM     38  O   UNL     1      -0.448  -5.627   9.337  0.00  0.00    -0.491 OA
ATOM     39  C   UNL     1      -1.340  -6.609   9.869  0.00  0.00    +0.277 C 
ENDBRANCH  33  38
ENDBRANCH  29  30
ENDBRANCH  28  29
ENDBRANCH   4  28
TORSDOF 9
