REMARK  Name = ZINC23442344
REMARK  10 active torsions:
REMARK  status: ('A' for Active; 'I' for Inactive)
REMARK    1  A    between atoms: C_1  and  O_2
REMARK    2  A    between atoms: O_2  and  C_3
REMARK    3  A    between atoms: C_3  and  C_5
REMARK    4  A    between atoms: C_8  and  C_11
REMARK    5  A    between atoms: C_11  and  O_12
REMARK    6  A    between atoms: O_12  and  C_13
REMARK    7  A    between atoms: C_13  and  C_15
REMARK    8  A    between atoms: C_13  and  C_31
REMARK    9  A    between atoms: C_15  and  N_16
REMARK   10  A    between atoms: C_22  and  C_24
REMARK                            x       y       z     vdW  Elec       q    Type
REMARK                         _______ _______ _______ _____ _____    ______ ____
ROOT
ATOM      1  C   UNL     1      -1.048   1.026   3.788  0.00  0.00    +0.132 C 
ENDROOT
BRANCH   1   2
ATOM      2  C   UNL     1      -0.701   0.212   5.007  0.00  0.00    -0.021 A 
ATOM      3  C   UNL     1       0.494   0.432   5.668  0.00  0.00    +0.007 A 
ATOM      4  C   UNL     1       0.810  -0.311   6.790  0.00  0.00    +0.020 A 
ATOM      5  C   UNL     1      -0.064  -1.282   7.245  0.00  0.00    +0.041 A 
ATOM      6  C   UNL     1      -1.256  -1.506   6.580  0.00  0.00    +0.020 A 
ATOM      7  C   UNL     1      -1.574  -0.758   5.462  0.00  0.00    +0.007 A 
ATOM      8 CL   UNL     1       0.337  -2.221   8.650  0.00  0.00    -0.084 Cl
ENDBRANCH   1   2
BRANCH   1   9
ATOM      9  O   UNL     1      -0.554   2.358   3.948  0.00  0.00    -0.369 OA
BRANCH   9  10
ATOM     10  C   UNL     1      -1.481   3.251   4.568  0.00  0.00    +0.195 C 
BRANCH  10  14
ATOM     11  C   UNL     1       0.283   7.132   4.902  0.00  0.00    +0.059 A 
ATOM     12  C   UNL     1      -0.449   6.790   3.763  0.00  0.00    +0.015 A 
ATOM     13  C   UNL     1      -1.015   5.536   3.662  0.00  0.00    +0.007 A 
ATOM     14  C   UNL     1      -0.859   4.618   4.686  0.00  0.00    -0.022 A 
ATOM     15  C   UNL     1      -0.140   4.953   5.820  0.00  0.00    +0.007 A 
ATOM     16  C   UNL     1       0.436   6.201   5.932  0.00  0.00    +0.015 A 
BRANCH  11  17
ATOM     17  C   UNL     1       0.892   8.473   5.017  0.00  0.00    +0.339 C 
ATOM     18  O   UNL     1       0.757   9.280   4.120  0.00  0.00    -0.245 OA
BRANCH  17  20
ATOM     19  C   UNL     1       2.168  10.134   6.162  0.00  0.00    +0.280 C 
ATOM     20  O   UNL     1       1.597   8.800   6.117  0.00  0.00    -0.464 OA
ENDBRANCH  17  20
ENDBRANCH  11  17
ENDBRANCH  10  14
ENDBRANCH   9  10
ENDBRANCH   1   9
BRANCH   1  21
ATOM     21  C   UNL     1      -0.409   0.391   2.551  0.00  0.00    -0.042 C 
BRANCH  21  22
ATOM     22  N   UNL     1      -0.750   1.183   1.362  0.00  0.00    +0.384 N 
ATOM     23  C   UNL     1      -2.190   1.115   1.080  0.00  0.00    -0.059 C 
ATOM     24  C   UNL     1      -2.533   2.091  -0.051  0.00  0.00    +0.089 C 
ATOM     25  N   UNL     1      -1.660   1.802  -1.198  0.00  0.00    -0.301 N 
ATOM     26  C   UNL     1      -0.210   1.718  -0.966  0.00  0.00    +0.089 C 
ATOM     27  C   UNL     1       0.041   0.756   0.200  0.00  0.00    -0.059 C 
ATOM     28  C   UNL     1      -2.175   1.620  -2.430  0.00  0.00    +0.246 C 
ATOM     29  O   UNL     1      -3.380   1.596  -2.588  0.00  0.00    -0.270 OA
ATOM     30  H   UNL     1      -0.499   2.233   1.570  0.00  0.00    -0.082 HD
BRANCH  28  31
ATOM     31  C   UNL     1      -1.274   1.448  -3.590  0.00  0.00    +0.037 A 
ATOM     32  C   UNL     1      -0.044   2.107  -3.625  0.00  0.00    +0.014 A 
ATOM     33  C   UNL     1       0.795   1.938  -4.706  0.00  0.00    +0.021 A 
ATOM     34  C   UNL     1       0.413   1.126  -5.762  0.00  0.00    +0.041 A 
ATOM     35  C   UNL     1      -0.809   0.475  -5.735  0.00  0.00    +0.021 A 
ATOM     36  C   UNL     1      -1.653   0.631  -4.657  0.00  0.00    +0.014 A 
ATOM     37 CL   UNL     1       1.472   0.923  -7.123  0.00  0.00    -0.084 Cl
ENDBRANCH  28  31
ENDBRANCH  21  22
ENDBRANCH   1  21
TORSDOF 9
