REMARK  Name = ZINC20898885
REMARK  7 active torsions:
REMARK  status: ('A' for Active; 'I' for Inactive)
REMARK    1  A    between atoms: C_1  and  C_2
REMARK    2  A    between atoms: C_13  and  C_15
REMARK    3  A    between atoms: C_18  and  O_23
REMARK    4  A    between atoms: C_19  and  O_21
REMARK    5  A    between atoms: O_21  and  C_22
REMARK    6  A    between atoms: O_23  and  C_24
REMARK    7  A    between atoms: C_24  and  C_25
REMARK                            x       y       z     vdW  Elec       q    Type
REMARK                         _______ _______ _______ _____ _____    ______ ____
ROOT
ATOM      1  C   UNL     1       0.583   1.144  -2.480  0.00  0.00    -0.026 A 
ATOM      2  C   UNL     1       1.882   1.328  -2.043  0.00  0.00    +0.009 A 
ATOM      3  C   UNL     1       2.424   2.599  -1.995  0.00  0.00    +0.050 A 
ATOM      4  C   UNL     1       1.665   3.691  -2.385  0.00  0.00    +0.162 A 
ATOM      5  C   UNL     1       0.358   3.505  -2.825  0.00  0.00    +0.162 A 
ATOM      6  C   UNL     1      -0.178   2.228  -2.875  0.00  0.00    +0.054 A 
ENDROOT
BRANCH   1  19
ATOM      7  C   UNL     1      -0.018   1.503   0.010  0.00  0.00    +0.068 C 
ATOM      8  C   UNL     1       0.002  -0.004   0.002  0.00  0.00    +0.066 A 
ATOM      9  C   UNL     1       0.008  -0.820  -1.149  0.00  0.00    +0.032 A 
ATOM     10  C   UNL     1       0.026  -2.108  -0.741  0.00  0.00    +0.125 A 
ATOM     11  N   UNL     1       0.034  -2.096   0.628  0.00  0.00    -0.263 N 
ATOM     12  H   UNL     1       0.049  -2.878   1.203  0.00  0.00    +0.190 HD
ATOM     13  N   UNL     1       0.023  -0.769   1.056  0.00  0.00    -0.177 NA
ATOM     14  N   UNL     1       0.033  -3.292  -1.440  0.00  0.00    -0.270 N 
ATOM     15  C   UNL     1       0.075  -3.614  -2.697  0.00  0.00    +0.228 C 
ATOM     16  O   UNL     1       0.171  -4.803  -2.916  0.00  0.00    -0.275 OA
ATOM     17  C   UNL     1       0.024  -2.763  -3.905  0.00  0.00    +0.166 C 
ATOM     18  S   UNL     1       0.927  -1.220  -3.714  0.00  0.00    -0.138 S 
ATOM     19  C   UNL     1      -0.004  -0.244  -2.530  0.00  0.00    +0.112 C 
ATOM     20  H   UNL     1      -0.002  -4.067  -0.858  0.00  0.00    +0.156 HD
ENDBRANCH   1  19
BRANCH   5  21
ATOM     21  O   UNL     1      -0.390   4.574  -3.209  0.00  0.00    -0.491 OA
ATOM     22  C   UNL     1      -1.723   4.308  -3.648  0.00  0.00    +0.277 C 
ENDBRANCH   5  21
BRANCH   4  23
ATOM     23  O   UNL     1       2.197   4.942  -2.338  0.00  0.00    -0.484 OA
BRANCH  23  24
ATOM     24  C   UNL     1       3.545   5.057  -1.876  0.00  0.00    +0.264 C 
BRANCH  24  25
ATOM     25  C   UNL     1       3.959   6.506  -1.893  0.00  0.00    -0.010 A 
ATOM     26  C   UNL     1       4.540   7.045  -3.025  0.00  0.00    +0.008 A 
ATOM     27  C   UNL     1       4.921   8.374  -3.041  0.00  0.00    +0.020 A 
ATOM     28  C   UNL     1       4.720   9.164  -1.923  0.00  0.00    +0.041 A 
ATOM     29  C   UNL     1       4.139   8.623  -0.790  0.00  0.00    +0.020 A 
ATOM     30  C   UNL     1       3.753   7.296  -0.777  0.00  0.00    +0.008 A 
ATOM     31 CL   UNL     1       5.198  10.833  -1.942  0.00  0.00    -0.084 Cl
ENDBRANCH  24  25
ENDBRANCH  23  24
ENDBRANCH   4  23
TORSDOF 5
