REMARK  Name = ZINC14936555
REMARK  7 active torsions:
REMARK  status: ('A' for Active; 'I' for Inactive)
REMARK    1  A    between atoms: C_1  and  C_2
REMARK    2  A    between atoms: C_2  and  C_3
REMARK    3  A    between atoms: C_2  and  C_4
REMARK    4  A    between atoms: C_4  and  C_6
REMARK    5  A    between atoms: C_4  and  N_23
REMARK    6  A    between atoms: C_11  and  C_14
REMARK    7  A    between atoms: C_24  and  C_26
REMARK                            x       y       z     vdW  Elec       q    Type
REMARK                         _______ _______ _______ _____ _____    ______ ____
ROOT
ATOM      1  C   UNL     1       0.172   3.261   3.501  0.00  0.00    +0.162 C 
ENDROOT
BRANCH   1   2
ATOM      2  C   UNL     1      -0.436   3.813   2.237  0.00  0.00    +0.236 C 
ATOM      3  O   UNL     1      -0.043   4.868   1.786  0.00  0.00    -0.274 OA
ATOM      4  N   UNL     1      -1.417   3.135   1.609  0.00  0.00    -0.300 N 
ATOM      5  C   UNL     1      -1.823   1.803   2.077  0.00  0.00    +0.108 C 
ATOM      6  C   UNL     1      -1.756   0.825   0.899  0.00  0.00    +0.029 C 
ATOM      7  C   UNL     1      -2.596   1.369  -0.259  0.00  0.00    +0.048 C 
ATOM      8  C   UNL     1      -2.028   2.714  -0.715  0.00  0.00    +0.029 C 
ATOM      9  C   UNL     1      -2.099   3.714   0.444  0.00  0.00    +0.108 C 
BRANCH   7  10
ATOM     10  C   UNL     1      -2.559   0.393  -1.407  0.00  0.00    +0.083 A 
ATOM     11  N   UNL     1      -3.555  -0.231  -1.970  0.00  0.00    -0.244 NA
ATOM     12  C   UNL     1      -3.386  -1.086  -3.000  0.00  0.00    +0.078 A 
ATOM     13  C   UNL     1      -4.355  -1.830  -3.708  0.00  0.00    +0.029 A 
ATOM     14  C   UNL     1      -3.991  -2.651  -4.730  0.00  0.00    +0.002 A 
ATOM     15  C   UNL     1      -2.664  -2.788  -5.116  0.00  0.00    +0.001 A 
ATOM     16  C   UNL     1      -1.686  -2.077  -4.448  0.00  0.00    +0.017 A 
ATOM     17  C   UNL     1      -2.044  -1.246  -3.414  0.00  0.00    +0.039 A 
ATOM     18  S   UNL     1      -1.180  -0.165  -2.302  0.00  0.00    -0.072 S 
ENDBRANCH   7  10
ENDBRANCH   1   2
BRANCH   1  19
ATOM     19  N   UNL     1       0.457   4.360   4.427  0.00  0.00    -0.303 N 
ATOM     20  C   UNL     1       0.517   4.125   5.753  0.00  0.00    +0.220 C 
ATOM     21  O   UNL     1       0.337   3.005   6.179  0.00  0.00    -0.275 OA
ATOM     22  H   UNL     1       0.601   5.257   4.086  0.00  0.00    +0.149 HD
BRANCH  20  23
ATOM     23  C   UNL     1       0.810   5.256   6.705  0.00  0.00    +0.048 C 
ATOM     24  C   UNL     1      -0.271   6.330   6.569  0.00  0.00    +0.019 C 
ATOM     25  C   UNL     1       0.026   7.478   7.536  0.00  0.00    -0.009 C 
ATOM     26  C   UNL     1       0.039   6.946   8.971  0.00  0.00    +0.007 C 
ATOM     27  C   UNL     1       1.120   5.872   9.107  0.00  0.00    -0.009 C 
ATOM     28  C   UNL     1       0.823   4.724   8.139  0.00  0.00    +0.019 C 
ATOM     29  C   UNL     1       2.485   6.477   8.775  0.00  0.00    +0.007 C 
ATOM     30  C   UNL     1       2.473   7.009   7.341  0.00  0.00    -0.009 C 
ATOM     31  C   UNL     1       1.392   8.084   7.205  0.00  0.00    +0.007 C 
ATOM     32  C   UNL     1       2.175   5.862   6.374  0.00  0.00    +0.019 C 
ENDBRANCH  20  23
ENDBRANCH   1  19
BRANCH   1  34
ATOM     33  C   UNL     1       2.035   1.878   4.428  0.00  0.00    +0.009 C 
ATOM     34  C   UNL     1       1.472   2.529   3.163  0.00  0.00    +0.012 C 
ATOM     35  C   UNL     1       1.193   1.450   2.115  0.00  0.00    +0.009 C 
ENDBRANCH   1  34
TORSDOF 5
