REMARK  Name = ZINC49034847
REMARK  8 active torsions:
REMARK  status: ('A' for Active; 'I' for Inactive)
REMARK    1  A    between atoms: C_3  and  C_8
REMARK    2  A    between atoms: C_10  and  C_13
REMARK    3  A    between atoms: C_13  and  C_14
REMARK    4  A    between atoms: C_14  and  C_16
REMARK    5  A    between atoms: C_14  and  N_38
REMARK    6  A    between atoms: N_18  and  C_19
REMARK    7  A    between atoms: C_20  and  C_35
REMARK    8  A    between atoms: C_22  and  C_26
REMARK                            x       y       z     vdW  Elec       q    Type
REMARK                         _______ _______ _______ _____ _____    ______ ____
ROOT
ATOM      1  C   UNL     1       9.288   1.941  -1.576  0.00  0.00    +0.203 C 
ATOM      2  O   UNL     1       9.786   0.851  -1.756  0.00  0.00    -0.277 OA
ATOM      3  N   UNL     1      10.075   3.018  -1.379  0.00  0.00    -0.290 N 
ATOM      4  H   UNL     1       9.679   3.900  -1.301  0.00  0.00    +0.154 HD
ENDROOT
BRANCH   3   5
ATOM      5  C   UNL     1      11.434   2.866  -1.290  0.00  0.00    +0.021 C 
ATOM      6  C   UNL     1      12.043   3.265  -0.169  0.00  0.00    +0.058 C 
ATOM      7  C   UNL     1      13.525   3.167   0.049  0.00  0.00    +0.052 C 
ATOM      8  C   UNL     1      14.141   2.190  -0.954  0.00  0.00    +0.027 C 
ATOM      9  C   UNL     1      13.656   2.563  -2.360  0.00  0.00    +0.014 C 
ATOM     10  C   UNL     1      12.159   2.255  -2.454  0.00  0.00    +0.052 C 
BRANCH   8  11
ATOM     11  C   UNL     1      15.644   2.282  -0.893  0.00  0.00    -0.003 A 
ATOM     12  C   UNL     1      16.274   3.483  -1.161  0.00  0.00    +0.045 A 
ATOM     13  C   UNL     1      17.655   3.569  -1.105  0.00  0.00    +0.127 A 
ATOM     14  C   UNL     1      18.405   2.453  -0.778  0.00  0.00    +0.079 A 
ATOM     15  C   UNL     1      17.776   1.250  -0.509  0.00  0.00    +0.161 A 
ATOM     16  C   UNL     1      16.392   1.167  -0.561  0.00  0.00    +0.162 A 
ATOM     17  F   UNL     1      15.776  -0.005  -0.294  0.00  0.00    -0.202 F 
ATOM     18  F   UNL     1      18.507   0.160  -0.191  0.00  0.00    -0.202 F 
ATOM     19  F   UNL     1      18.270   4.743  -1.368  0.00  0.00    -0.205 F 
ENDBRANCH   8  11
BRANCH   6  20
ATOM     20  C   UNL     1      11.250   3.808   0.864  0.00  0.00    +0.384 C 
ATOM     21  O   UNL     1      10.029   3.806   0.765  0.00  0.00    -0.241 OA
ATOM     22  O   UNL     1      11.783   4.281   1.861  0.00  0.00    -0.241 OA
ENDBRANCH   6  20
ENDBRANCH   3   5
BRANCH   1  23
ATOM     23  C   UNL     1       7.788   2.093  -1.571  0.00  0.00    +0.022 C 
BRANCH  23  24
ATOM     24  N   UNL     1       7.178   0.947  -2.258  0.00  0.00    +0.386 N 
ATOM     25  H   UNL     1       6.174   1.048  -2.254  0.00  0.00    -0.089 HD
ATOM     26  H   UNL     1       7.509   0.910  -3.210  0.00  0.00    -0.089 HD
ATOM     27  H   UNL     1       7.432   0.095  -1.780  0.00  0.00    -0.089 HD
ENDBRANCH  23  24
BRANCH  23  28
ATOM     28  C   UNL     1       7.286   2.149  -0.127  0.00  0.00    +0.092 C 
BRANCH  28  31
ATOM     29  C   UNL     1       3.657   2.117  -0.129  0.00  0.00    +0.220 A 
ATOM     30  N   UNL     1       4.864   1.522  -0.144  0.00  0.00    -0.190 NA
ATOM     31  C   UNL     1       5.804   2.423  -0.120  0.00  0.00    +0.227 A 
ATOM     32  O   UNL     1       5.233   3.634  -0.090  0.00  0.00    -0.338 OA
ATOM     33  N   UNL     1       3.830   3.415  -0.102  0.00  0.00    -0.054 NA
BRANCH  29  36
ATOM     34  C   UNL     1      -0.045   1.496  -0.153  0.00  0.00    +0.042 A 
ATOM     35  C   UNL     1       1.169   2.160  -0.136  0.00  0.00    +0.034 A 
ATOM     36  C   UNL     1       2.348   1.418  -0.148  0.00  0.00    +0.111 A 
ATOM     37  N   UNL     1       2.311   0.092  -0.177  0.00  0.00    -0.249 NA
ATOM     38  C   UNL     1       1.171  -0.567  -0.194  0.00  0.00    +0.149 A 
ATOM     39  C   UNL     1      -0.040   0.107  -0.183  0.00  0.00    +0.141 A 
ATOM     40  F   UNL     1      -1.204  -0.580  -0.201  0.00  0.00    -0.204 F 
ENDBRANCH  29  36
ENDBRANCH  28  31
ENDBRANCH  23  28
ENDBRANCH   1  23
TORSDOF 8
