REMARK  Name = ZINC13499612
REMARK  12 active torsions:
REMARK  status: ('A' for Active; 'I' for Inactive)
REMARK    1  A    between atoms: C_1  and  C_2
REMARK    2  A    between atoms: C_2  and  C_3
REMARK    3  A    between atoms: C_3  and  C_4
REMARK    4  A    between atoms: C_4  and  C_6
REMARK    5  A    between atoms: C_4  and  N_72
REMARK    6  A    between atoms: N_10  and  C_11
REMARK    7  A    between atoms: C_11  and  C_12
REMARK    8  A    between atoms: C_17  and  C_18
REMARK    9  A    between atoms: C_17  and  N_72
REMARK   10  A    between atoms: C_21  and  C_31
REMARK   11  A    between atoms: C_23  and  C_30
REMARK   12  A    between atoms: C_32  and  N_72
REMARK                            x       y       z     vdW  Elec       q    Type
REMARK                         _______ _______ _______ _____ _____    ______ ____
ROOT
ATOM      1  N   UNL     1      -0.327   2.867   1.511  0.00  0.00    +0.391 N 
ATOM      2  H   UNL     1      -0.468   3.144   2.489  0.00  0.00    -0.080 HD
ENDROOT
BRANCH   1   3
ATOM      3  C   UNL     1       1.123   2.805   1.233  0.00  0.00    -0.067 C 
ATOM      4  C   UNL     1       1.380   2.187  -0.143  0.00  0.00    -0.015 C 
ATOM      5  C   UNL     1       2.887   2.131  -0.404  0.00  0.00    -0.002 C 
ATOM      6  C   UNL     1       3.560   1.278   0.673  0.00  0.00    -0.000 C 
ATOM      7  C   UNL     1       3.303   1.897   2.049  0.00  0.00    -0.002 C 
ATOM      8  C   UNL     1       1.796   1.952   2.310  0.00  0.00    -0.015 C 
ENDBRANCH   1   3
BRANCH   1   9
ATOM      9  C   UNL     1      -0.939   1.538   1.296  0.00  0.00    +0.003 C 
BRANCH   9  10
ATOM     10  C   UNL     1      -1.087   1.258  -0.178  0.00  0.00    +0.139 A 
ATOM     11  N   UNL     1      -1.599   2.061  -1.079  0.00  0.00    -0.115 NA
ATOM     12  N   UNL     1      -1.547   1.463  -2.219  0.00  0.00    -0.023 NA
ATOM     13  N   UNL     1      -1.022   0.297  -2.067  0.00  0.00    -0.044 NA
ATOM     14  N   UNL     1      -0.726   0.134  -0.823  0.00  0.00    -0.223 N 
BRANCH  14  15
ATOM     15  C   UNL     1      -0.111  -1.053  -0.223  0.00  0.00    +0.221 C 
BRANCH  15  16
ATOM     16  C   UNL     1      -1.189  -2.010   0.217  0.00  0.00    +0.126 A 
ATOM     17  C   UNL     1      -1.729  -2.986  -0.534  0.00  0.00    +0.046 A 
ATOM     18  C   UNL     1      -2.693  -3.635   0.270  0.00  0.00    +0.041 A 
ATOM     19  C   UNL     1      -2.691  -3.012   1.462  0.00  0.00    +0.195 A 
ATOM     20  O   UNL     1      -1.778  -2.028   1.424  0.00  0.00    -0.466 OA
ENDBRANCH  15  16
ENDBRANCH  14  15
ENDBRANCH   9  10
BRANCH   9  21
ATOM     21  C   UNL     1      -2.317   1.520   1.960  0.00  0.00    -0.008 C 
BRANCH  21  23
ATOM     22  C   UNL     1      -3.536   1.770   4.126  0.00  0.00    +0.004 C 
ATOM     23  C   UNL     1      -2.156   1.671   3.474  0.00  0.00    -0.005 C 
ENDBRANCH  21  23
ENDBRANCH   9  21
ENDBRANCH   1   9
BRANCH   1  24
ATOM     24  C   UNL     1      -0.968   3.867   0.631  0.00  0.00    -0.036 C 
BRANCH  24  25
ATOM     25  C   UNL     1      -0.610   5.245   1.125  0.00  0.00    +0.001 A 
ATOM     26  C   UNL     1       0.421   5.919   0.558  0.00  0.00    +0.017 A 
ATOM     27  C   UNL     1       0.740   7.258   1.057  0.00  0.00    +0.002 A 
ATOM     28  C   UNL     1       1.789   8.003   0.508  0.00  0.00    -0.041 A 
ATOM     29  C   UNL     1       2.064   9.248   1.000  0.00  0.00    +0.007 A 
ATOM     30  C   UNL     1       1.312   9.779   2.039  0.00  0.00    -0.048 A 
ATOM     31  C   UNL     1       0.275   9.062   2.595  0.00  0.00    +0.029 A 
ATOM     32  C   UNL     1      -0.024   7.793   2.111  0.00  0.00    +0.050 A 
ATOM     33  N   UNL     1      -1.057   7.054   2.647  0.00  0.00    -0.322 N 
ATOM     34  H   UNL     1      -1.583   7.425   3.373  0.00  0.00    +0.169 HD
ATOM     35  C   UNL     1      -1.346   5.827   2.179  0.00  0.00    +0.251 A 
ATOM     36  O   UNL     1      -2.266   5.203   2.678  0.00  0.00    -0.268 OA
ATOM     37  C   UNL     1       1.634  11.154   2.565  0.00  0.00    +0.044 C 
ATOM     38  C   UNL     1       2.612   7.436  -0.619  0.00  0.00    +0.044 C 
ENDBRANCH  24  25
ENDBRANCH   1  24
TORSDOF 9
