REMARK  Name = ZINC39594584
REMARK  9 active torsions:
REMARK  status: ('A' for Active; 'I' for Inactive)
REMARK    1  A    between atoms: C_1  and  C_2
REMARK    2  A    between atoms: C_2  and  C_4
REMARK    3  A    between atoms: C_2  and  O_34
REMARK    4  A    between atoms: C_8  and  C_17
REMARK    5  A    between atoms: N_19  and  C_20
REMARK    6  A    between atoms: C_20  and  C_21
REMARK    7  A    between atoms: C_21  and  C_23
REMARK    8  A    between atoms: C_21  and  N_29
REMARK    9  A    between atoms: O_34  and  C_35
REMARK                            x       y       z     vdW  Elec       q    Type
REMARK                         _______ _______ _______ _____ _____    ______ ____
ROOT
ATOM      1  C   UNL     1       1.258  -0.199  -0.818  0.00  0.00    +0.256 C 
ATOM      2  O   UNL     1       2.394  -0.622  -0.855  0.00  0.00    -0.272 OA
ATOM      3  N   UNL     1       0.468  -0.293  -1.906  0.00  0.00    -0.297 N 
ATOM      4  C   UNL     1      -0.958   0.092  -2.029  0.00  0.00    +0.121 C 
ATOM      5  C   UNL     1      -1.070   0.731  -3.431  0.00  0.00    +0.100 C 
ATOM      6  C   UNL     1       0.104   0.137  -4.228  0.00  0.00    -0.004 C 
ATOM      7  C   UNL     1       0.831  -0.799  -3.251  0.00  0.00    +0.115 C 
ATOM      8  C   UNL     1      -0.415  -0.649  -5.427  0.00  0.00    -0.010 C 
ATOM      9  C   UNL     1       0.771  -1.180  -6.236  0.00  0.00    -0.082 C 
ATOM     10  N   UNL     1       1.602  -0.057  -6.685  0.00  0.00    +0.379 N 
ATOM     11  C   UNL     1       2.173   0.639  -5.526  0.00  0.00    -0.082 C 
ATOM     12  C   UNL     1       1.046   1.247  -4.687  0.00  0.00    -0.010 C 
ATOM     13  H   UNL     1       2.349  -0.404  -7.269  0.00  0.00    -0.086 HD
ATOM     14  H   UNL     1       1.036   0.588  -7.217  0.00  0.00    -0.086 HD
ENDROOT
BRANCH   5  15
ATOM     15  C   UNL     1      -2.382   0.361  -4.072  0.00  0.00    +0.218 C 
ATOM     16  O   UNL     1      -2.928  -0.682  -3.780  0.00  0.00    -0.275 OA
ATOM     17  N   UNL     1      -2.951   1.190  -4.971  0.00  0.00    -0.316 N 
ATOM     18  H   UNL     1      -2.514   2.024  -5.204  0.00  0.00    +0.149 HD
BRANCH  17  19
ATOM     19  C   UNL     1      -4.227   0.831  -5.594  0.00  0.00    +0.093 C 
BRANCH  19  20
ATOM     20  C   UNL     1      -4.583   1.868  -6.661  0.00  0.00    -0.019 C 
BRANCH  20  21
ATOM     21  C   UNL     1      -3.575   1.803  -7.780  0.00  0.00    -0.041 A 
ATOM     22  C   UNL     1      -2.537   2.720  -7.844  0.00  0.00    +0.005 A 
ATOM     23  C   UNL     1      -1.634   2.623  -8.891  0.00  0.00    +0.020 A 
ATOM     24  C   UNL     1      -1.797   1.622  -9.830  0.00  0.00    +0.111 A 
ATOM     25  N   UNL     1      -2.796   0.767  -9.738  0.00  0.00    -0.263 NA
ATOM     26  C   UNL     1      -3.671   0.826  -8.752  0.00  0.00    +0.112 A 
ENDBRANCH  20  21
BRANCH  20  27
ATOM     27  N   UNL     1      -5.923   1.584  -7.192  0.00  0.00    +0.385 N 
ATOM     28  C   UNL     1      -6.940   1.728  -6.120  0.00  0.00    -0.078 C 
ATOM     29  C   UNL     1      -8.254   1.963  -6.906  0.00  0.00    -0.020 C 
ATOM     30  C   UNL     1      -7.794   2.842  -8.092  0.00  0.00    -0.020 C 
ATOM     31  C   UNL     1      -6.283   2.578  -8.226  0.00  0.00    -0.078 C 
ATOM     32  H   UNL     1      -5.954   0.653  -7.579  0.00  0.00    -0.081 HD
ENDBRANCH  20  27
ENDBRANCH  19  20
ENDBRANCH  17  19
ENDBRANCH   5  15
BRANCH   1  34
ATOM     33  C   UNL     1       0.519   1.931   0.215  0.00  0.00    +0.062 C 
ATOM     34  C   UNL     1       0.730   0.433   0.445  0.00  0.00    +0.256 C 
BRANCH  34  35
ATOM     35  O   UNL     1       1.671   0.241   1.503  0.00  0.00    -0.480 OA
BRANCH  35  36
ATOM     36  C   UNL     1       1.185   0.254   2.771  0.00  0.00    +0.122 A 
ATOM     37  C   UNL     1      -0.151   0.553   3.000  0.00  0.00    +0.045 A 
ATOM     38  C   UNL     1      -0.643   0.565   4.290  0.00  0.00    +0.004 A 
ATOM     39  C   UNL     1       0.193   0.280   5.354  0.00  0.00    +0.000 A 
ATOM     40  C   UNL     1       1.524  -0.019   5.128  0.00  0.00    +0.004 A 
ATOM     41  C   UNL     1       2.020  -0.038   3.839  0.00  0.00    +0.045 A 
ENDBRANCH  35  36
ENDBRANCH  34  35
ENDBRANCH   1  34
TORSDOF 8
