REMARK  Name = ZINC35667383
REMARK  8 active torsions:
REMARK  status: ('A' for Active; 'I' for Inactive)
REMARK    1  A    between atoms: C_1  and  O_2
REMARK    2  A    between atoms: O_2  and  C_3
REMARK    3  A    between atoms: C_6  and  N_9
REMARK    4  A    between atoms: C_11  and  C_22
REMARK    5  A    between atoms: N_14  and  C_15
REMARK    6  A    between atoms: C_15  and  C_17
REMARK    7  A    between atoms: C_17  and  N_18
REMARK    8  A    between atoms: N_18  and  C_19
REMARK                            x       y       z     vdW  Elec       q    Type
REMARK                         _______ _______ _______ _____ _____    ______ ____
ROOT
ATOM      1  N   UNL     1       2.541  -2.504   4.231  0.00  0.00    -0.287 N 
ATOM      2  C   UNL     1       3.148  -1.873   5.298  0.00  0.00    +0.120 A 
ATOM      3  C   UNL     1       3.650  -2.819   6.111  0.00  0.00    +0.066 A 
ATOM      4  N   UNL     1       3.358  -4.059   5.555  0.00  0.00    -0.326 N 
ATOM      5  C   UNL     1       2.671  -3.846   4.403  0.00  0.00    +0.205 A 
ATOM      6  N   UNL     1       2.208  -4.789   3.582  0.00  0.00    -0.148 NA
ATOM      7  H   UNL     1       3.599  -4.922   5.926  0.00  0.00    +0.169 HD
ENDROOT
BRANCH   1  11
ATOM      8  C   UNL     1       0.626  -0.619   1.042  0.00  0.00    +0.120 A 
ATOM      9  C   UNL     1       1.202   0.140   2.051  0.00  0.00    +0.047 A 
ATOM     10  C   UNL     1       1.836  -0.484   3.107  0.00  0.00    +0.030 A 
ATOM     11  C   UNL     1       1.897  -1.870   3.159  0.00  0.00    +0.049 A 
ATOM     12  C   UNL     1       1.320  -2.628   2.149  0.00  0.00    +0.030 A 
ATOM     13  C   UNL     1       0.682  -2.004   1.097  0.00  0.00    +0.047 A 
BRANCH   8  15
ATOM     14  C   UNL     1      -0.017   1.425   0.010  0.00  0.00    +0.277 C 
ATOM     15  O   UNL     1       0.002  -0.004   0.002  0.00  0.00    -0.495 OA
ENDBRANCH   8  15
ENDBRANCH   1  11
BRANCH   3  16
ATOM     16  C   UNL     1       4.383  -2.582   7.374  0.00  0.00    -0.000 A 
ATOM     17  C   UNL     1       4.604  -1.280   7.822  0.00  0.00    +0.010 A 
ATOM     18  C   UNL     1       5.288  -1.065   9.001  0.00  0.00    +0.001 A 
ATOM     19  C   UNL     1       5.755  -2.139   9.739  0.00  0.00    +0.000 A 
ATOM     20  C   UNL     1       5.539  -3.433   9.300  0.00  0.00    +0.001 A 
ATOM     21  C   UNL     1       4.852  -3.661   8.125  0.00  0.00    +0.010 A 
ENDBRANCH   3  16
BRANCH   6  22
ATOM     22  C   UNL     1       2.404  -6.071   3.866  0.00  0.00    +0.222 C 
ATOM     23  O   UNL     1       3.005  -6.386   4.876  0.00  0.00    -0.276 OA
BRANCH  22  24
ATOM     24  C   UNL     1       1.880  -7.137   2.938  0.00  0.00    +0.017 C 
BRANCH  24  25
ATOM     25  N   UNL     1       2.223  -8.462   3.471  0.00  0.00    +0.387 N 
ATOM     26  H   UNL     1       3.226  -8.545   3.547  0.00  0.00    -0.085 HD
ATOM     27  H   UNL     1       1.806  -8.576   4.383  0.00  0.00    -0.085 HD
BRANCH  25  28
ATOM     28  C   UNL     1       1.713  -9.501   2.567  0.00  0.00    -0.071 C 
ATOM     29  C   UNL     1       0.643 -10.450   3.112  0.00  0.00    -0.017 C 
ATOM     30  C   UNL     1       2.070 -10.954   2.887  0.00  0.00    -0.017 C 
ENDBRANCH  25  28
ENDBRANCH  24  25
ENDBRANCH  22  24
ENDBRANCH   6  22
TORSDOF 7
