REMARK  Name = ZINC34718891
REMARK  9 active torsions:
REMARK  status: ('A' for Active; 'I' for Inactive)
REMARK    1  A    between atoms: C_1  and  C_2
REMARK    2  A    between atoms: C_2  and  O_3
REMARK    3  A    between atoms: O_3  and  C_4
REMARK    4  A    between atoms: C_4  and  C_6
REMARK    5  A    between atoms: C_13  and  C_15
REMARK    6  A    between atoms: C_15  and  S_16
REMARK    7  A    between atoms: S_16  and  C_17
REMARK    8  A    between atoms: C_28  and  C_31
REMARK    9  A    between atoms: C_32  and  C_34
REMARK                            x       y       z     vdW  Elec       q    Type
REMARK                         _______ _______ _______ _____ _____    ______ ____
ROOT
ATOM      1  C   UNL     1       3.417  -2.248  -9.848  0.00  0.00    +0.192 A 
ATOM      2  N   UNL     1       3.888  -1.625 -10.919  0.00  0.00    -0.207 NA
ATOM      3  C   UNL     1       4.602  -2.283 -11.826  0.00  0.00    +0.127 A 
ATOM      4  C   UNL     1       4.851  -3.644 -11.636  0.00  0.00    +0.083 A 
ATOM      5  C   UNL     1       4.342  -4.256 -10.505  0.00  0.00    +0.135 A 
ATOM      6  N   UNL     1       3.641  -3.537  -9.639  0.00  0.00    -0.210 NA
ATOM      7 CL   UNL     1       4.622  -5.945 -10.220  0.00  0.00    -0.062 Cl
ATOM      8  N   UNL     1       5.092  -1.629 -12.945  0.00  0.00    -0.312 N 
ATOM      9  C   UNL     1       5.038  -0.163 -13.037  0.00  0.00    +0.125 C 
ATOM     10  C   UNL     1       4.304   0.220 -14.329  0.00  0.00    +0.127 C 
ATOM     11  N   UNL     1       4.888  -0.539 -15.443  0.00  0.00    -0.295 N 
ATOM     12  C   UNL     1       4.942  -2.005 -15.351  0.00  0.00    +0.090 C 
ATOM     13  C   UNL     1       5.681  -2.388 -14.057  0.00  0.00    +0.128 C 
ATOM     14  C   UNL     1       3.521  -2.571 -15.325  0.00  0.00    +0.029 C 
ATOM     15  C   UNL     1       5.365   0.097 -16.531  0.00  0.00    +0.219 C 
ATOM     16  O   UNL     1       5.845  -0.540 -17.445  0.00  0.00    -0.275 OA
ENDROOT
BRANCH  15  17
ATOM     17  C   UNL     1       5.303   1.601 -16.612  0.00  0.00    +0.075 C 
ATOM     18  C   UNL     1       4.349   2.214 -17.640  0.00  0.00    +0.013 C 
ATOM     19  C   UNL     1       5.861   2.264 -17.873  0.00  0.00    +0.013 C 
ENDBRANCH  15  17
BRANCH   1  20
ATOM     20  S   UNL     1       2.475  -1.337  -8.670  0.00  0.00    -0.077 S 
BRANCH  20  21
ATOM     21  C   UNL     1       2.056  -2.563  -7.401  0.00  0.00    +0.173 C 
BRANCH  21  28
ATOM     22  C   UNL     1       0.685  -2.283  -2.852  0.00  0.00    +0.115 C 
ATOM     23  C   UNL     1       0.880  -3.792  -2.686  0.00  0.00    +0.018 C 
ATOM     24  C   UNL     1       1.793  -4.316  -3.797  0.00  0.00    +0.020 C 
ATOM     25  C   UNL     1       1.135  -4.059  -5.157  0.00  0.00    +0.108 C 
ATOM     26  N   UNL     1       0.812  -2.630  -5.264  0.00  0.00    -0.300 N 
ATOM     27  C   UNL     1       0.015  -2.003  -4.200  0.00  0.00    +0.122 C 
ATOM     28  C   UNL     1       1.239  -1.907  -6.318  0.00  0.00    +0.226 C 
ATOM     29  O   UNL     1       0.966  -0.728  -6.395  0.00  0.00    -0.275 OA
BRANCH  22  30
ATOM     30  C   UNL     1      -0.187  -1.764  -1.739  0.00  0.00    +0.312 C 
ATOM     31  O   UNL     1      -0.609  -2.522  -0.898  0.00  0.00    -0.250 OA
BRANCH  30  32
ATOM     32  O   UNL     1      -0.495  -0.458  -1.681  0.00  0.00    -0.465 OA
BRANCH  32  34
ATOM     33  C   UNL     1      -1.568   1.472  -0.700  0.00  0.00    +0.048 C 
ATOM     34  C   UNL     1      -1.327  -0.035  -0.599  0.00  0.00    +0.229 C 
ENDBRANCH  32  34
ENDBRANCH  30  32
ENDBRANCH  22  30
ENDBRANCH  21  28
ENDBRANCH  20  21
ENDBRANCH   1  20
TORSDOF 7
