REMARK  Name = ZINC59418343
REMARK  6 active torsions:
REMARK  status: ('A' for Active; 'I' for Inactive)
REMARK    1  A    between atoms: C_4  and  N_7
REMARK    2  A    between atoms: N_20  and  N_21
REMARK    3  A    between atoms: C_22  and  C_23
REMARK    4  A    between atoms: C_27  and  O_29
REMARK    5  A    between atoms: O_29  and  C_30
REMARK    6  A    between atoms: C_30  and  C_31
REMARK                            x       y       z     vdW  Elec       q    Type
REMARK                         _______ _______ _______ _____ _____    ______ ____
ROOT
ATOM      1  N   UNL     1       3.618  -0.647   0.011  0.00  0.00    -0.283 N 
ATOM      2  C   UNL     1       3.643  -2.026   0.084  0.00  0.00    +0.225 A 
ATOM      3  N   UNL     1       2.505  -2.712   0.084  0.00  0.00    -0.179 NA
ATOM      4  C   UNL     1       2.529  -4.040   0.154  0.00  0.00    +0.241 A 
ATOM      5  N   UNL     1       3.692  -4.681   0.223  0.00  0.00    -0.180 NA
ATOM      6  C   UNL     1       4.830  -3.994   0.223  0.00  0.00    +0.224 A 
ATOM      7  N   UNL     1       4.806  -2.667   0.148  0.00  0.00    -0.181 NA
ATOM      8  N   UNL     1       6.037  -4.660   0.295  0.00  0.00    -0.299 N 
ATOM      9  C   UNL     1       7.303  -3.915   0.302  0.00  0.00    +0.108 C 
ATOM     10  C   UNL     1       8.125  -4.349   1.520  0.00  0.00    +0.019 C 
ATOM     11  C   UNL     1       8.291  -5.871   1.501  0.00  0.00    +0.003 C 
ATOM     12  C   UNL     1       6.916  -6.537   1.583  0.00  0.00    +0.019 C 
ATOM     13  C   UNL     1       6.080  -6.126   0.372  0.00  0.00    +0.108 C 
ATOM     14  N   UNL     1       1.346  -4.753   0.154  0.00  0.00    -0.205 N 
ATOM     15  H   UNL     1       4.448  -0.150  -0.070  0.00  0.00    +0.155 HD
ATOM     16  H   UNL     1       1.359  -5.713   0.291  0.00  0.00    +0.177 HD
ENDROOT
BRANCH   1  20
ATOM     17  C   UNL     1      -0.018   1.381   0.140  0.00  0.00    +0.000 A 
ATOM     18  C   UNL     1       0.139   0.201   0.844  0.00  0.00    +0.002 A 
ATOM     19  C   UNL     1       1.344  -0.474   0.803  0.00  0.00    +0.023 A 
ATOM     20  C   UNL     1       2.397   0.034   0.054  0.00  0.00    +0.034 A 
ATOM     21  C   UNL     1       2.236   1.219  -0.652  0.00  0.00    +0.023 A 
ATOM     22  C   UNL     1       1.029   1.889  -0.607  0.00  0.00    +0.002 A 
ENDBRANCH   1  20
BRANCH  14  23
ATOM     23  N   UNL     1       0.128  -4.090  -0.042  0.00  0.00    -0.188 NA
ATOM     24  C   UNL     1      -0.974  -4.769  -0.136  0.00  0.00    +0.138 C 
BRANCH  24  25
ATOM     25  C   UNL     1      -2.239  -4.082  -0.456  0.00  0.00    -0.002 A 
ATOM     26  C   UNL     1      -2.239  -2.720  -0.766  0.00  0.00    +0.010 A 
ATOM     27  C   UNL     1      -3.424  -2.082  -1.065  0.00  0.00    +0.004 A 
ATOM     28  C   UNL     1      -4.615  -2.785  -1.058  0.00  0.00    +0.046 A 
ATOM     29  C   UNL     1      -4.625  -4.139  -0.751  0.00  0.00    +0.122 A 
ATOM     30  C   UNL     1      -3.441  -4.792  -0.456  0.00  0.00    +0.055 A 
BRANCH  29  31
ATOM     31  O   UNL     1      -5.799  -4.825  -0.745  0.00  0.00    -0.487 OA
BRANCH  31  32
ATOM     32  C   UNL     1      -6.982  -4.090  -1.065  0.00  0.00    +0.267 C 
BRANCH  32  33
ATOM     33  C   UNL     1      -8.175  -5.008  -1.009  0.00  0.00    +0.025 A 
ATOM     34  C   UNL     1      -8.007  -6.340  -0.678  0.00  0.00    +0.010 A 
ATOM     35  C   UNL     1      -9.101  -7.183  -0.626  0.00  0.00    +0.001 A 
ATOM     36  C   UNL     1     -10.365  -6.695  -0.906  0.00  0.00    +0.003 A 
ATOM     37  C   UNL     1     -10.535  -5.365  -1.237  0.00  0.00    +0.039 A 
ATOM     38  C   UNL     1      -9.440  -4.518  -1.284  0.00  0.00    +0.130 A 
ATOM     39  F   UNL     1      -9.606  -3.216  -1.602  0.00  0.00    -0.205 F 
ENDBRANCH  32  33
ENDBRANCH  31  32
ENDBRANCH  29  31
ENDBRANCH  24  25
ENDBRANCH  14  23
TORSDOF 6
