REMARK  Name = ZINC10761374
REMARK  8 active torsions:
REMARK  status: ('A' for Active; 'I' for Inactive)
REMARK    1  A    between atoms: C_1  and  C_2
REMARK    2  A    between atoms: C_2  and  O_3
REMARK    3  A    between atoms: O_3  and  C_4
REMARK    4  A    between atoms: C_7  and  C_9
REMARK    5  A    between atoms: C_13  and  N_14
REMARK    6  A    between atoms: C_15  and  C_17
REMARK    7  A    between atoms: N_22  and  S_24
REMARK    8  A    between atoms: S_24  and  C_27
REMARK                            x       y       z     vdW  Elec       q    Type
REMARK                         _______ _______ _______ _____ _____    ______ ____
ROOT
ATOM      1  C   UNL     1       0.683   7.024   7.596  0.00  0.00    +0.069 A 
ATOM      2  C   UNL     1       1.119   8.285   8.173  0.00  0.00    -0.023 A 
ATOM      3  C   UNL     1       0.835   9.382   7.438  0.00  0.00    -0.004 A 
ATOM      4  S   UNL     1       0.010   8.762   5.999  0.00  0.00    -0.077 S 
ATOM      5  C   UNL     1       0.031   7.070   6.372  0.00  0.00    +0.084 A 
ATOM      6  C   UNL     1       1.159  10.804   7.777  0.00  0.00    +0.043 C 
ATOM      7  C   UNL     1       1.534  10.874   9.264  0.00  0.00    +0.005 C 
ATOM      8  C   UNL     1       2.541   9.762   9.572  0.00  0.00    +0.005 C 
ATOM      9  C   UNL     1       1.848   8.400   9.506  0.00  0.00    +0.037 C 
ENDROOT
BRANCH   1  13
ATOM     10  C   UNL     1       0.231   4.099   9.777  0.00  0.00    +0.407 C 
ATOM     11  O   UNL     1       1.254   3.478   9.566  0.00  0.00    -0.226 OA
ATOM     12  N   UNL     1       0.010   5.269   9.147  0.00  0.00    -0.217 N 
ATOM     13  C   UNL     1       0.924   5.752   8.282  0.00  0.00    +0.255 C 
ATOM     14  O   UNL     1       1.948   5.130   8.070  0.00  0.00    -0.270 OA
ATOM     15  H   UNL     1      -0.807   5.764   9.316  0.00  0.00    +0.161 HD
BRANCH  10  16
ATOM     16  O   UNL     1      -0.682   3.617  10.642  0.00  0.00    -0.450 OA
BRANCH  16  18
ATOM     17  C   UNL     1      -1.522   1.967  12.224  0.00  0.00    +0.048 C 
ATOM     18  C   UNL     1      -0.377   2.351  11.284  0.00  0.00    +0.230 C 
ENDBRANCH  16  18
ENDBRANCH  10  16
ENDBRANCH   1  13
BRANCH   5  19
ATOM     19  N   UNL     1      -0.475   6.018   5.625  0.00  0.00    -0.279 N 
ATOM     20  C   UNL     1      -1.083   6.259   4.446  0.00  0.00    +0.222 C 
ATOM     21  O   UNL     1      -1.188   7.396   4.039  0.00  0.00    -0.275 OA
ATOM     22  H   UNL     1      -0.392   5.108   5.950  0.00  0.00    +0.155 HD
BRANCH  20  23
ATOM     23  C   UNL     1      -1.634   5.115   3.635  0.00  0.00    +0.091 C 
ATOM     24  C   UNL     1      -2.696   4.374   4.450  0.00  0.00    +0.015 C 
ATOM     25  C   UNL     1      -3.233   3.192   3.639  0.00  0.00    +0.018 C 
ATOM     26  C   UNL     1      -3.889   3.717   2.353  0.00  0.00    +0.109 C 
ATOM     27  N   UNL     1      -2.913   4.548   1.635  0.00  0.00    -0.175 NA
ATOM     28  C   UNL     1      -2.268   5.658   2.350  0.00  0.00    +0.122 C 
BRANCH  27  29
ATOM     29  S   UNL     1      -2.551   4.243   0.049  0.00  0.00    +0.067 S 
ATOM     30  O   UNL     1      -2.072   5.463  -0.500  0.00  0.00    -0.152 OA
ATOM     31  O   UNL     1      -3.664   3.547  -0.496  0.00  0.00    -0.152 OA
BRANCH  29  32
ATOM     32  C   UNL     1      -1.196   3.116   0.030  0.00  0.00    +0.143 A 
ATOM     33  C   UNL     1      -1.213   1.761   0.017  0.00  0.00    +0.036 A 
ATOM     34  C   UNL     1      -0.013   1.076   0.008  0.00  0.00    +0.010 A 
ATOM     35  C   UNL     1       1.146   1.780   0.001  0.00  0.00    +0.047 A 
ATOM     36  S   UNL     1       0.555   3.464   0.015  0.00  0.00    -0.077 S 
ENDBRANCH  29  32
ENDBRANCH  27  29
ENDBRANCH  20  23
ENDBRANCH   5  19
TORSDOF 7
