REMARK  Name = ZINC28466370
REMARK  6 active torsions:
REMARK  status: ('A' for Active; 'I' for Inactive)
REMARK    1  A    between atoms: C_1  and  C_2
REMARK    2  A    between atoms: C_2  and  N_3
REMARK    3  A    between atoms: C_7  and  C_20
REMARK    4  A    between atoms: C_11  and  O_19
REMARK    5  A    between atoms: C_13  and  C_17
REMARK    6  A    between atoms: C_13  and  C_18
REMARK                            x       y       z     vdW  Elec       q    Type
REMARK                         _______ _______ _______ _____ _____    ______ ____
ROOT
ATOM      1  N   UNL     1       0.454  -0.853   1.442  0.00  0.00    -0.257 N 
ATOM      2  C   UNL     1       1.086  -2.039   1.446  0.00  0.00    +0.305 C 
ATOM      3  O   UNL     1       1.366  -2.555   2.508  0.00  0.00    -0.253 OA
ATOM      4  N   UNL     1       1.422  -2.668   0.306  0.00  0.00    -0.292 N 
ATOM      5  C   UNL     1       1.042  -2.044  -0.967  0.00  0.00    +0.119 C 
ATOM      6  C   UNL     1       1.310  -0.544  -0.842  0.00  0.00    +0.130 C 
ATOM      7  C   UNL     1       0.415   0.018   0.273  0.00  0.00    +0.148 C 
ATOM      8  C   UNL     1       0.785   1.456   0.591  0.00  0.00    +0.062 C 
ATOM      9  C   UNL     1       2.255   1.712   0.880  0.00  0.00    -0.024 C 
ATOM     10  C   UNL     1       3.149   1.146  -0.227  0.00  0.00    +0.081 C 
ATOM     11  C   UNL     1       2.749  -0.298  -0.453  0.00  0.00    +0.143 C 
ATOM     12  O   UNL     1       3.550  -1.184  -0.309  0.00  0.00    -0.297 OA
ATOM     13  C   UNL     1       2.481   3.235   0.944  0.00  0.00    +0.011 C 
ATOM     14  C   UNL     1       2.671   1.115   2.225  0.00  0.00    +0.011 C 
ATOM     15  H   UNL     1       1.965  -3.624   0.309  0.00  0.00    +0.151 HD
ENDROOT
BRANCH   5  16
ATOM     16  C   UNL     1       1.823  -2.642  -2.109  0.00  0.00    -0.026 A 
ATOM     17  C   UNL     1       1.301  -2.622  -3.389  0.00  0.00    +0.008 A 
ATOM     18  C   UNL     1       2.019  -3.165  -4.437  0.00  0.00    +0.038 A 
ATOM     19  C   UNL     1       3.257  -3.740  -4.204  0.00  0.00    +0.123 A 
ATOM     20  C   UNL     1       3.776  -3.764  -2.921  0.00  0.00    +0.038 A 
ATOM     21  C   UNL     1       3.059  -3.216  -1.875  0.00  0.00    +0.008 A 
ATOM     22  F   UNL     1       3.957  -4.276  -5.227  0.00  0.00    -0.205 F 
ENDBRANCH   5  16
BRANCH   1  24
ATOM     23  C   UNL     1      -1.695  -1.031   2.604  0.00  0.00    +0.024 C 
ATOM     24  C   UNL     1      -0.273  -0.469   2.660  0.00  0.00    +0.109 C 
ENDBRANCH   1  24
BRANCH   7  25
ATOM     25  O   UNL     1      -0.941   0.011  -0.225  0.00  0.00    -0.371 OA
ATOM     26  H   UNL     1      -1.204   0.606  -1.112  0.00  0.00    +0.212 HD
ENDBRANCH   7  25
TORSDOF 3
