REMARK  Name = ZINC12971509
REMARK  9 active torsions:
REMARK  status: ('A' for Active; 'I' for Inactive)
REMARK    1  A    between atoms: C_1  and  C_2
REMARK    2  A    between atoms: N_6  and  C_14
REMARK    3  A    between atoms: C_14  and  C_15
REMARK    4  A    between atoms: C_15  and  C_16
REMARK    5  A    between atoms: N_18  and  C_19
REMARK    6  A    between atoms: C_19  and  C_21
REMARK    7  A    between atoms: C_19  and  C_22
REMARK    8  A    between atoms: C_25  and  S_28
REMARK    9  A    between atoms: S_28  and  N_31
REMARK                            x       y       z     vdW  Elec       q    Type
REMARK                         _______ _______ _______ _____ _____    ______ ____
ROOT
ATOM      1  C   UNL     1       5.917   1.794  -0.579  0.00  0.00    +0.215 C 
ATOM      2  O   UNL     1       6.283   2.491   0.344  0.00  0.00    -0.276 OA
ATOM      3  N   UNL     1       6.773   1.491  -1.575  0.00  0.00    -0.309 N 
ATOM      4  H   UNL     1       6.480   0.933  -2.313  0.00  0.00    +0.149 HD
ENDROOT
BRANCH   3   5
ATOM      5  C   UNL     1       8.145   2.003  -1.544  0.00  0.00    +0.100 C 
ATOM      6  C   UNL     1       8.178   3.411  -2.142  0.00  0.00    +0.033 C 
BRANCH   5   7
ATOM      7  C   UNL     1       9.039   1.095  -2.348  0.00  0.00    -0.027 A 
ATOM      8  C   UNL     1       8.586   0.556  -3.538  0.00  0.00    +0.007 A 
ATOM      9  C   UNL     1       9.408  -0.274  -4.278  0.00  0.00    +0.029 A 
ATOM     10  C   UNL     1      10.678  -0.572  -3.823  0.00  0.00    +0.105 A 
ATOM     11  C   UNL     1      11.129  -0.038  -2.631  0.00  0.00    +0.029 A 
ATOM     12  C   UNL     1      10.309   0.795  -1.893  0.00  0.00    +0.007 A 
BRANCH  10  13
ATOM     13  S   UNL     1      11.724  -1.633  -4.764  0.00  0.00    +0.056 S 
ATOM     14  O   UNL     1      11.268  -1.564  -6.109  0.00  0.00    -0.153 OA
ATOM     15  O   UNL     1      13.060  -1.319  -4.395  0.00  0.00    -0.153 OA
BRANCH  13  16
ATOM     16  N   UNL     1      11.442  -3.182  -4.248  0.00  0.00    -0.204 NA
ATOM     17  H   UNL     1      10.794  -3.348  -3.546  0.00  0.00    +0.144 HD
ATOM     18  H   UNL     1      11.926  -3.921  -4.648  0.00  0.00    +0.144 HD
ENDBRANCH  13  16
ENDBRANCH  10  13
ENDBRANCH   5   7
ENDBRANCH   3   5
BRANCH   1  19
ATOM     19  C   UNL     1       4.506   1.267  -0.611  0.00  0.00    +0.115 C 
BRANCH  19  20
ATOM     20  C   UNL     1       3.751   1.755   0.627  0.00  0.00    +0.123 C 
BRANCH  20  25
ATOM     21  C   UNL     1      -0.758   1.932  -1.229  0.00  0.00    +0.062 C 
ATOM     22  C   UNL     1      -0.017   1.426   0.010  0.00  0.00    +0.256 C 
ATOM     23  C   UNL     1       1.395   1.952  -0.001  0.00  0.00    +0.260 C 
ATOM     24  O   UNL     1       1.649   3.006  -0.543  0.00  0.00    -0.271 OA
ATOM     25  N   UNL     1       2.379   1.243   0.596  0.00  0.00    -0.265 N 
ATOM     26  C   UNL     1       2.066   0.009   1.184  0.00  0.00    +0.078 A 
ATOM     27  C   UNL     1       2.943  -0.596   2.068  0.00  0.00    +0.027 A 
ATOM     28  C   UNL     1       2.616  -1.814   2.636  0.00  0.00    +0.002 A 
ATOM     29  C   UNL     1       1.417  -2.427   2.324  0.00  0.00    +0.004 A 
ATOM     30  C   UNL     1       0.536  -1.827   1.443  0.00  0.00    +0.047 A 
ATOM     31  C   UNL     1       0.856  -0.609   0.870  0.00  0.00    +0.143 A 
ATOM     32  O   UNL     1       0.002  -0.004   0.002  0.00  0.00    -0.478 OA
ENDBRANCH  20  25
ENDBRANCH  19  20
ENDBRANCH   1  19
TORSDOF 7
