REMARK  Name = ZINC38959984
REMARK  8 active torsions:
REMARK  status: ('A' for Active; 'I' for Inactive)
REMARK    1  A    between atoms: C_4  and  N_7
REMARK    2  A    between atoms: C_8  and  C_30
REMARK    3  A    between atoms: C_12  and  S_14
REMARK    4  A    between atoms: S_14  and  C_15
REMARK    5  A    between atoms: C_15  and  C_16
REMARK    6  A    between atoms: N_18  and  N_19
REMARK    7  A    between atoms: C_20  and  C_21
REMARK    8  A    between atoms: C_34  and  N_36
REMARK                            x       y       z     vdW  Elec       q    Type
REMARK                         _______ _______ _______ _____ _____    ______ ____
ROOT
ATOM      1  N   UNL     1       3.809  -0.671  -0.280  0.00  0.00    -0.284 N 
ATOM      2  C   UNL     1       3.818  -2.110   0.051  0.00  0.00    +0.188 C 
ATOM      3  N   UNL     1       5.167  -2.574  -0.370  0.00  0.00    -0.230 NA
ATOM      4  N   UNL     1       6.033  -1.440  -0.011  0.00  0.00    -0.226 NA
ATOM      5  C   UNL     1       5.218  -0.244  -0.327  0.00  0.00    +0.218 C 
ATOM      6  H   UNL     1       5.435  -3.407   0.132  0.00  0.00    +0.143 HD
ATOM      7  H   UNL     1       6.883  -1.448  -0.554  0.00  0.00    +0.143 HD
ENDROOT
BRANCH   1  11
ATOM      8  C   UNL     1       0.460   1.707  -0.966  0.00  0.00    +0.000 A 
ATOM      9  C   UNL     1       1.726   2.221  -1.177  0.00  0.00    +0.002 A 
ATOM     10  C   UNL     1       2.839   1.435  -0.951  0.00  0.00    +0.023 A 
ATOM     11  C   UNL     1       2.686   0.127  -0.510  0.00  0.00    +0.033 A 
ATOM     12  C   UNL     1       1.412  -0.386  -0.298  0.00  0.00    +0.023 A 
ATOM     13  C   UNL     1       0.304   0.405  -0.527  0.00  0.00    +0.002 A 
ENDBRANCH   1  11
BRANCH   2  14
ATOM     14  C   UNL     1       2.745  -2.835  -0.718  0.00  0.00    -0.009 A 
ATOM     15  C   UNL     1       2.666  -2.698  -2.092  0.00  0.00    +0.007 A 
ATOM     16  C   UNL     1       1.681  -3.363  -2.798  0.00  0.00    +0.003 A 
ATOM     17  C   UNL     1       0.775  -4.166  -2.130  0.00  0.00    +0.033 A 
ATOM     18  C   UNL     1       0.854  -4.304  -0.757  0.00  0.00    +0.127 A 
ATOM     19  C   UNL     1       1.842  -3.642  -0.052  0.00  0.00    +0.039 A 
BRANCH  18  20
ATOM     20  N   UNL     1      -0.117  -5.162  -0.043  0.00  0.00    +0.056 N 
ATOM     21  O   UNL     1      -0.979  -5.744  -0.660  0.00  0.00    -0.126 OA
ATOM     22  O   UNL     1      -0.048  -5.283   1.159  0.00  0.00    -0.126 OA
ENDBRANCH  18  20
ENDBRANCH   2  14
BRANCH   5  23
ATOM     23  S   UNL     1       5.517   1.050   0.908  0.00  0.00    -0.112 S 
BRANCH  23  24
ATOM     24  C   UNL     1       5.103   0.256   2.486  0.00  0.00    +0.169 C 
BRANCH  24  25
ATOM     25  C   UNL     1       5.310   1.236   3.612  0.00  0.00    +0.242 C 
ATOM     26  O   UNL     1       5.699   2.359   3.374  0.00  0.00    -0.273 OA
ATOM     27  N   UNL     1       5.063   0.863   4.883  0.00  0.00    -0.206 N 
ATOM     28  H   UNL     1       4.752  -0.036   5.074  0.00  0.00    +0.177 HD
BRANCH  27  29
ATOM     29  N   UNL     1       5.256   1.774   5.930  0.00  0.00    -0.188 NA
ATOM     30  C   UNL     1       5.016   1.412   7.165  0.00  0.00    +0.136 C 
BRANCH  30  31
ATOM     31  C   UNL     1       5.209   2.324   8.213  0.00  0.00    +0.000 C 
ATOM     32  C   UNL     1       5.008   2.099   9.573  0.00  0.00    +0.004 A 
ATOM     33  C   UNL     1       4.575   0.968  10.299  0.00  0.00    +0.010 A 
ATOM     34  C   UNL     1       4.468   1.036  11.650  0.00  0.00    +0.001 A 
ATOM     35  C   UNL     1       4.776   2.206  12.351  0.00  0.00    +0.002 A 
ATOM     36  C   UNL     1       5.197   3.328  11.721  0.00  0.00    +0.026 A 
ATOM     37  C   UNL     1       5.334   3.334  10.307  0.00  0.00    +0.043 A 
ATOM     38  N   UNL     1       5.716   4.279   9.473  0.00  0.00    -0.380 N 
ATOM     39  C   UNL     1       5.686   3.756   8.103  0.00  0.00    +0.150 C 
ATOM     40  H   UNL     1       5.980   5.177   9.725  0.00  0.00    +0.160 HD
ENDBRANCH  30  31
ENDBRANCH  27  29
ENDBRANCH  24  25
ENDBRANCH  23  24
ENDBRANCH   5  23
TORSDOF 8
