REMARK  Name = ZINC39955148
REMARK  7 active torsions:
REMARK  status: ('A' for Active; 'I' for Inactive)
REMARK    1  A    between atoms: C_1  and  C_2
REMARK    2  A    between atoms: C_5  and  C_9
REMARK    3  A    between atoms: C_10  and  C_23
REMARK    4  A    between atoms: C_11  and  N_22
REMARK    5  A    between atoms: N_12  and  C_14
REMARK    6  A    between atoms: C_19  and  O_20
REMARK    7  A    between atoms: O_20  and  C_21
REMARK                            x       y       z     vdW  Elec       q    Type
REMARK                         _______ _______ _______ _____ _____    ______ ____
ROOT
ATOM      1  C   UNL     1       0.091  -4.255  -0.003  0.00  0.00    +0.114 A 
ATOM      2  C   UNL     1       0.165  -5.153   1.155  0.00  0.00    +0.119 A 
ATOM      3  C   UNL     1       0.114  -6.448   0.648  0.00  0.00    +0.138 A 
ATOM      4  N   UNL     1       0.018  -6.353  -0.702  0.00  0.00    -0.214 N 
ATOM      5  N   UNL     1       0.001  -5.007  -1.076  0.00  0.00    -0.163 NA
ENDROOT
BRANCH   1  10
ATOM      6  C   UNL     1       0.164   1.502   0.132  0.00  0.00    +0.044 C 
ATOM      7  C   UNL     1       0.144  -0.004   0.096  0.00  0.00    -0.049 A 
ATOM      8  C   UNL     1       1.064  -0.723   0.838  0.00  0.00    +0.004 A 
ATOM      9  C   UNL     1       1.052  -2.103   0.810  0.00  0.00    +0.012 A 
ATOM     10  C   UNL     1       0.109  -2.773   0.032  0.00  0.00    +0.022 A 
ATOM     11  C   UNL     1      -0.816  -2.043  -0.715  0.00  0.00    +0.050 A 
ATOM     12  C   UNL     1      -0.797  -0.663  -0.674  0.00  0.00    +0.024 A 
ATOM     13 CL   UNL     1      -1.994  -2.869  -1.688  0.00  0.00    -0.083 Cl
ENDBRANCH   1  10
BRANCH   4  14
ATOM     14  C   UNL     1      -0.058  -7.439  -1.586  0.00  0.00    +0.109 A 
ATOM     15  C   UNL     1      -0.953  -8.471  -1.344  0.00  0.00    +0.031 A 
ATOM     16  C   UNL     1      -1.026  -9.540  -2.217  0.00  0.00    +0.002 A 
ATOM     17  C   UNL     1      -0.209  -9.585  -3.331  0.00  0.00    +0.004 A 
ATOM     18  C   UNL     1       0.685  -8.560  -3.579  0.00  0.00    +0.048 A 
ATOM     19  C   UNL     1       0.761  -7.482  -2.711  0.00  0.00    +0.145 A 
BRANCH  19  20
ATOM     20  O   UNL     1       1.637  -6.471  -2.956  0.00  0.00    -0.493 OA
ATOM     21  C   UNL     1       2.445  -6.582  -4.129  0.00  0.00    +0.277 C 
ENDBRANCH  19  20
ENDBRANCH   4  14
BRANCH   3  22
ATOM     22  N   UNL     1       0.154  -7.616   1.385  0.00  0.00    -0.342 N 
ATOM     23  H   UNL     1       0.142  -7.579   2.354  0.00  0.00    +0.144 HD
ATOM     24  H   UNL     1       0.195  -8.473   0.932  0.00  0.00    +0.144 HD
ENDBRANCH   3  22
BRANCH   2  25
ATOM     25  C   UNL     1       0.269  -4.773   2.531  0.00  0.00    +0.105 C 
ATOM     26  N   UNL     1       0.352  -4.471   3.623  0.00  0.00    -0.191 NA
ENDBRANCH   2  25
TORSDOF 5
