REMARK  Name = ZINC14677236
REMARK  5 active torsions:
REMARK  status: ('A' for Active; 'I' for Inactive)
REMARK    1  A    between atoms: C_1  and  C_2
REMARK    2  A    between atoms: N_12  and  C_15
REMARK    3  A    between atoms: C_15  and  C_16
REMARK    4  A    between atoms: N_18  and  C_19
REMARK    5  A    between atoms: C_20  and  C_24
REMARK                            x       y       z     vdW  Elec       q    Type
REMARK                         _______ _______ _______ _____ _____    ______ ____
ROOT
ATOM      1  C   UNL     1      -0.019   1.526   0.010  0.00  0.00    +0.008 C 
ATOM      2  C   UNL     1       0.002  -0.004   0.002  0.00  0.00    -0.009 C 
ATOM      3  C   UNL     1      -1.433  -0.538   0.033  0.00  0.00    +0.008 C 
ATOM      4  C   UNL     1      -1.432  -2.044  -0.225  0.00  0.00    +0.037 C 
ATOM      5  C   UNL     1      -0.465  -2.712   0.750  0.00  0.00    -0.023 A 
ATOM      6  C   UNL     1       0.488  -1.985   1.379  0.00  0.00    -0.004 A 
ATOM      7  S   UNL     1       1.364  -3.148   2.394  0.00  0.00    -0.073 S 
ATOM      8  C   UNL     1       0.454  -4.601   1.975  0.00  0.00    +0.116 A 
ATOM      9  C   UNL     1      -0.508  -4.131   1.053  0.00  0.00    +0.076 A 
ATOM     10  C   UNL     1      -1.421  -5.099   0.514  0.00  0.00    +0.263 A 
ATOM     11  O   UNL     1      -2.288  -4.797  -0.288  0.00  0.00    -0.267 OA
ATOM     12  N   UNL     1      -1.259  -6.369   0.955  0.00  0.00    -0.290 N 
ATOM     13  C   UNL     1      -0.302  -6.726   1.846  0.00  0.00    +0.203 A 
ATOM     14  N   UNL     1       0.552  -5.869   2.361  0.00  0.00    -0.230 NA
ATOM     15  C   UNL     1       0.744  -0.516   1.245  0.00  0.00    +0.046 C 
ENDROOT
BRANCH  12  16
ATOM     16  C   UNL     1      -2.160  -7.406   0.446  0.00  0.00    +0.222 C 
BRANCH  16  17
ATOM     17  C   UNL     1      -1.569  -8.017  -0.799  0.00  0.00    +0.238 C 
ATOM     18  O   UNL     1      -0.500  -7.626  -1.218  0.00  0.00    -0.273 OA
ATOM     19  N   UNL     1      -2.228  -8.999  -1.445  0.00  0.00    -0.277 N 
ATOM     20  H   UNL     1      -3.082  -9.313  -1.109  0.00  0.00    +0.155 HD
BRANCH  19  21
ATOM     21  C   UNL     1      -1.683  -9.563  -2.591  0.00  0.00    +0.089 A 
ATOM     22  C   UNL     1      -2.217 -10.569  -3.382  0.00  0.00    +0.080 A 
ATOM     23  C   UNL     1      -1.436 -10.972  -4.529  0.00  0.00    +0.028 A 
ATOM     24  C   UNL     1      -0.270 -10.321  -4.703  0.00  0.00    +0.048 A 
ATOM     25  S   UNL     1      -0.233  -9.177  -3.341  0.00  0.00    -0.081 S 
BRANCH  22  26
ATOM     26  C   UNL     1      -3.477 -11.177  -3.077  0.00  0.00    +0.102 C 
ATOM     27  N   UNL     1      -4.476 -11.660  -2.836  0.00  0.00    -0.191 NA
ENDBRANCH  22  26
ENDBRANCH  19  21
ENDBRANCH  16  17
ENDBRANCH  12  16
TORSDOF 4
