REMARK  Name = ZINC56400433
REMARK  8 active torsions:
REMARK  status: ('A' for Active; 'I' for Inactive)
REMARK    1  A    between atoms: C_1  and  C_2
REMARK    2  A    between atoms: C_5  and  C_26
REMARK    3  A    between atoms: C_7  and  O_8
REMARK    4  A    between atoms: O_8  and  C_9
REMARK    5  A    between atoms: C_9  and  C_11
REMARK    6  A    between atoms: C_9  and  C_12
REMARK    7  A    between atoms: C_26  and  C_27
REMARK    8  A    between atoms: C_26  and  C_28
REMARK                            x       y       z     vdW  Elec       q    Type
REMARK                         _______ _______ _______ _____ _____    ______ ____
ROOT
ATOM      1  C   UNL     1      -0.954  -0.323   4.678  0.00  0.00    +0.256 C 
ATOM      2  O   UNL     1      -1.344   0.825   4.679  0.00  0.00    -0.272 OA
ATOM      3  N   UNL     1      -1.321  -1.160   5.669  0.00  0.00    -0.298 N 
ATOM      4  C   UNL     1      -0.769  -2.519   5.743  0.00  0.00    +0.110 C 
ATOM      5  C   UNL     1      -0.157  -2.727   7.133  0.00  0.00    +0.054 C 
ATOM      6  C   UNL     1      -1.198  -2.399   8.198  0.00  0.00    +0.115 C 
ATOM      7  C   UNL     1      -1.659  -0.950   8.077  0.00  0.00    +0.054 C 
ATOM      8  C   UNL     1      -2.277  -0.727   6.697  0.00  0.00    +0.110 C 
ATOM      9  C   UNL     1      -0.641  -2.661   9.578  0.00  0.00    +0.244 C 
ATOM     10  O   UNL     1       0.316  -2.127  10.097  0.00  0.00    -0.273 OA
ATOM     11  N   UNL     1      -1.433  -3.614  10.111  0.00  0.00    -0.238 N 
ATOM     12  C   UNL     1      -2.401  -3.982   9.263  0.00  0.00    +0.307 C 
ATOM     13  O   UNL     1      -3.239  -4.824   9.518  0.00  0.00    -0.252 OA
ATOM     14  N   UNL     1      -2.343  -3.312   8.096  0.00  0.00    -0.285 N 
ATOM     15  H   UNL     1      -1.316  -3.986  10.999  0.00  0.00    +0.159 HD
ATOM     16  H   UNL     1      -2.939  -3.414   7.338  0.00  0.00    +0.151 HD
ENDROOT
BRANCH   1  17
ATOM     17  C   UNL     1      -0.058  -0.815   3.571  0.00  0.00    +0.256 C 
ATOM     18  C   UNL     1       1.378  -0.923   4.086  0.00  0.00    +0.062 C 
BRANCH  17  19
ATOM     19  O   UNL     1      -0.104   0.105   2.478  0.00  0.00    -0.480 OA
BRANCH  19  26
ATOM     20  C   UNL     1      -0.427   1.842   0.274  0.00  0.00    +0.047 C 
ATOM     21  C   UNL     1       0.049   0.420   0.125  0.00  0.00    -0.009 A 
ATOM     22  C   UNL     1       0.352  -0.080  -1.127  0.00  0.00    +0.007 A 
ATOM     23  C   UNL     1       0.788  -1.385  -1.264  0.00  0.00    +0.004 A 
ATOM     24  C   UNL     1       0.922  -2.193  -0.150  0.00  0.00    -0.041 A 
ATOM     25  C   UNL     1       0.621  -1.697   1.104  0.00  0.00    +0.049 A 
ATOM     26  C   UNL     1       0.188  -0.386   1.245  0.00  0.00    +0.125 A 
BRANCH  24  27
ATOM     27  C   UNL     1       1.397  -3.615  -0.303  0.00  0.00    +0.013 C 
ATOM     28  C   UNL     1       0.425  -4.383  -1.202  0.00  0.00    +0.012 C 
ATOM     29  C   UNL     1       2.790  -3.622  -0.935  0.00  0.00    +0.012 C 
ENDBRANCH  24  27
ENDBRANCH  19  26
ENDBRANCH  17  19
ENDBRANCH   1  17
TORSDOF 4
