REMARK  Name = ZINC63821528
REMARK  8 active torsions:
REMARK  status: ('A' for Active; 'I' for Inactive)
REMARK    1  A    between atoms: CB_1  and  CA_2
REMARK    2  A    between atoms: CA_2  and  C_4
REMARK    3  A    between atoms: CA_2  and  N_6
REMARK    4  A    between atoms: C_4  and  O_5
REMARK    5  A    between atoms: C_7  and  C_9
REMARK    6  A    between atoms: N_17  and  C_20
REMARK    7  A    between atoms: C_20  and  C_21
REMARK    8  A    between atoms: C_21  and  C_22
REMARK                            x       y       z     vdW  Elec       q    Type
REMARK                         _______ _______ _______ _____ _____    ______ ____
ROOT
ATOM      1  C   UNK A   0       2.724  -1.064  -2.433  0.00  0.00    +0.037 A 
ATOM      2  C   UNK A   0       1.986  -1.394  -3.569  0.00  0.00    +0.014 A 
ATOM      3  C   UNK A   0       2.625  -1.841  -4.712  0.00  0.00    +0.014 A 
ATOM      4  C   UNK A   0       4.006  -1.962  -4.729  0.00  0.00    +0.049 A 
ATOM      5  C   UNK A   0       4.758  -1.631  -3.583  0.00  0.00    +0.050 A 
ATOM      6  C   UNK A   0       4.117  -1.178  -2.443  0.00  0.00    +0.027 A 
ATOM      7  C   UNK A   0       6.171  -1.873  -3.943  0.00  0.00    +0.254 C 
ATOM      8  O   UNK A   0       7.127  -1.702  -3.214  0.00  0.00    -0.270 OA
ATOM      9  N   UNK A   0       6.222  -2.314  -5.213  0.00  0.00    -0.234 N 
ATOM     10  C   UNK A   0       4.990  -2.395  -5.747  0.00  0.00    +0.254 C 
ATOM     11  O   UNK A   0       4.729  -2.762  -6.875  0.00  0.00    -0.270 OA
ENDROOT
BRANCH   1  13
ATOM     12  N   ALA A   1       0.688  -0.476  -1.203  0.00  0.00    -0.307 N 
ATOM     13  C   UNK A   0       2.031  -0.587  -1.215  0.00  0.00    +0.244 C 
ATOM     14  O   UNK A   0       2.673  -0.295  -0.226  0.00  0.00    -0.270 OA
ATOM     15  H   ALA A   1       0.175  -0.710  -1.993  0.00  0.00    +0.149 HD
BRANCH  12  17
ATOM     16  CB  ALA A   1      -0.019   1.526   0.010  0.00  0.00    +0.030 C 
ATOM     17  CA  ALA A   1       0.002  -0.004   0.002  0.00  0.00    +0.095 C 
BRANCH  17  18
ATOM     18  C   ALA A   1      -1.433  -0.534   0.013  0.00  0.00    +0.177 C 
BRANCH  18  19
ATOM     19  O   ALA A   1      -2.158   0.032  -1.081  0.00  0.00    -0.393 OA
ATOM     20  H   ALA A   1      -3.078  -0.260  -1.136  0.00  0.00    +0.209 HD
ENDBRANCH  18  19
ENDBRANCH  17  18
ENDBRANCH  12  17
ENDBRANCH   1  13
BRANCH   9  21
ATOM     21  C   UNK A   0       7.457  -2.662  -5.920  0.00  0.00    +0.121 C 
BRANCH  21  22
ATOM     22  C   UNK A   0       7.772  -4.142  -5.699  0.00  0.00    +0.052 C 
BRANCH  22  23
ATOM     23  C   UNK A   0       9.042  -4.500  -6.427  0.00  0.00    -0.040 C 
ATOM     24  C   UNK A   0      10.293  -4.533  -5.912  0.00  0.00    -0.001 A 
ATOM     25  C   UNK A   0      10.824  -4.257  -4.572  0.00  0.00    +0.010 A 
ATOM     26  C   UNK A   0      12.154  -4.377  -4.356  0.00  0.00    +0.001 A 
ATOM     27  C   UNK A   0      13.035  -4.759  -5.377  0.00  0.00    +0.002 A 
ATOM     28  C   UNK A   0      12.621  -5.030  -6.633  0.00  0.00    +0.026 A 
ATOM     29  C   UNK A   0      11.244  -4.935  -6.973  0.00  0.00    +0.043 A 
ATOM     30  N   UNK A   0      10.606  -5.141  -8.100  0.00  0.00    -0.380 N 
ATOM     31  C   UNK A   0       9.176  -4.900  -7.879  0.00  0.00    +0.144 C 
ATOM     32  H   UNK A   0      11.012  -5.413  -8.938  0.00  0.00    +0.160 HD
ENDBRANCH  22  23
ENDBRANCH  21  22
ENDBRANCH   9  21
TORSDOF 7
