REMARK  Name = ZINC25182253
REMARK  5 active torsions:
REMARK  status: ('A' for Active; 'I' for Inactive)
REMARK    1  A    between atoms: C_3  and  C_9
REMARK    2  A    between atoms: C_12  and  S_15
REMARK    3  A    between atoms: N_13  and  N_14
REMARK    4  A    between atoms: S_15  and  C_16
REMARK    5  A    between atoms: C_16  and  C_17
REMARK                            x       y       z     vdW  Elec       q    Type
REMARK                         _______ _______ _______ _____ _____    ______ ____
ROOT
ATOM      1  C   UNL     1       3.656   2.164  -0.018  0.00  0.00    +0.183 A 
ATOM      2  N   UNL     1       3.789   3.467  -0.100  0.00  0.00    -0.127 NA
ATOM      3  N   UNL     1       5.035   3.782  -0.085  0.00  0.00    -0.121 NA
ATOM      4  C   UNL     1       5.774   2.700   0.009  0.00  0.00    +0.209 A 
ATOM      5  N   UNL     1       4.923   1.632   0.060  0.00  0.00    -0.224 N 
ENDROOT
BRANCH   1   8
ATOM      6  C   UNL     1       0.985  -0.291   0.953  0.00  0.00    +0.021 A 
ATOM      7  C   UNL     1       2.174   0.408   0.945  0.00  0.00    +0.014 A 
ATOM      8  C   UNL     1       2.385   1.410  -0.004  0.00  0.00    +0.039 A 
ATOM      9  C   UNL     1       1.389   1.697  -0.940  0.00  0.00    +0.053 A 
ATOM     10  C   UNL     1       0.203   0.990  -0.922  0.00  0.00    +0.040 A 
ATOM     11  C   UNL     1       0.001  -0.003   0.023  0.00  0.00    +0.042 A 
ATOM     12 CL   UNL     1      -1.492  -0.888   0.040  0.00  0.00    -0.083 Cl
ATOM     13 CL   UNL     1       1.640   2.942  -2.124  0.00  0.00    -0.083 Cl
ENDBRANCH   1   8
BRANCH   5  14
ATOM     14  N   UNL     1       5.259   0.312   0.163  0.00  0.00    -0.295 N 
ATOM     15  H   UNL     1       5.460  -0.082  -0.743  0.00  0.00    +0.163 HD
ATOM     16  H   UNL     1       6.037   0.186   0.794  0.00  0.00    +0.163 HD
ENDBRANCH   5  14
BRANCH   4  17
ATOM     17  S   UNL     1       7.534   2.636   0.064  0.00  0.00    -0.077 S 
BRANCH  17  18
ATOM     18  C   UNL     1       8.039   4.376  -0.036  0.00  0.00    +0.151 C 
BRANCH  18  19
ATOM     19  C   UNL     1       9.543   4.465   0.002  0.00  0.00    +0.121 A 
ATOM     20  N   UNL     1      10.139   5.684  -0.055  0.00  0.00    -0.310 N 
ATOM     21  H   UNL     1       9.588   6.480  -0.119  0.00  0.00    +0.170 HD
ATOM     22  C   UNL     1      11.479   5.809  -0.025  0.00  0.00    +0.260 A 
ATOM     23  O   UNL     1      12.001   6.910  -0.077  0.00  0.00    -0.267 OA
ATOM     24  C   UNL     1      12.281   4.625   0.071  0.00  0.00    +0.075 A 
ATOM     25  C   UNL     1      13.747   4.524   0.120  0.00  0.00    -0.023 A 
ATOM     26  C   UNL     1      14.268   3.288   0.209  0.00  0.00    -0.004 A 
ATOM     27  S   UNL     1      12.863   2.199   0.237  0.00  0.00    -0.073 S 
ATOM     28  C   UNL     1      11.577   3.415   0.125  0.00  0.00    +0.116 A 
ATOM     29  N   UNL     1      10.248   3.369   0.095  0.00  0.00    -0.226 NA
ATOM     30  C   UNL     1      15.772   3.307   0.246  0.00  0.00    +0.043 C 
ATOM     31  C   UNL     1      16.155   4.713  -0.267  0.00  0.00    +0.010 C 
ATOM     32  C   UNL     1      14.900   5.531   0.096  0.00  0.00    +0.037 C 
ENDBRANCH  18  19
ENDBRANCH  17  18
ENDBRANCH   4  17
TORSDOF 5
