REMARK  Name = ZINC09046394
REMARK  11 active torsions:
REMARK  status: ('A' for Active; 'I' for Inactive)
REMARK    1  A    between atoms: C_1  and  C_2
REMARK    2  A    between atoms: C_2  and  O_3
REMARK    3  A    between atoms: O_3  and  C_4
REMARK    4  A    between atoms: C_4  and  C_6
REMARK    5  A    between atoms: C_10  and  N_11
REMARK    6  A    between atoms: N_11  and  C_12
REMARK    7  A    between atoms: C_12  and  N_14
REMARK    8  A    between atoms: C_15  and  C_17
REMARK    9  A    between atoms: C_26  and  C_27
REMARK   10  A    between atoms: C_26  and  N_61
REMARK   11  A    between atoms: C_27  and  C_28
REMARK                            x       y       z     vdW  Elec       q    Type
REMARK                         _______ _______ _______ _____ _____    ______ ____
ROOT
ATOM      1  C   UNL     1       1.433  -2.053  -0.017  0.00  0.00    +0.091 A 
ATOM      2  C   UNL     1       2.811  -2.506  -0.039  0.00  0.00    -0.025 A 
ATOM      3  C   UNL     1       3.742  -1.526  -0.042  0.00  0.00    -0.021 A 
ATOM      4  S   UNL     1       2.813  -0.021  -0.024  0.00  0.00    -0.079 S 
ATOM      5  C   UNL     1       1.211  -0.680  -0.013  0.00  0.00    +0.086 A 
ATOM      6  C   UNL     1       5.227  -1.711  -0.055  0.00  0.00    -0.035 C 
ATOM      7  C   UNL     1       4.702  -4.032  -0.506  0.00  0.00    -0.074 C 
ATOM      8  C   UNL     1       3.241  -3.968  -0.053  0.00  0.00    +0.018 C 
ATOM      9  N   UNL     1       5.513  -3.116   0.322  0.00  0.00    +0.383 N 
ATOM     10  H   UNL     1       5.268  -3.254   1.310  0.00  0.00    -0.081 HD
ENDROOT
BRANCH   1  11
ATOM     11  C   UNL     1       0.319  -3.003  -0.004  0.00  0.00    +0.342 C 
ATOM     12  O   UNL     1      -0.156  -3.397  -1.051  0.00  0.00    -0.245 OA
BRANCH  11  13
ATOM     13  O   UNL     1      -0.179  -3.441   1.171  0.00  0.00    -0.461 OA
BRANCH  13  15
ATOM     14  C   UNL     1      -1.710  -4.763   2.527  0.00  0.00    +0.048 C 
ATOM     15  C   UNL     1      -1.283  -4.383   1.108  0.00  0.00    +0.229 C 
ENDBRANCH  13  15
ENDBRANCH  11  13
ENDBRANCH   1  11
BRANCH   5  16
ATOM     16  N   UNL     1       0.002  -0.004   0.002  0.00  0.00    -0.290 N 
ATOM     17  H   UNL     1      -0.831  -0.500   0.007  0.00  0.00    +0.154 HD
BRANCH  16  18
ATOM     18  C   UNL     1      -0.016   1.344   0.009  0.00  0.00    +0.141 C 
ATOM     19  S   UNL     1       1.455   2.220   0.000  0.00  0.00    -0.018 S 
BRANCH  18  20
ATOM     20  N   UNL     1      -1.192   2.002   0.019  0.00  0.00    -0.264 N 
ATOM     21  C   UNL     1      -1.211   3.349   0.026  0.00  0.00    +0.250 C 
ATOM     22  O   UNL     1      -0.167   3.971   0.024  0.00  0.00    -0.270 OA
ATOM     23  H   UNL     1      -2.026   1.505   0.020  0.00  0.00    +0.157 HD
BRANCH  21  24
ATOM     24  C   UNL     1      -2.500   4.071   0.036  0.00  0.00    +0.037 A 
ATOM     25  C   UNL     1      -3.702   3.359   0.032  0.00  0.00    +0.013 A 
ATOM     26  C   UNL     1      -4.902   4.039   0.047  0.00  0.00    +0.001 A 
ATOM     27  C   UNL     1      -4.917   5.422   0.055  0.00  0.00    +0.000 A 
ATOM     28  C   UNL     1      -3.730   6.134   0.053  0.00  0.00    +0.001 A 
ATOM     29  C   UNL     1      -2.523   5.466   0.044  0.00  0.00    +0.013 A 
ENDBRANCH  21  24
ENDBRANCH  18  20
ENDBRANCH  16  18
ENDBRANCH   5  16
BRANCH   9  30
ATOM     30  C   UNL     1       6.951  -3.407   0.139  0.00  0.00    -0.074 C 
BRANCH  30  31
ATOM     31  C   UNL     1       7.753  -2.601   1.162  0.00  0.00    +0.016 C 
BRANCH  31  32
ATOM     32  C   UNL     1       9.221  -2.902   1.000  0.00  0.00    -0.049 A 
ATOM     33  C   UNL     1       9.797  -3.936   1.716  0.00  0.00    +0.003 A 
ATOM     34  C   UNL     1      11.142  -4.216   1.563  0.00  0.00    +0.000 A 
ATOM     35  C   UNL     1      11.913  -3.456   0.704  0.00  0.00    +0.000 A 
ATOM     36  C   UNL     1      11.338  -2.420  -0.007  0.00  0.00    +0.000 A 
ATOM     37  C   UNL     1       9.992  -2.143   0.141  0.00  0.00    +0.003 A 
ENDBRANCH  31  32
ENDBRANCH  30  31
ENDBRANCH   9  30
TORSDOF 10
