REMARK  Name = ZINC35499003
REMARK  21 active torsions:
REMARK  status: ('A' for Active; 'I' for Inactive)
REMARK    1  A    between atoms: C_1  and  C_2
REMARK    2  A    between atoms: C_2  and  C_3
REMARK    3  A    between atoms: C_2  and  C_4
REMARK    4  A    between atoms: C_4  and  C_5
REMARK    5  A    between atoms: C_5  and  N_6
REMARK    6  A    between atoms: N_6  and  C_7
REMARK    7  A    between atoms: N_6  and  C_24
REMARK    8  A    between atoms: C_7  and  C_8
REMARK    9  A    between atoms: N_12  and  C_13
REMARK   10  A    between atoms: C_13  and  C_14
REMARK   11  A    between atoms: C_17  and  C_20
REMARK   12  A    between atoms: C_20  and  C_21
REMARK   13  A    between atoms: C_20  and  C_22
REMARK   14  A    between atoms: C_20  and  C_23
REMARK   15  A    between atoms: C_24  and  C_25
REMARK   16  A    between atoms: C_25  and  C_27
REMARK   17  A    between atoms: C_25  and  O_37
REMARK   18  A    between atoms: C_27  and  O_28
REMARK   19  A    between atoms: O_28  and  C_29
REMARK   20  A    between atoms: C_32  and  O_35
REMARK   21  A    between atoms: O_35  and  C_36
REMARK                            x       y       z     vdW  Elec       q    Type
REMARK                         _______ _______ _______ _____ _____    ______ ____
ROOT
ATOM      1  N   UNL     1       0.403  -0.170   4.442  0.00  0.00    +0.385 N 
ATOM      2  H   UNL     1       0.944  -1.017   4.359  0.00  0.00    -0.081 HD
ENDROOT
BRANCH   1   3
ATOM      3  C   UNL     1      -0.410   0.013   3.233  0.00  0.00    -0.078 C 
BRANCH   3   4
ATOM      4  C   UNL     1      -1.233   1.296   3.360  0.00  0.00    -0.016 C 
BRANCH   4   6
ATOM      5  C   UNL     1      -3.112   0.371   1.998  0.00  0.00    +0.007 C 
ATOM      6  C   UNL     1      -2.074   1.490   2.096  0.00  0.00    -0.019 C 
ATOM      7  C   UNL     1      -2.786   2.843   2.160  0.00  0.00    +0.007 C 
ENDBRANCH   4   6
ENDBRANCH   3   4
ENDBRANCH   1   3
BRANCH   1   8
ATOM      8  C   UNL     1      -0.478  -0.264   5.615  0.00  0.00    -0.024 C 
BRANCH   8   9
ATOM      9  C   UNL     1      -1.309  -1.518   5.519  0.00  0.00    +0.003 A 
ATOM     10  C   UNL     1      -2.560  -1.601   5.024  0.00  0.00    +0.021 A 
ATOM     11  C   UNL     1      -2.963  -2.947   5.121  0.00  0.00    +0.019 A 
ATOM     12  C   UNL     1      -1.943  -3.636   5.672  0.00  0.00    +0.086 A 
ATOM     13  N   UNL     1      -0.922  -2.765   5.913  0.00  0.00    -0.348 N 
BRANCH  13  14
ATOM     14  C   UNL     1       0.374  -3.111   6.501  0.00  0.00    +0.156 C 
BRANCH  14  15
ATOM     15  C   UNL     1       0.320  -2.902   7.993  0.00  0.00    -0.028 A 
ATOM     16  C   UNL     1       0.776  -1.718   8.542  0.00  0.00    +0.005 A 
ATOM     17  C   UNL     1       0.726  -1.527   9.910  0.00  0.00    +0.004 A 
ATOM     18  C   UNL     1       0.221  -2.520  10.729  0.00  0.00    -0.042 A 
ATOM     19  C   UNL     1      -0.235  -3.703  10.180  0.00  0.00    +0.004 A 
ATOM     20  C   UNL     1      -0.190  -3.893   8.811  0.00  0.00    +0.005 A 
BRANCH  18  21
ATOM     21  C   UNL     1       0.169  -2.312  12.221  0.00  0.00    -0.013 C 
ATOM     22  C   UNL     1      -0.796  -1.168  12.542  0.00  0.00    +0.015 C 
ATOM     23  C   UNL     1      -0.318  -3.595  12.898  0.00  0.00    +0.015 C 
ATOM     24  C   UNL     1       1.566  -1.961  12.737  0.00  0.00    +0.015 C 
ENDBRANCH  18  21
ENDBRANCH  14  15
ENDBRANCH  13  14
ENDBRANCH   8   9
ENDBRANCH   1   8
BRANCH   1  25
ATOM     25  C   UNL     1       1.308   0.976   4.601  0.00  0.00    -0.043 C 
BRANCH  25  26
ATOM     26  C   UNL     1       2.324   0.986   3.457  0.00  0.00    +0.135 C 
BRANCH  26  27
ATOM     27  O   UNL     1       3.130  -0.192   3.526  0.00  0.00    -0.390 OA
ATOM     28  H   UNL     1       3.629  -0.279   4.350  0.00  0.00    +0.210 HD
ENDBRANCH  26  27
BRANCH  26  29
ATOM     29  C   UNL     1       3.216   2.223   3.578  0.00  0.00    +0.258 C 
BRANCH  29  30
ATOM     30  O   UNL     1       4.087   2.294   2.447  0.00  0.00    -0.489 OA
BRANCH  30  31
ATOM     31  C   UNL     1       4.952   3.343   2.399  0.00  0.00    +0.121 A 
ATOM     32  C   UNL     1       4.964   4.279   3.422  0.00  0.00    +0.049 A 
ATOM     33  C   UNL     1       5.843   5.344   3.373  0.00  0.00    +0.049 A 
ATOM     34  C   UNL     1       6.712   5.477   2.301  0.00  0.00    +0.120 A 
ATOM     35  C   UNL     1       6.700   4.540   1.278  0.00  0.00    +0.049 A 
ATOM     36  C   UNL     1       5.825   3.473   1.329  0.00  0.00    +0.049 A 
BRANCH  34  37
ATOM     37  O   UNL     1       7.576   6.526   2.253  0.00  0.00    -0.495 OA
ATOM     38  C   UNL     1       8.443   6.600   1.119  0.00  0.00    +0.277 C 
ENDBRANCH  34  37
ENDBRANCH  30  31
ENDBRANCH  29  30
ENDBRANCH  26  29
ENDBRANCH  25  26
ENDBRANCH   1  25
TORSDOF 15
