REMARK  Name = ZINC10048979
REMARK  8 active torsions:
REMARK  status: ('A' for Active; 'I' for Inactive)
REMARK    1  A    between atoms: C_1  and  C_2
REMARK    2  A    between atoms: N_9  and  C_10
REMARK    3  A    between atoms: N_17  and  C_34
REMARK    4  A    between atoms: N_20  and  C_23
REMARK    5  A    between atoms: C_23  and  C_24
REMARK    6  A    between atoms: C_24  and  C_25
REMARK    7  A    between atoms: C_25  and  N_26
REMARK    8  A    between atoms: N_26  and  C_27
REMARK                            x       y       z     vdW  Elec       q    Type
REMARK                         _______ _______ _______ _____ _____    ______ ____
ROOT
ATOM      1  C   UNL     1       2.476   2.917   7.404  0.00  0.00    +0.065 C 
ATOM      2  C   UNL     1       1.811   2.625   6.084  0.00  0.00    +0.040 A 
ATOM      3  C   UNL     1       0.514   2.752   5.819  0.00  0.00    +0.116 A 
ATOM      4  N   UNL     1       0.299   2.389   4.501  0.00  0.00    -0.277 N 
ATOM      5  C   UNL     1      -0.656   2.243   3.506  0.00  0.00    +0.157 A 
ATOM      6  C   UNL     1       0.023   1.793   2.374  0.00  0.00    +0.170 A 
ATOM      7  N   UNL     1       1.309   1.684   2.696  0.00  0.00    -0.193 NA
ATOM      8  C   UNL     1       1.490   2.036   3.961  0.00  0.00    +0.223 A 
ATOM      9  N   UNL     1       2.443   2.178   4.937  0.00  0.00    -0.283 N 
ATOM     10  N   UNL     1      -0.698   1.558   1.213  0.00  0.00    -0.279 N 
ATOM     11  C   UNL     1      -2.028   1.770   1.192  0.00  0.00    +0.333 A 
ATOM     12  O   UNL     1      -2.645   1.564   0.165  0.00  0.00    -0.246 OA
ATOM     13  N   UNL     1      -2.691   2.199   2.280  0.00  0.00    -0.259 N 
ATOM     14  C   UNL     1      -2.044   2.444   3.438  0.00  0.00    +0.283 A 
ATOM     15  O   UNL     1      -2.658   2.836   4.415  0.00  0.00    -0.265 OA
ATOM     16  C   UNL     1      -0.013   1.086   0.008  0.00  0.00    +0.155 C 
ENDROOT
BRANCH   9  17
ATOM     17  C   UNL     1       3.812   1.916   4.798  0.00  0.00    +0.050 A 
ATOM     18  C   UNL     1       4.582   2.680   3.930  0.00  0.00    +0.029 A 
ATOM     19  C   UNL     1       5.932   2.423   3.798  0.00  0.00    +0.040 A 
ATOM     20  C   UNL     1       6.517   1.399   4.523  0.00  0.00    +0.124 A 
ATOM     21  C   UNL     1       5.751   0.633   5.386  0.00  0.00    +0.040 A 
ATOM     22  C   UNL     1       4.401   0.889   5.525  0.00  0.00    +0.029 A 
ATOM     23  F   UNL     1       7.838   1.146   4.389  0.00  0.00    -0.205 F 
ENDBRANCH   9  17
BRANCH  13  24
ATOM     24  C   UNL     1      -4.139   2.407   2.205  0.00  0.00    +0.131 C 
BRANCH  24  25
ATOM     25  C   UNL     1      -4.425   3.845   1.768  0.00  0.00    +0.040 C 
BRANCH  25  26
ATOM     26  C   UNL     1      -5.938   4.063   1.690  0.00  0.00    +0.103 C 
BRANCH  26  27
ATOM     27  N   UNL     1      -6.212   5.440   1.272  0.00  0.00    -0.344 N 
ATOM     28  H   UNL     1      -5.477   6.048   1.093  0.00  0.00    +0.146 HD
BRANCH  27  29
ATOM     29  C   UNL     1      -7.531   5.878   1.129  0.00  0.00    +0.027 A 
ATOM     30  C   UNL     1      -8.584   5.006   1.378  0.00  0.00    +0.024 A 
ATOM     31  C   UNL     1      -9.887   5.443   1.242  0.00  0.00    +0.022 A 
ATOM     32  C   UNL     1     -10.145   6.744   0.846  0.00  0.00    +0.041 A 
ATOM     33  C   UNL     1      -9.098   7.612   0.592  0.00  0.00    +0.022 A 
ATOM     34  C   UNL     1      -7.793   7.183   0.732  0.00  0.00    +0.024 A 
ATOM     35 CL   UNL     1     -11.784   7.287   0.669  0.00  0.00    -0.084 Cl
ENDBRANCH  27  29
ENDBRANCH  26  27
ENDBRANCH  25  26
ENDBRANCH  24  25
ENDBRANCH  13  24
TORSDOF 6
