REMARK  Name = ZINC14849720
REMARK  3 active torsions:
REMARK  status: ('A' for Active; 'I' for Inactive)
REMARK    1  A    between atoms: C_3  and  N_8
REMARK    2  A    between atoms: N_8  and  S_9
REMARK    3  A    between atoms: S_9  and  C_12
REMARK                            x       y       z     vdW  Elec       q    Type
REMARK                         _______ _______ _______ _____ _____    ______ ____
ROOT
ATOM      1  S   UNL     1       3.161   2.459  -0.469  0.00  0.00    +0.072 S 
ATOM      2  O   UNL     1       3.112   3.772   0.071  0.00  0.00    -0.150 OA
ATOM      3  O   UNL     1       3.363   1.309   0.340  0.00  0.00    -0.150 OA
ENDROOT
BRANCH   1   4
ATOM      4  C   UNL     1       1.643   2.212  -1.328  0.00  0.00    +0.110 A 
ATOM      5  C   UNL     1       1.113   0.939  -1.439  0.00  0.00    +0.032 A 
ATOM      6  C   UNL     1      -0.079   0.736  -2.110  0.00  0.00    +0.049 A 
ATOM      7  C   UNL     1      -0.744   1.811  -2.674  0.00  0.00    +0.142 A 
ATOM      8  C   UNL     1      -0.210   3.094  -2.563  0.00  0.00    +0.078 A 
ATOM      9  C   UNL     1       0.984   3.291  -1.889  0.00  0.00    +0.055 A 
ATOM     10  N   UNL     1      -0.891   4.173  -3.144  0.00  0.00    -0.280 N 
ATOM     11  C   UNL     1      -2.183   4.011  -3.507  0.00  0.00    +0.255 C 
ATOM     12  O   UNL     1      -2.785   4.922  -4.035  0.00  0.00    -0.272 OA
ATOM     13  C   UNL     1      -2.872   2.693  -3.255  0.00  0.00    +0.325 C 
ATOM     14  O   UNL     1      -1.918   1.631  -3.336  0.00  0.00    -0.481 OA
ATOM     15  H   UNL     1      -0.443   5.023  -3.278  0.00  0.00    +0.155 HD
ENDBRANCH   1   4
BRANCH   1  16
ATOM     16  N   UNL     1       4.370   2.459  -1.602  0.00  0.00    -0.216 N 
ATOM     17  H   UNL     1       4.908   3.254  -1.737  0.00  0.00    +0.174 HD
BRANCH  16  20
ATOM     18  C   UNL     1       4.451   0.125  -4.440  0.00  0.00    +0.003 A 
ATOM     19  C   UNL     1       4.209   1.260  -3.690  0.00  0.00    +0.024 A 
ATOM     20  C   UNL     1       4.614   1.313  -2.362  0.00  0.00    +0.049 A 
ATOM     21  C   UNL     1       5.266   0.226  -1.794  0.00  0.00    +0.039 A 
ATOM     22  C   UNL     1       5.501  -0.908  -2.548  0.00  0.00    +0.020 A 
ATOM     23  C   UNL     1       5.096  -0.957  -3.870  0.00  0.00    +0.015 A 
ATOM     24 BR   UNL     1       6.383  -2.391  -1.774  0.00  0.00    -0.050 Br
ENDBRANCH  16  20
ENDBRANCH   1  16
TORSDOF 3
