REMARK  Name = ZINC25495613
REMARK  11 active torsions:
REMARK  status: ('A' for Active; 'I' for Inactive)
REMARK    1  A    between atoms: C_1  and  C_2
REMARK    2  A    between atoms: C_3  and  C_30
REMARK    3  A    between atoms: C_11  and  C_13
REMARK    4  A    between atoms: C_13  and  C_15
REMARK    5  A    between atoms: C_13  and  N_16
REMARK    6  A    between atoms: N_16  and  C_17
REMARK    7  A    between atoms: C_20  and  N_23
REMARK    8  A    between atoms: C_24  and  C_26
REMARK    9  A    between atoms: C_26  and  C_27
REMARK   10  A    between atoms: C_27  and  C_28
REMARK   11  A    between atoms: C_27  and  C_29
REMARK                            x       y       z     vdW  Elec       q    Type
REMARK                         _______ _______ _______ _____ _____    ______ ____
ROOT
ATOM      1  N   UNL     1      -4.799   3.807   0.175  0.00  0.00    -0.334 N 
ATOM      2  H   UNL     1      -5.754   3.270   0.273  0.00  0.00    +0.147 HD
ENDROOT
BRANCH   1   3
ATOM      3  C   UNL     1      -3.596   3.094   0.132  0.00  0.00    +0.028 A 
ATOM      4  C   UNL     1      -3.608   1.707   0.214  0.00  0.00    +0.025 A 
ATOM      5  C   UNL     1      -2.421   1.003   0.173  0.00  0.00    +0.025 A 
ATOM      6  C   UNL     1      -1.216   1.681   0.049  0.00  0.00    +0.033 A 
ATOM      7  C   UNL     1      -1.203   3.067  -0.028  0.00  0.00    +0.025 A 
ATOM      8  C   UNL     1      -2.390   3.771   0.008  0.00  0.00    +0.025 A 
BRANCH   6   9
ATOM      9  N   UNL     1      -0.011   0.966   0.007  0.00  0.00    -0.285 N 
ATOM     10  C   UNL     1       0.038  -0.237  -0.599  0.00  0.00    +0.217 C 
ATOM     11  O   UNL     1      -0.976  -0.736  -1.039  0.00  0.00    -0.275 OA
ATOM     12  H   UNL     1       0.894   1.386   0.469  0.00  0.00    +0.155 HD
BRANCH  10  13
ATOM     13  C   UNL     1       1.353  -0.961  -0.730  0.00  0.00    +0.099 C 
BRANCH  13  14
ATOM     14  C   UNL     1       1.132  -2.293  -1.451  0.00  0.00    -0.008 C 
ATOM     15  C   UNL     1       2.482  -2.970  -1.695  0.00  0.00    +0.008 C 
ATOM     16  C   UNL     1       0.254  -3.201  -0.588  0.00  0.00    +0.008 C 
ENDBRANCH  13  14
ENDBRANCH  10  13
ENDBRANCH   6   9
ENDBRANCH   1   3
BRANCH   1  17
ATOM     17  C   UNL     1      -4.786   5.269   0.088  0.00  0.00    +0.133 C 
ATOM     18  C   UNL     1      -4.756   5.693  -1.382  0.00  0.00    +0.036 C 
BRANCH  17  29
ATOM     19  C   UNL     1      -9.994   8.585   2.702  0.00  0.00    +0.045 C 
ATOM     20  C   UNL     1      -9.517   7.157   2.632  0.00  0.00    -0.026 A 
ATOM     21  C   UNL     1     -10.230   6.174   3.205  0.00  0.00    -0.008 A 
ATOM     22  S   UNL     1      -9.272   4.712   2.854  0.00  0.00    -0.073 S 
ATOM     23  C   UNL     1      -7.945   5.463   1.948  0.00  0.00    +0.116 A 
ATOM     24  C   UNL     1      -8.283   6.829   1.944  0.00  0.00    +0.075 A 
ATOM     25  C   UNL     1      -7.363   7.692   1.264  0.00  0.00    +0.260 A 
ATOM     26  O   UNL     1      -7.568   8.892   1.206  0.00  0.00    -0.267 OA
ATOM     27  N   UNL     1      -6.269   7.157   0.691  0.00  0.00    -0.309 N 
ATOM     28  H   UNL     1      -5.552   7.804   0.165  0.00  0.00    +0.170 HD
ATOM     29  C   UNL     1      -6.024   5.822   0.746  0.00  0.00    +0.131 A 
ATOM     30  N   UNL     1      -6.846   5.009   1.353  0.00  0.00    -0.225 NA
ATOM     31  C   UNL     1     -11.527   6.282   3.965  0.00  0.00    +0.052 C 
ENDBRANCH  17  29
ENDBRANCH   1  17
TORSDOF 6
