REMARK  Name = ZINC65975336
REMARK  5 active torsions:
REMARK  status: ('A' for Active; 'I' for Inactive)
REMARK    1  A    between atoms: C_1  and  O_2
REMARK    2  A    between atoms: O_2  and  C_3
REMARK    3  A    between atoms: C_3  and  C_5
REMARK    4  A    between atoms: C_8  and  C_11
REMARK    5  A    between atoms: C_13  and  C_16
REMARK                            x       y       z     vdW  Elec       q    Type
REMARK                         _______ _______ _______ _____ _____    ______ ____
ROOT
ATOM      1  C   UNL     1       0.826  -6.312  -1.339  0.00  0.00    +0.109 A 
ATOM      2  N   UNL     1       1.370  -7.082  -2.268  0.00  0.00    -0.239 NA
ATOM      3  C   UNL     1       1.331  -8.396  -2.177  0.00  0.00    +0.079 A 
ATOM      4  C   UNL     1       0.715  -8.979  -1.099  0.00  0.00    +0.075 A 
ATOM      5  S   UNL     1       0.186  -7.529  -0.196  0.00  0.00    -0.075 S 
ENDROOT
BRANCH   3   6
ATOM      6  C   UNL     1       1.949  -9.238  -3.232  0.00  0.00    +0.003 A 
ATOM      7  C   UNL     1       1.899 -10.629  -3.132  0.00  0.00    +0.012 A 
ATOM      8  C   UNL     1       2.471 -11.415  -4.110  0.00  0.00    +0.028 A 
ATOM      9  C   UNL     1       3.099 -10.822  -5.197  0.00  0.00    +0.067 A 
ATOM     10  C   UNL     1       3.152  -9.430  -5.301  0.00  0.00    +0.067 A 
ATOM     11  C   UNL     1       2.573  -8.640  -4.323  0.00  0.00    +0.037 A 
ATOM     12  N   UNL     1       3.835  -9.141  -6.481  0.00  0.00    -0.306 N 
ATOM     13  H   UNL     1       4.029  -8.254  -6.822  0.00  0.00    +0.170 HD
ATOM     14  C   UNL     1       4.181 -10.303  -7.066  0.00  0.00    +0.325 A 
ATOM     15  O   UNL     1       4.790 -10.405  -8.115  0.00  0.00    -0.247 OA
ATOM     16  N   UNL     1       3.751 -11.335  -6.316  0.00  0.00    -0.306 N 
ATOM     17  H   UNL     1       3.875 -12.275  -6.520  0.00  0.00    +0.170 HD
ENDBRANCH   3   6
BRANCH   1  21
ATOM     18  C   UNL     1       0.659  -2.075  -1.122  0.00  0.00    +0.059 A 
ATOM     19  C   UNL     1       0.087  -2.849  -0.108  0.00  0.00    +0.015 A 
ATOM     20  C   UNL     1       0.142  -4.218  -0.179  0.00  0.00    +0.011 A 
ATOM     21  C   UNL     1       0.767  -4.838  -1.263  0.00  0.00    +0.007 A 
ATOM     22  C   UNL     1       1.339  -4.063  -2.277  0.00  0.00    +0.011 A 
ATOM     23  C   UNL     1       1.280  -2.695  -2.210  0.00  0.00    +0.015 A 
BRANCH  18  24
ATOM     24  C   UNL     1       0.601  -0.602  -1.047  0.00  0.00    +0.339 C 
ATOM     25  O   UNL     1       1.093   0.071  -1.930  0.00  0.00    -0.245 OA
BRANCH  24  27
ATOM     26  C   UNL     1      -0.017   1.425   0.010  0.00  0.00    +0.280 C 
ATOM     27  O   UNL     1       0.002  -0.004   0.002  0.00  0.00    -0.464 OA
ENDBRANCH  24  27
ENDBRANCH  18  24
ENDBRANCH   1  21
TORSDOF 4
