REMARK  Name = ZINC04717258
REMARK  5 active torsions:
REMARK  status: ('A' for Active; 'I' for Inactive)
REMARK    1  A    between atoms: C_4  and  O_26
REMARK    2  A    between atoms: C_5  and  C_7
REMARK    3  A    between atoms: C_7  and  O_9
REMARK    4  A    between atoms: O_9  and  C_10
REMARK    5  A    between atoms: C_10  and  C_11
REMARK                            x       y       z     vdW  Elec       q    Type
REMARK                         _______ _______ _______ _____ _____    ______ ____
ROOT
ATOM      1  C   UNL     1       1.389   1.781  -0.002  0.00  0.00    +0.185 C 
ATOM      2  C   UNL     1       2.031   0.672   0.862  0.00  0.00    +0.199 C 
ATOM      3  O   UNL     1       1.091  -0.420   0.829  0.00  0.00    -0.335 OA
ATOM      4  C   UNL     1       0.002  -0.004   0.002  0.00  0.00    +0.279 C 
ATOM      5  O   UNL     1      -0.017   1.431   0.010  0.00  0.00    -0.329 OA
ATOM      6  C   UNL     1      -1.304  -0.567   0.492  0.00  0.00    +0.042 A 
ATOM      7  C   UNL     1      -1.996  -0.456   1.677  0.00  0.00    +0.011 A 
ATOM      8  C   UNL     1      -3.206  -1.109   1.837  0.00  0.00    +0.001 A 
ATOM      9  C   UNL     1      -3.717  -1.872   0.803  0.00  0.00    +0.002 A 
ATOM     10  C   UNL     1      -3.028  -1.985  -0.387  0.00  0.00    +0.024 A 
ATOM     11  C   UNL     1      -1.809  -1.331  -0.555  0.00  0.00    +0.042 A 
ATOM     12  N   UNL     1      -0.938  -1.291  -1.646  0.00  0.00    -0.280 N 
ATOM     13  C   UNL     1       0.148  -0.534  -1.401  0.00  0.00    +0.282 C 
ATOM     14  O   UNL     1       1.067  -0.319  -2.163  0.00  0.00    -0.269 OA
ATOM     15  H   UNL     1      -1.097  -1.754  -2.483  0.00  0.00    +0.155 HD
ENDROOT
BRANCH   1  16
ATOM     16  C   UNL     1       1.610   3.156   0.632  0.00  0.00    +0.266 C 
BRANCH  16  17
ATOM     17  O   UNL     1       0.999   4.176  -0.201  0.00  0.00    -0.458 OA
BRANCH  17  18
ATOM     18  C   UNL     1       1.104   5.452   0.219  0.00  0.00    +0.343 C 
ATOM     19  O   UNL     1       1.690   5.705   1.253  0.00  0.00    -0.245 OA
BRANCH  18  24
ATOM     20  C   UNL     1      -0.723   7.277  -2.504  0.00  0.00    +0.001 A 
ATOM     21  C   UNL     1      -0.615   8.589  -2.072  0.00  0.00    +0.004 A 
ATOM     22  C   UNL     1       0.049   8.887  -0.899  0.00  0.00    +0.046 A 
ATOM     23  C   UNL     1       0.614   7.870  -0.142  0.00  0.00    +0.131 A 
ATOM     24  C   UNL     1       0.507   6.541  -0.575  0.00  0.00    +0.100 A 
ATOM     25  C   UNL     1      -0.163   6.255  -1.768  0.00  0.00    +0.018 A 
BRANCH  23  26
ATOM     26  O   UNL     1       1.266   8.161   1.011  0.00  0.00    -0.506 OA
ATOM     27  H   UNL     1       2.211   8.331   0.896  0.00  0.00    +0.292 HD
ENDBRANCH  23  26
ENDBRANCH  18  24
ENDBRANCH  17  18
ENDBRANCH  16  17
ENDBRANCH   1  16
TORSDOF 5
