REMARK  Name = ZINC12479568
REMARK  15 active torsions:
REMARK  status: ('A' for Active; 'I' for Inactive)
REMARK    1  A    between atoms: C_1  and  C_2
REMARK    2  A    between atoms: C_5  and  C_8
REMARK    3  A    between atoms: C_8  and  C_10
REMARK    4  A    between atoms: C_8  and  N_18
REMARK    5  A    between atoms: N_12  and  C_13
REMARK    6  A    between atoms: C_13  and  C_14
REMARK    7  A    between atoms: C_14  and  C_15
REMARK    8  A    between atoms: C_15  and  C_16
REMARK    9  A    between atoms: C_15  and  C_17
REMARK   10  A    between atoms: N_18  and  C_19
REMARK   11  A    between atoms: C_22  and  C_26
REMARK   12  A    between atoms: C_24  and  C_25
REMARK   13  A    between atoms: C_27  and  C_29
REMARK   14  A    between atoms: C_30  and  N_37
REMARK   15  A    between atoms: C_31  and  C_34
REMARK                            x       y       z     vdW  Elec       q    Type
REMARK                         _______ _______ _______ _____ _____    ______ ____
ROOT
ATOM      1  N   UNL     1      -2.247   2.361  -0.283  0.00  0.00    -0.251 N 
ATOM      2  C   UNL     1      -2.317   3.620   0.194  0.00  0.00    +0.262 C 
ATOM      3  O   UNL     1      -2.016   4.559  -0.519  0.00  0.00    -0.269 OA
ENDROOT
BRANCH   1   4
ATOM      4  C   UNL     1      -2.592   1.282   0.536  0.00  0.00    +0.041 A 
ATOM      5  C   UNL     1      -1.740   0.881   1.556  0.00  0.00    +0.024 A 
ATOM      6  C   UNL     1      -2.081  -0.189   2.359  0.00  0.00    +0.005 A 
ATOM      7  C   UNL     1      -3.272  -0.861   2.149  0.00  0.00    -0.050 A 
ATOM      8  C   UNL     1      -4.123  -0.464   1.134  0.00  0.00    +0.008 A 
ATOM      9  C   UNL     1      -3.787   0.605   0.327  0.00  0.00    -0.029 A 
ATOM     10  C   UNL     1      -4.715   1.036  -0.779  0.00  0.00    +0.045 C 
ATOM     11  C   UNL     1      -3.641  -2.028   3.027  0.00  0.00    +0.044 C 
ENDBRANCH   1   4
BRANCH   2  12
ATOM     12  C   UNL     1      -2.756   3.857   1.571  0.00  0.00    +0.116 A 
ATOM     13  C   UNL     1      -2.894   5.063   2.260  0.00  0.00    +0.076 A 
ATOM     14  C   UNL     1      -3.344   4.881   3.568  0.00  0.00    +0.155 A 
ATOM     15  N   UNL     1      -3.573   3.664   4.006  0.00  0.00    -0.203 NA
ATOM     16  S   UNL     1      -3.248   2.683   2.816  0.00  0.00    +0.019 S 
BRANCH  14  17
ATOM     17  C   UNL     1      -3.554   6.043   4.451  0.00  0.00    +0.262 C 
ATOM     18  O   UNL     1      -3.340   7.167   4.039  0.00  0.00    -0.269 OA
ATOM     19  N   UNL     1      -3.985   5.860   5.715  0.00  0.00    -0.324 N 
ATOM     20  H   UNL     1      -4.156   4.963   6.044  0.00  0.00    +0.145 HD
ATOM     21  H   UNL     1      -4.124   6.624   6.296  0.00  0.00    +0.145 HD
ENDBRANCH  14  17
BRANCH  13  22
ATOM     22  N   UNL     1      -2.617   6.305   1.705  0.00  0.00    -0.355 N 
ATOM     23  H   UNL     1      -2.308   6.368   0.787  0.00  0.00    +0.142 HD
ATOM     24  H   UNL     1      -2.732   7.109   2.235  0.00  0.00    +0.142 HD
ENDBRANCH  13  22
ENDBRANCH   2  12
BRANCH   1  25
ATOM     25  C   UNL     1      -1.807   2.124  -1.661  0.00  0.00    +0.197 C 
BRANCH  25  30
ATOM     26  C   UNL     1       3.664   3.883  -2.267  0.00  0.00    +0.044 C 
ATOM     27  C   UNL     1       2.237   3.424  -2.109  0.00  0.00    -0.050 A 
ATOM     28  C   UNL     1       1.282   3.806  -3.033  0.00  0.00    +0.004 A 
ATOM     29  C   UNL     1      -0.027   3.385  -2.888  0.00  0.00    +0.006 A 
ATOM     30  C   UNL     1      -0.381   2.583  -1.819  0.00  0.00    -0.018 A 
ATOM     31  C   UNL     1       0.573   2.206  -0.893  0.00  0.00    +0.006 A 
ATOM     32  C   UNL     1       1.883   2.622  -1.041  0.00  0.00    +0.004 A 
ENDBRANCH  25  30
BRANCH  25  33
ATOM     33  C   UNL     1      -1.900   0.653  -1.971  0.00  0.00    +0.238 C 
ATOM     34  O   UNL     1      -1.718  -0.165  -1.094  0.00  0.00    -0.273 OA
ATOM     35  N   UNL     1      -2.184   0.244  -3.224  0.00  0.00    -0.313 N 
ATOM     36  H   UNL     1      -2.330   0.898  -3.926  0.00  0.00    +0.149 HD
BRANCH  35  37
ATOM     37  C   UNL     1      -2.274  -1.186  -3.526  0.00  0.00    +0.104 C 
BRANCH  37  38
ATOM     38  C   UNL     1      -2.606  -1.375  -5.007  0.00  0.00    +0.022 C 
BRANCH  38  39
ATOM     39  C   UNL     1      -2.700  -2.869  -5.322  0.00  0.00    -0.016 C 
ATOM     40  C   UNL     1      -3.880  -3.478  -4.562  0.00  0.00    +0.007 C 
ATOM     41  C   UNL     1      -2.908  -3.062  -6.826  0.00  0.00    +0.007 C 
ENDBRANCH  38  39
ENDBRANCH  37  38
ENDBRANCH  35  37
ENDBRANCH  25  33
ENDBRANCH   1  25
TORSDOF 10
