REMARK  Name = ZINC07523696
REMARK  8 active torsions:
REMARK  status: ('A' for Active; 'I' for Inactive)
REMARK    1  A    between atoms: C_1  and  N_53
REMARK    2  A    between atoms: C_2  and  C_3
REMARK    3  A    between atoms: C_2  and  N_53
REMARK    4  A    between atoms: C_8  and  C_9
REMARK    5  A    between atoms: C_8  and  N_53
REMARK    6  A    between atoms: N_11  and  N_12
REMARK    7  A    between atoms: C_15  and  C_19
REMARK    8  A    between atoms: C_15  and  C_25
REMARK                            x       y       z     vdW  Elec       q    Type
REMARK                         _______ _______ _______ _____ _____    ______ ____
ROOT
ATOM      1  N   UNL     1       0.946   1.869  -0.620  0.00  0.00    -0.137 N 
ATOM      2  C   UNL     1      -0.243   1.246  -0.738  0.00  0.00    +0.272 C 
ATOM      3  O   UNL     1      -0.473   0.213  -1.331  0.00  0.00    -0.270 OA
ATOM      4  C   UNL     1      -1.235   2.107   0.018  0.00  0.00    +0.165 C 
ATOM      5  N   UNL     1      -0.411   3.216   0.530  0.00  0.00    -0.276 N 
ATOM      6  C   UNL     1       0.845   2.991   0.103  0.00  0.00    +0.327 C 
ATOM      7  O   UNL     1       1.783   3.724   0.347  0.00  0.00    -0.251 OA
ATOM      8  H   UNL     1      -0.715   3.965   1.066  0.00  0.00    +0.152 HD
ENDROOT
BRANCH   4   9
ATOM      9  C   UNL     1      -2.305   2.623  -0.909  0.00  0.00    -0.011 A 
ATOM     10  C   UNL     1      -2.957   1.753  -1.763  0.00  0.00    +0.006 A 
ATOM     11  C   UNL     1      -3.942   2.224  -2.610  0.00  0.00    +0.000 A 
ATOM     12  C   UNL     1      -4.268   3.568  -2.611  0.00  0.00    +0.000 A 
ATOM     13  C   UNL     1      -3.612   4.439  -1.760  0.00  0.00    +0.000 A 
ATOM     14  C   UNL     1      -2.631   3.966  -0.910  0.00  0.00    +0.006 A 
ENDBRANCH   4   9
BRANCH   4  15
ATOM     15  C   UNL     1      -1.846   1.335   1.159  0.00  0.00    -0.011 A 
ATOM     16  C   UNL     1      -2.405   0.091   0.930  0.00  0.00    +0.006 A 
ATOM     17  C   UNL     1      -2.962  -0.620   1.977  0.00  0.00    +0.000 A 
ATOM     18  C   UNL     1      -2.968  -0.082   3.251  0.00  0.00    +0.000 A 
ATOM     19  C   UNL     1      -2.415   1.164   3.478  0.00  0.00    +0.000 A 
ATOM     20  C   UNL     1      -1.854   1.872   2.432  0.00  0.00    +0.006 A 
ENDBRANCH   4  15
BRANCH   1  23
ATOM     21  C   UNL     1       2.647   2.001  -2.280  0.00  0.00    +0.213 C 
ATOM     22  O   UNL     1       2.070   2.945  -2.777  0.00  0.00    -0.276 OA
ATOM     23  N   UNL     1       2.140   1.402  -1.184  0.00  0.00    -0.225 N 
ATOM     24  H   UNL     1       2.601   0.647  -0.787  0.00  0.00    +0.173 HD
BRANCH  21  25
ATOM     25  C   UNL     1       3.931   1.498  -2.887  0.00  0.00    +0.020 C 
BRANCH  25  27
ATOM     26  C   UNL     1       3.280   2.127  -5.133  0.00  0.00    -0.095 C 
ATOM     27  N   UNL     1       4.268   2.339  -4.054  0.00  0.00    +0.388 N 
ATOM     28  H   UNL     1       4.246   3.326  -3.771  0.00  0.00    -0.081 HD
BRANCH  27  29
ATOM     29  C   UNL     1       5.625   2.009  -4.540  0.00  0.00    -0.003 C 
BRANCH  29  30
ATOM     30  C   UNL     1       6.029   3.023  -5.580  0.00  0.00    +0.089 A 
ATOM     31  C   UNL     1       6.657   4.188  -5.341  0.00  0.00    +0.042 A 
ATOM     32  C   UNL     1       6.840   4.819  -6.592  0.00  0.00    +0.041 A 
ATOM     33  C   UNL     1       6.312   4.002  -7.522  0.00  0.00    +0.195 A 
ATOM     34  O   UNL     1       5.827   2.913  -6.903  0.00  0.00    -0.470 OA
ENDBRANCH  29  30
ENDBRANCH  27  29
ENDBRANCH  25  27
ENDBRANCH  21  25
ENDBRANCH   1  23
TORSDOF 7
