REMARK  Name = ZINC22335416
REMARK  4 active torsions:
REMARK  status: ('A' for Active; 'I' for Inactive)
REMARK    1  A    between atoms: C_1  and  C_2
REMARK    2  A    between atoms: C_2  and  C_3
REMARK    3  A    between atoms: C_2  and  C_4
REMARK    4  A    between atoms: N_16  and  C_21
REMARK                            x       y       z     vdW  Elec       q    Type
REMARK                         _______ _______ _______ _____ _____    ______ ____
ROOT
ATOM      1  C   UNL     1       7.313   3.335  -1.097  0.00  0.00    +0.218 C 
ATOM      2  O   UNL     1       7.398   4.533  -1.264  0.00  0.00    -0.275 OA
ATOM      3  N   UNL     1       6.378   2.835  -0.265  0.00  0.00    -0.296 N 
ATOM      4  C   UNL     1       5.446   3.718   0.453  0.00  0.00    +0.113 C 
ATOM      5  C   UNL     1       4.016   3.449  -0.021  0.00  0.00    +0.056 C 
ATOM      6  C   UNL     1       3.764   1.946  -0.023  0.00  0.00    -0.020 A 
ATOM      7  C   UNL     1       4.784   1.064  -0.035  0.00  0.00    +0.013 A 
ATOM      8  S   UNL     1       4.010  -0.528  -0.036  0.00  0.00    -0.073 S 
ATOM      9  C   UNL     1       2.360  -0.028  -0.020  0.00  0.00    +0.094 A 
ATOM     10  C   UNL     1       2.421   1.365  -0.013  0.00  0.00    +0.074 A 
ATOM     11  C   UNL     1       1.117   2.064   0.003  0.00  0.00    +0.265 A 
ATOM     12  O   UNL     1       1.069   3.280   0.009  0.00  0.00    -0.267 OA
ATOM     13  N   UNL     1      -0.016   1.339   0.009  0.00  0.00    -0.257 N 
ATOM     14  C   UNL     1       0.002  -0.004   0.002  0.00  0.00    +0.330 A 
ATOM     15  O   UNL     1      -1.050  -0.614   0.009  0.00  0.00    -0.246 OA
ATOM     16  N   UNL     1       1.162  -0.689  -0.013  0.00  0.00    -0.301 N 
ATOM     17  H   UNL     1       1.141  -1.789  -0.019  0.00  0.00    +0.171 HD
ATOM     18  C   UNL     1       6.249   1.382  -0.041  0.00  0.00    +0.150 C 
ENDROOT
BRANCH  13  19
ATOM     19  C   UNL     1      -1.306   2.033   0.019  0.00  0.00    +0.095 C 
ATOM     20  C   UNL     1      -2.091   1.633   1.270  0.00  0.00    +0.025 C 
ATOM     21  C   UNL     1      -3.438   2.359   1.280  0.00  0.00    +0.002 C 
ATOM     22  C   UNL     1      -4.235   1.972   0.033  0.00  0.00    +0.000 C 
ATOM     23  C   UNL     1      -3.450   2.372  -1.218  0.00  0.00    +0.002 C 
ATOM     24  C   UNL     1      -2.103   1.647  -1.228  0.00  0.00    +0.025 C 
ENDBRANCH  13  19
BRANCH   1  26
ATOM     25  C   UNL     1       9.208   3.221  -2.693  0.00  0.00    +0.017 C 
ATOM     26  C   UNL     1       8.253   2.404  -1.819  0.00  0.00    +0.069 C 
ATOM     27  C   UNL     1       9.059   1.599  -0.798  0.00  0.00    +0.017 C 
ENDBRANCH   1  26
TORSDOF 2
