REMARK  Name = ZINC23443445
REMARK  10 active torsions:
REMARK  status: ('A' for Active; 'I' for Inactive)
REMARK    1  A    between atoms: C_1  and  O_2
REMARK    2  A    between atoms: O_2  and  C_3
REMARK    3  A    between atoms: C_7  and  C_11
REMARK    4  A    between atoms: C_8  and  O_9
REMARK    5  A    between atoms: O_9  and  C_10
REMARK    6  A    between atoms: C_15  and  C_27
REMARK    7  A    between atoms: C_30  and  O_35
REMARK    8  A    between atoms: C_31  and  O_33
REMARK    9  A    between atoms: O_33  and  C_34
REMARK   10  A    between atoms: O_35  and  C_36
REMARK                            x       y       z     vdW  Elec       q    Type
REMARK                         _______ _______ _______ _____ _____    ______ ____
ROOT
ATOM      1  C   UNL     1       2.992   5.891   0.627  0.00  0.00    +0.069 C 
ATOM      2  C   UNL     1       2.360   5.567  -0.734  0.00  0.00    +0.094 C 
ATOM      3  N   UNL     1       2.210   4.111  -0.869  0.00  0.00    -0.304 NA
ATOM      4  C   UNL     1       1.149   3.596   0.010  0.00  0.00    +0.132 C 
ATOM      5  C   UNL     1       1.401   4.099   1.412  0.00  0.00    +0.043 A 
ATOM      6  C   UNL     1       2.233   5.130   1.685  0.00  0.00    -0.009 A 
ATOM      7  C   UNL     1       2.221   5.320   3.119  0.00  0.00    +0.004 A 
ATOM      8  C   UNL     1       2.877   6.221   3.964  0.00  0.00    +0.010 A 
ATOM      9  C   UNL     1       2.622   6.110   5.308  0.00  0.00    +0.001 A 
ATOM     10  C   UNL     1       1.757   5.155   5.816  0.00  0.00    +0.002 A 
ATOM     11  C   UNL     1       1.095   4.251   5.004  0.00  0.00    +0.026 A 
ATOM     12  C   UNL     1       1.335   4.339   3.634  0.00  0.00    +0.047 A 
ATOM     13  N   UNL     1       0.860   3.621   2.574  0.00  0.00    -0.356 N 
ATOM     14  H   UNL     1       0.155   2.777   2.546  0.00  0.00    +0.166 HD
ATOM     15  H   UNL     1       1.951   3.864  -1.910  0.00  0.00    +0.123 HD
ENDROOT
BRANCH   1  20
ATOM     16  C   UNL     1       3.954   9.477   1.361  0.00  0.00    +0.162 A 
ATOM     17  C   UNL     1       2.712  10.091   1.387  0.00  0.00    +0.049 A 
ATOM     18  C   UNL     1       1.568   9.347   1.168  0.00  0.00    +0.004 A 
ATOM     19  C   UNL     1       1.660   7.990   0.917  0.00  0.00    +0.008 A 
ATOM     20  C   UNL     1       2.896   7.370   0.895  0.00  0.00    +0.007 A 
ATOM     21  C   UNL     1       4.046   8.111   1.113  0.00  0.00    +0.165 A 
BRANCH  16  23
ATOM     22  C   UNL     1       4.909  11.605   1.823  0.00  0.00    +0.277 C 
ATOM     23  O   UNL     1       5.080  10.208   1.576  0.00  0.00    -0.491 OA
ENDBRANCH  16  23
BRANCH  21  24
ATOM     24  O   UNL     1       5.263   7.504   1.086  0.00  0.00    -0.491 OA
ATOM     25  C   UNL     1       5.931   7.447  -0.176  0.00  0.00    +0.277 C 
ENDBRANCH  21  24
ENDBRANCH   1  20
BRANCH   4  26
ATOM     26  C   UNL     1       1.171   2.089   0.002  0.00  0.00    -0.021 A 
ATOM     27  C   UNL     1       2.379   1.417  -0.013  0.00  0.00    +0.009 A 
ATOM     28  C   UNL     1       2.405   0.035  -0.021  0.00  0.00    +0.050 A 
ATOM     29  C   UNL     1       1.218  -0.680  -0.013  0.00  0.00    +0.162 A 
ATOM     30  C   UNL     1       0.002  -0.004   0.002  0.00  0.00    +0.162 A 
ATOM     31  C   UNL     1      -0.017   1.381   0.010  0.00  0.00    +0.055 A 
BRANCH  30  32
ATOM     32  O   UNL     1      -1.165  -0.702   0.009  0.00  0.00    -0.491 OA
ATOM     33  C   UNL     1      -2.375   0.059   0.024  0.00  0.00    +0.277 C 
ENDBRANCH  30  32
BRANCH  29  34
ATOM     34  O   UNL     1       1.242  -2.040  -0.021  0.00  0.00    -0.491 OA
ATOM     35  C   UNL     1       2.526  -2.666  -0.037  0.00  0.00    +0.277 C 
ENDBRANCH  29  34
ENDBRANCH   4  26
TORSDOF 6
