REMARK  Name = ZINC60888482
REMARK  6 active torsions:
REMARK  status: ('A' for Active; 'I' for Inactive)
REMARK    1  A    between atoms: C_1  and  C_2
REMARK    2  A    between atoms: C_5  and  C_8
REMARK    3  A    between atoms: C_11  and  S_14
REMARK    4  A    between atoms: N_12  and  N_13
REMARK    5  A    between atoms: S_14  and  C_15
REMARK    6  A    between atoms: C_17  and  C_21
REMARK                            x       y       z     vdW  Elec       q    Type
REMARK                         _______ _______ _______ _____ _____    ______ ____
ROOT
ATOM      1  C   UNL     1       0.058  -4.251  -0.021  0.00  0.00    +0.182 A 
ATOM      2  N   UNL     1      -0.205  -5.029  -1.045  0.00  0.00    -0.127 NA
ATOM      3  N   UNL     1      -0.094  -6.262  -0.700  0.00  0.00    -0.121 NA
ATOM      4  C   UNL     1       0.247  -6.346   0.567  0.00  0.00    +0.209 A 
ATOM      5  N   UNL     1       0.361  -5.071   1.041  0.00  0.00    -0.224 N 
ENDROOT
BRANCH   1  10
ATOM      6  C   UNL     1      -0.018   1.503   0.010  0.00  0.00    +0.044 C 
ATOM      7  C   UNL     1       0.002  -0.004   0.002  0.00  0.00    -0.050 A 
ATOM      8  C   UNL     1       0.006  -0.686  -1.202  0.00  0.00    +0.004 A 
ATOM      9  C   UNL     1       0.024  -2.066  -1.216  0.00  0.00    +0.012 A 
ATOM     10  C   UNL     1       0.039  -2.773  -0.013  0.00  0.00    +0.021 A 
ATOM     11  C   UNL     1       0.036  -2.079   1.198  0.00  0.00    +0.012 A 
ATOM     12  C   UNL     1       0.023  -0.699   1.198  0.00  0.00    +0.004 A 
ENDBRANCH   1  10
BRANCH   5  13
ATOM     13  N   UNL     1       0.701  -4.689   2.308  0.00  0.00    -0.295 N 
ATOM     14  H   UNL     1      -0.117  -4.601   2.891  0.00  0.00    +0.163 HD
ATOM     15  H   UNL     1       1.367  -5.330   2.713  0.00  0.00    +0.163 HD
ENDBRANCH   5  13
BRANCH   4  16
ATOM     16  S   UNL     1       0.514  -7.829   1.481  0.00  0.00    -0.070 S 
BRANCH  16  17
ATOM     17  C   UNL     1       0.210  -9.149   0.274  0.00  0.00    +0.166 C 
ATOM     18  C   UNL     1       0.382 -10.540   0.936  0.00  0.00    +0.070 C 
ATOM     19  C   UNL     1       1.154 -11.297  -0.179  0.00  0.00    +0.175 C 
ATOM     20  O   UNL     1       1.989 -10.264  -0.744  0.00  0.00    -0.461 OA
ATOM     21  C   UNL     1       1.267  -9.128  -0.814  0.00  0.00    +0.321 C 
ATOM     22  O   UNL     1       1.434  -8.238  -1.614  0.00  0.00    -0.250 OA
ATOM     23  C   UNL     1       0.188 -11.848  -1.229  0.00  0.00    +0.052 C 
ENDBRANCH  16  17
ENDBRANCH   4  16
TORSDOF 4
