REMARK  Name = ZINC40659367
REMARK  6 active torsions:
REMARK  status: ('A' for Active; 'I' for Inactive)
REMARK    1  A    between atoms: C_4  and  C_7
REMARK    2  A    between atoms: C_7  and  C_8
REMARK    3  A    between atoms: C_7  and  C_14
REMARK    4  A    between atoms: N_16  and  N_17
REMARK    5  A    between atoms: C_19  and  N_36
REMARK    6  A    between atoms: C_20  and  N_24
REMARK                            x       y       z     vdW  Elec       q    Type
REMARK                         _______ _______ _______ _____ _____    ______ ____
ROOT
ATOM      1  N   UNL     1       3.693  -1.983  -3.480  0.00  0.00    -0.246 N 
ATOM      2  C   UNL     1       3.531  -1.523  -4.777  0.00  0.00    +0.171 A 
ATOM      3  C   UNL     1       3.639  -2.396  -5.855  0.00  0.00    +0.207 A 
ATOM      4  C   UNL     1       3.467  -1.885  -7.137  0.00  0.00    +0.157 A 
ATOM      5  N   UNL     1       3.207  -0.587  -7.286  0.00  0.00    -0.218 NA
ATOM      6  C   UNL     1       3.112   0.208  -6.240  0.00  0.00    +0.225 A 
ATOM      7  N   UNL     1       3.264  -0.239  -5.010  0.00  0.00    -0.217 NA
ATOM      8  H   UNL     1       3.888  -2.920  -3.318  0.00  0.00    +0.172 HD
ENDROOT
BRANCH   4   9
ATOM      9  N   UNL     1       3.566  -2.714  -8.244  0.00  0.00    -0.310 N 
ATOM     10  C   UNL     1       2.377  -3.394  -8.777  0.00  0.00    +0.125 C 
ATOM     11  C   UNL     1       2.233  -3.039 -10.262  0.00  0.00    +0.125 C 
ATOM     12  N   UNL     1       3.528  -3.252 -10.924  0.00  0.00    -0.314 N 
ATOM     13  C   UNL     1       4.716  -2.572 -10.391  0.00  0.00    +0.125 C 
ATOM     14  C   UNL     1       4.859  -2.923  -8.909  0.00  0.00    +0.125 C 
ATOM     15  C   UNL     1       3.626  -4.083 -12.033  0.00  0.00    +0.099 A 
ATOM     16  C   UNL     1       2.472  -4.606 -12.608  0.00  0.00    +0.042 A 
ATOM     17  C   UNL     1       2.585  -5.432 -13.712  0.00  0.00    +0.005 A 
ATOM     18  C   UNL     1       3.853  -5.708 -14.206  0.00  0.00    +0.018 A 
ATOM     19  C   UNL     1       4.955  -5.156 -13.586  0.00  0.00    +0.084 A 
ATOM     20  N   UNL     1       4.817  -4.367 -12.537  0.00  0.00    -0.350 N 
ATOM     21  H   UNL     1       5.609  -3.988 -12.123  0.00  0.00    +0.166 HD
ENDBRANCH   4   9
BRANCH   1  24
ATOM     22  C   UNL     1       3.735  -1.544  -1.140  0.00  0.00    +0.241 C 
ATOM     23  O   UNL     1       3.978  -2.714  -0.938  0.00  0.00    -0.273 OA
ATOM     24  N   UNL     1       3.577  -1.096  -2.402  0.00  0.00    -0.235 N 
ATOM     25  H   UNL     1       3.382  -0.159  -2.563  0.00  0.00    +0.173 HD
BRANCH  22  26
ATOM     26  C   UNL     1       3.609  -0.589   0.019  0.00  0.00    +0.136 C 
BRANCH  26  30
ATOM     27  C   UNL     1      -0.296   1.143   0.023  0.00  0.00    +0.000 A 
ATOM     28  C   UNL     1      -0.149  -0.230  -0.044  0.00  0.00    +0.000 A 
ATOM     29  C   UNL     1       1.115  -0.790  -0.046  0.00  0.00    +0.005 A 
ATOM     30  C   UNL     1       2.231   0.022   0.020  0.00  0.00    -0.031 A 
ATOM     31  C   UNL     1       2.084   1.395   0.086  0.00  0.00    +0.005 A 
ATOM     32  C   UNL     1       0.821   1.956   0.089  0.00  0.00    +0.000 A 
ENDBRANCH  26  30
BRANCH  26  33
ATOM     33  C   UNL     1       3.828  -1.335   1.310  0.00  0.00    -0.031 A 
ATOM     34  C   UNL     1       3.081  -2.464   1.591  0.00  0.00    +0.005 A 
ATOM     35  C   UNL     1       3.282  -3.149   2.775  0.00  0.00    +0.000 A 
ATOM     36  C   UNL     1       4.229  -2.705   3.678  0.00  0.00    +0.000 A 
ATOM     37  C   UNL     1       4.977  -1.576   3.397  0.00  0.00    +0.000 A 
ATOM     38  C   UNL     1       4.779  -0.894   2.211  0.00  0.00    +0.005 A 
ENDBRANCH  26  33
ENDBRANCH  22  26
ENDBRANCH   1  24
BRANCH   3  39
ATOM     39  N   UNL     1       3.930  -3.832  -5.643  0.00  0.00    +0.063 N 
ATOM     40  O   UNL     1       3.023  -4.618  -5.502  0.00  0.00    -0.126 OA
ATOM     41  O   UNL     1       5.075  -4.218  -5.610  0.00  0.00    -0.126 OA
ENDBRANCH   3  39
TORSDOF 6
