REMARK  Name = ZINC06198349
REMARK  9 active torsions:
REMARK  status: ('A' for Active; 'I' for Inactive)
REMARK    1  A    between atoms: C_1  and  C_2
REMARK    2  A    between atoms: C_2  and  C_3
REMARK    3  A    between atoms: C_10  and  C_15
REMARK    4  A    between atoms: C_15  and  C_17
REMARK    5  A    between atoms: C_15  and  N_68
REMARK    6  A    between atoms: N_21  and  C_22
REMARK    7  A    between atoms: C_22  and  C_23
REMARK    8  A    between atoms: C_26  and  O_29
REMARK    9  A    between atoms: O_29  and  C_30
REMARK                            x       y       z     vdW  Elec       q    Type
REMARK                         _______ _______ _______ _____ _____    ______ ____
ROOT
ATOM      1  C   UNL     1       4.959   1.184  -0.036  0.00  0.00    +0.039 C 
ENDROOT
BRANCH   1   9
ATOM      2  C   UNL     1      -1.139   1.978   0.651  0.00  0.00    -0.047 A 
ATOM      3  C   UNL     1      -1.103   3.361   0.772  0.00  0.00    +0.005 A 
ATOM      4  C   UNL     1       0.093   4.042   0.708  0.00  0.00    +0.026 A 
ATOM      5  C   UNL     1       1.279   3.338   0.526  0.00  0.00    +0.049 A 
ATOM      6  C   UNL     1       1.239   1.936   0.409  0.00  0.00    -0.001 A 
ATOM      7  C   UNL     1       0.013   1.266   0.477  0.00  0.00    +0.013 A 
ATOM      8  C   UNL     1       2.493   1.204   0.217  0.00  0.00    +0.017 A 
ATOM      9  C   UNL     1       3.651   1.907   0.160  0.00  0.00    +0.011 A 
ATOM     10  C   UNL     1       3.636   3.312   0.283  0.00  0.00    +0.251 A 
ATOM     11  O   UNL     1       4.689   3.925   0.228  0.00  0.00    -0.268 OA
ATOM     12  N   UNL     1       2.490   3.993   0.459  0.00  0.00    -0.322 N 
ATOM     13  H   UNL     1       2.517   4.989   0.542  0.00  0.00    +0.169 HD
BRANCH   2  15
ATOM     14  C   UNL     1      -2.767   0.889   2.172  0.00  0.00    +0.009 C 
ATOM     15  C   UNL     1      -2.460   1.257   0.719  0.00  0.00    +0.032 C 
ENDBRANCH   2  15
ENDBRANCH   1   9
BRANCH   1  25
ATOM     16  C   UNL     1       4.878   1.588  -2.425  0.00  0.00    -0.072 C 
ATOM     17  C   UNL     1       5.465   2.500  -3.502  0.00  0.00    +0.017 C 
ATOM     18  C   UNL     1       6.955   2.290  -3.597  0.00  0.00    -0.048 A 
ATOM     19  C   UNL     1       7.616   2.746  -4.728  0.00  0.00    +0.004 A 
ATOM     20  C   UNL     1       8.981   2.582  -4.851  0.00  0.00    +0.000 A 
ATOM     21  C   UNL     1       9.692   1.959  -3.843  0.00  0.00    +0.000 A 
ATOM     22  C   UNL     1       9.035   1.502  -2.719  0.00  0.00    +0.002 A 
ATOM     23  C   UNL     1       7.663   1.666  -2.593  0.00  0.00    -0.061 A 
ATOM     24  C   UNL     1       6.990   1.147  -1.350  0.00  0.00    -0.041 C 
ATOM     25  N   UNL     1       5.669   1.778  -1.192  0.00  0.00    +0.392 N 
ATOM     26  H   UNL     1       5.795   2.783  -1.026  0.00  0.00    -0.080 HD
ENDBRANCH   1  25
BRANCH   1  27
ATOM     27  C   UNL     1       5.809   1.339   1.198  0.00  0.00    +0.143 A 
ATOM     28  N   UNL     1       6.502   2.397   1.542  0.00  0.00    -0.115 NA
ATOM     29  N   UNL     1       7.092   2.140   2.659  0.00  0.00    -0.023 NA
ATOM     30  N   UNL     1       6.792   0.946   3.036  0.00  0.00    -0.044 NA
ATOM     31  N   UNL     1       5.999   0.422   2.164  0.00  0.00    -0.226 N 
BRANCH  31  32
ATOM     32  C   UNL     1       5.417  -0.922   2.214  0.00  0.00    +0.182 C 
BRANCH  32  33
ATOM     33  C   UNL     1       6.339  -1.895   1.524  0.00  0.00    -0.026 A 
ATOM     34  C   UNL     1       6.196  -2.140   0.171  0.00  0.00    +0.009 A 
ATOM     35  C   UNL     1       7.043  -3.027  -0.465  0.00  0.00    +0.046 A 
ATOM     36  C   UNL     1       8.030  -3.680   0.258  0.00  0.00    +0.120 A 
ATOM     37  C   UNL     1       8.168  -3.437   1.617  0.00  0.00    +0.046 A 
ATOM     38  C   UNL     1       7.322  -2.544   2.247  0.00  0.00    +0.009 A 
BRANCH  36  39
ATOM     39  O   UNL     1       8.862  -4.557  -0.364  0.00  0.00    -0.495 OA
ATOM     40  C   UNL     1       8.662  -4.758  -1.764  0.00  0.00    +0.277 C 
ENDBRANCH  36  39
ENDBRANCH  32  33
ENDBRANCH  31  32
ENDBRANCH   1  27
TORSDOF 7
