REMARK  Name = ZINC21535722
REMARK  11 active torsions:
REMARK  status: ('A' for Active; 'I' for Inactive)
REMARK    1  A    between atoms: C_1  and  C_2
REMARK    2  A    between atoms: C_2  and  C_3
REMARK    3  A    between atoms: C_2  and  C_4
REMARK    4  A    between atoms: C_4  and  C_6
REMARK    5  A    between atoms: C_4  and  N_18
REMARK    6  A    between atoms: N_8  and  C_9
REMARK    7  A    between atoms: C_9  and  C_10
REMARK    8  A    between atoms: C_13  and  O_16
REMARK    9  A    between atoms: O_16  and  C_17
REMARK   10  A    between atoms: N_18  and  S_19
REMARK   11  A    between atoms: S_19  and  C_22
REMARK                            x       y       z     vdW  Elec       q    Type
REMARK                         _______ _______ _______ _____ _____    ______ ____
ROOT
ATOM      1  N   UNL     1       4.272  -1.096  -1.762  0.00  0.00    -0.178 NA
ATOM      2  H   UNL     1       4.442  -2.067  -2.251  0.00  0.00    +0.149 HD
ENDROOT
BRANCH   1   3
ATOM      3  S   UNL     1       3.459  -1.048  -0.320  0.00  0.00    +0.059 S 
ATOM      4  O   UNL     1       4.136  -0.102   0.497  0.00  0.00    -0.153 OA
ATOM      5  O   UNL     1       3.263  -2.397   0.081  0.00  0.00    -0.153 OA
BRANCH   3   6
ATOM      6  C   UNL     1       1.861  -0.381  -0.644  0.00  0.00    +0.106 A 
ATOM      7  C   UNL     1       1.648   0.984  -0.572  0.00  0.00    +0.030 A 
ATOM      8  C   UNL     1       0.395   1.488  -0.823  0.00  0.00    +0.025 A 
ATOM      9  C   UNL     1      -0.682   0.646  -1.151  0.00  0.00    +0.037 A 
ATOM     10  C   UNL     1      -0.461  -0.712  -1.230  0.00  0.00    -0.024 A 
ATOM     11  C   UNL     1       0.815  -1.213  -0.970  0.00  0.00    +0.034 A 
ATOM     12  C   UNL     1      -1.492  -1.732  -1.591  0.00  0.00    +0.037 C 
ATOM     13  C   UNL     1      -2.499  -1.307  -2.613  0.00  0.00    +0.014 C 
ATOM     14  C   UNL     1      -3.575  -0.405  -2.057  0.00  0.00    +0.096 C 
ATOM     15  C   UNL     1      -3.065   0.965  -1.784  0.00  0.00    +0.217 C 
ATOM     16  O   UNL     1      -3.836   1.878  -1.988  0.00  0.00    -0.275 OA
ATOM     17  N   UNL     1      -1.881   1.291  -1.350  0.00  0.00    -0.285 N 
ATOM     18  H   UNL     1      -1.976   2.361  -1.113  0.00  0.00    +0.155 HD
ENDBRANCH   3   6
ENDBRANCH   1   3
BRANCH   1  19
ATOM     19  C   UNL     1       4.564   0.147  -2.480  0.00  0.00    +0.165 C 
BRANCH  19  20
ATOM     20  C   UNL     1       3.946   0.090  -3.853  0.00  0.00    +0.232 C 
ATOM     21  O   UNL     1       3.324  -0.892  -4.199  0.00  0.00    -0.274 OA
ATOM     22  N   UNL     1       4.086   1.131  -4.698  0.00  0.00    -0.310 N 
ATOM     23  H   UNL     1       4.650   2.022  -4.386  0.00  0.00    +0.149 HD
BRANCH  22  24
ATOM     24  C   UNL     1       3.485   1.076  -6.034  0.00  0.00    +0.139 C 
BRANCH  24  25
ATOM     25  C   UNL     1       3.785   2.355  -6.772  0.00  0.00    -0.030 A 
ATOM     26  C   UNL     1       2.914   3.425  -6.683  0.00  0.00    +0.009 A 
ATOM     27  C   UNL     1       3.189   4.600  -7.354  0.00  0.00    +0.046 A 
ATOM     28  C   UNL     1       4.336   4.703  -8.128  0.00  0.00    +0.120 A 
ATOM     29  C   UNL     1       5.206   3.626  -8.221  0.00  0.00    +0.046 A 
ATOM     30  C   UNL     1       4.929   2.455  -7.543  0.00  0.00    +0.009 A 
BRANCH  28  31
ATOM     31  O   UNL     1       4.607   5.856  -8.794  0.00  0.00    -0.495 OA
ATOM     32  C   UNL     1       3.667   6.923  -8.653  0.00  0.00    +0.277 C 
ENDBRANCH  28  31
ENDBRANCH  24  25
ENDBRANCH  22  24
ENDBRANCH  19  20
BRANCH  19  34
ATOM     33  C   UNL     1       6.690   0.507  -1.219  0.00  0.00    +0.009 C 
ATOM     34  C   UNL     1       6.079   0.318  -2.608  0.00  0.00    +0.010 C 
ATOM     35  C   UNL     1       6.679  -0.926  -3.265  0.00  0.00    +0.009 C 
ENDBRANCH  19  34
ENDBRANCH   1  19
TORSDOF 8
