REMARK  Name = ZINC07080465
REMARK  2 active torsions:
REMARK  status: ('A' for Active; 'I' for Inactive)
REMARK    1  A    between atoms: N_13  and  C_17
REMARK    2  A    between atoms: C_17  and  C_18
REMARK                            x       y       z     vdW  Elec       q    Type
REMARK                         _______ _______ _______ _____ _____    ______ ____
ROOT
ATOM      1  C   UNL     1      -0.017   1.375   0.010  0.00  0.00    +0.000 A 
ATOM      2  C   UNL     1       1.174   2.078   0.002  0.00  0.00    +0.000 A 
ATOM      3  C   UNL     1       2.373   1.395  -0.017  0.00  0.00    +0.006 A 
ATOM      4  C   UNL     1       2.394   0.006  -0.026  0.00  0.00    -0.012 A 
ATOM      5  C   UNL     1       1.207  -0.694  -0.013  0.00  0.00    -0.042 A 
ATOM      6  C   UNL     1       0.002  -0.004   0.002  0.00  0.00    +0.004 A 
ATOM      7  C   UNL     1       1.158  -2.199  -0.005  0.00  0.00    +0.035 C 
ATOM      8  C   UNL     1       2.489  -2.786  -0.470  0.00  0.00    +0.008 C 
ATOM      9  C   UNL     1       3.616  -2.144   0.349  0.00  0.00    +0.040 C 
ATOM     10  C   UNL     1       3.731  -0.679  -0.055  0.00  0.00    +0.138 C 
ATOM     11  C   UNL     1       4.706   0.039   0.851  0.00  0.00    +0.251 C 
ATOM     12  O   UNL     1       4.615   0.195   2.050  0.00  0.00    -0.272 OA
ATOM     13  N   UNL     1       5.698   0.470   0.045  0.00  0.00    -0.221 N 
ATOM     14  C   UNL     1       5.482   0.125  -1.230  0.00  0.00    +0.310 C 
ATOM     15  O   UNL     1       6.236   0.402  -2.142  0.00  0.00    -0.252 OA
ATOM     16  N   UNL     1       4.335  -0.562  -1.389  0.00  0.00    -0.281 N 
ATOM     17  H   UNL     1       3.978  -0.911  -2.221  0.00  0.00    +0.152 HD
ENDROOT
BRANCH  13  18
ATOM     18  C   UNL     1       6.866   1.223   0.508  0.00  0.00    +0.149 C 
BRANCH  18  19
ATOM     19  C   UNL     1       7.984   0.249   0.883  0.00  0.00    +0.136 C 
ATOM     20  C   UNL     1       9.175   1.026   1.485  0.00  0.00    +0.035 C 
ATOM     21  C   UNL     1      10.395   0.279   0.880  0.00  0.00    +0.031 C 
ATOM     22  C   UNL     1       9.840  -0.113  -0.512  0.00  0.00    +0.160 C 
ATOM     23  O   UNL     1       8.454  -0.426  -0.289  0.00  0.00    -0.375 OA
ENDBRANCH  18  19
ENDBRANCH  13  18
TORSDOF 2
