REMARK  Name = ZINC09333817
REMARK  19 active torsions:
REMARK  status: ('A' for Active; 'I' for Inactive)
REMARK    1  A    between atoms: C_1  and  C_2
REMARK    2  A    between atoms: C_2  and  N_74
REMARK    3  A    between atoms: C_3  and  C_4
REMARK    4  A    between atoms: C_3  and  N_74
REMARK    5  A    between atoms: C_5  and  C_6
REMARK    6  A    between atoms: C_5  and  N_74
REMARK    7  A    between atoms: C_6  and  C_7
REMARK    8  A    between atoms: C_7  and  N_8
REMARK    9  A    between atoms: C_9  and  C_30
REMARK   10  A    between atoms: C_12  and  C_13
REMARK   11  A    between atoms: C_12  and  O_25
REMARK   12  A    between atoms: C_14  and  C_24
REMARK   13  A    between atoms: C_15  and  C_20
REMARK   14  A    between atoms: C_18  and  C_19
REMARK   15  A    between atoms: C_20  and  O_22
REMARK   16  A    between atoms: O_22  and  C_23
REMARK   17  A    between atoms: C_33  and  O_36
REMARK   18  A    between atoms: O_36  and  C_37
REMARK   19  A    between atoms: C_37  and  C_38
REMARK                            x       y       z     vdW  Elec       q    Type
REMARK                         _______ _______ _______ _____ _____    ______ ____
ROOT
ATOM      1  N   UNL     1       3.746  -1.200  -0.168  0.00  0.00    -0.284 N 
ATOM      2  C   UNL     1       2.757  -0.124  -0.059  0.00  0.00    +0.144 C 
ATOM      3  C   UNL     1       1.401  -0.789   0.002  0.00  0.00    +0.071 C 
ATOM      4  C   UNL     1       0.172  -0.162   0.108  0.00  0.00    +0.135 C 
ATOM      5  C   UNL     1       1.638  -2.168  -0.065  0.00  0.00    +0.249 C 
ATOM      6  O   UNL     1       0.789  -3.041  -0.040  0.00  0.00    -0.282 OA
ATOM      7  C   UNL     1       3.106  -2.382  -0.175  0.00  0.00    +0.288 C 
ATOM      8  O   UNL     1       3.647  -3.466  -0.254  0.00  0.00    -0.266 OA
ENDROOT
BRANCH   4   9
ATOM      9  C   UNL     1      -1.059  -0.961   0.155  0.00  0.00    +0.041 A 
ATOM     10  C   UNL     1      -1.903  -1.142   1.276  0.00  0.00    -0.008 A 
ATOM     11  C   UNL     1      -2.927  -1.950   0.879  0.00  0.00    +0.128 A 
ATOM     12  N   UNL     1      -2.733  -2.277  -0.447  0.00  0.00    -0.352 N 
ATOM     13  H   UNL     1      -3.315  -2.845  -0.976  0.00  0.00    +0.166 HD
ATOM     14  C   UNL     1      -1.612  -1.687  -0.889  0.00  0.00    +0.024 A 
ATOM     15  C   UNL     1      -1.050  -1.793  -2.283  0.00  0.00    +0.064 C 
ATOM     16  C   UNL     1      -1.707  -0.552   2.649  0.00  0.00    +0.047 C 
BRANCH  11  17
ATOM     17  C   UNL     1      -4.041  -2.400   1.720  0.00  0.00    +0.356 C 
ATOM     18  O   UNL     1      -4.108  -2.045   2.881  0.00  0.00    -0.243 OA
BRANCH  17  19
ATOM     19  O   UNL     1      -4.992  -3.207   1.205  0.00  0.00    -0.463 OA
ATOM     20  C   UNL     1      -6.064  -3.612   2.096  0.00  0.00    +0.280 C 
ENDBRANCH  17  19
ENDBRANCH  11  17
ENDBRANCH   4   9
BRANCH   2  21
ATOM     21  C   UNL     1       2.997   0.674   1.196  0.00  0.00    -0.022 A 
ATOM     22  C   UNL     1       3.190   0.025   2.401  0.00  0.00    +0.009 A 
ATOM     23  C   UNL     1       3.416   0.755   3.552  0.00  0.00    +0.046 A 
ATOM     24  C   UNL     1       3.438   2.141   3.499  0.00  0.00    +0.121 A 
ATOM     25  C   UNL     1       3.238   2.791   2.290  0.00  0.00    +0.046 A 
ATOM     26  C   UNL     1       3.018   2.056   1.141  0.00  0.00    +0.009 A 
BRANCH  24  27
ATOM     27  O   UNL     1       3.655   2.862   4.631  0.00  0.00    -0.492 OA
BRANCH  27  28
ATOM     28  C   UNL     1       3.853   2.126   5.840  0.00  0.00    +0.225 C 
ATOM     29  C   UNL     1       4.080   3.100   6.998  0.00  0.00    +0.048 C 
ENDBRANCH  27  28
ENDBRANCH  24  27
ENDBRANCH   2  21
BRANCH   4  30
ATOM     30  O   UNL     1       0.105   1.185   0.168  0.00  0.00    -0.506 OA
ATOM     31  H   UNL     1      -0.851   1.468   0.242  0.00  0.00    +0.292 HD
ENDBRANCH   4  30
BRANCH   1  32
ATOM     32  C   UNL     1       5.197  -1.018  -0.254  0.00  0.00    +0.107 C 
BRANCH  32  33
ATOM     33  C   UNL     1       5.812  -1.151   1.140  0.00  0.00    +0.000 C 
BRANCH  33  34
ATOM     34  C   UNL     1       7.314  -0.871   1.064  0.00  0.00    -0.077 C 
BRANCH  34  35
ATOM     35  N   UNL     1       7.865  -0.865   2.436  0.00  0.00    +0.379 N 
ATOM     36  H   UNL     1       7.216  -0.363   3.054  0.00  0.00    -0.082 HD
BRANCH  35  38
ATOM     37  C   UNL     1       8.373  -2.213   4.413  0.00  0.00    -0.017 C 
ATOM     38  C   UNL     1       8.017  -2.251   2.925  0.00  0.00    -0.082 C 
ENDBRANCH  35  38
BRANCH  35  39
ATOM     39  C   UNL     1       9.173  -0.177   2.452  0.00  0.00    -0.082 C 
ATOM     40  C   UNL     1       8.933   1.334   2.400  0.00  0.00    -0.017 C 
ENDBRANCH  35  39
ENDBRANCH  34  35
ENDBRANCH  33  34
ENDBRANCH  32  33
ENDBRANCH   1  32
TORSDOF 13
