REMARK  Name = ZINC67244670
REMARK  8 active torsions:
REMARK  status: ('A' for Active; 'I' for Inactive)
REMARK    1  A    between atoms: C_1  and  C_2
REMARK    2  A    between atoms: C_4  and  O_28
REMARK    3  A    between atoms: C_5  and  C_25
REMARK    4  A    between atoms: C_7  and  S_8
REMARK    5  A    between atoms: S_8  and  N_11
REMARK    6  A    between atoms: C_13  and  N_22
REMARK    7  A    between atoms: N_22  and  C_23
REMARK    8  A    between atoms: N_22  and  C_24
REMARK                            x       y       z     vdW  Elec       q    Type
REMARK                         _______ _______ _______ _____ _____    ______ ____
ROOT
ATOM      1  S   UNL     1       0.140   0.389   2.757  0.00  0.00    +0.075 S 
ATOM      2  O   UNL     1       0.374  -1.013   2.747  0.00  0.00    -0.150 OA
ATOM      3  O   UNL     1      -0.463   1.069   1.665  0.00  0.00    -0.150 OA
ENDROOT
BRANCH   1   4
ATOM      4  N   UNL     1       1.608   1.112   3.012  0.00  0.00    -0.204 N 
ATOM      5  C   UNL     1       2.754   0.327   3.491  0.00  0.00    +0.117 C 
ATOM      6  C   UNL     1       3.979   0.730   2.659  0.00  0.00    -0.046 C 
ATOM      7  C   UNL     1       4.283   2.207   2.911  0.00  0.00    +0.023 C 
ATOM      8  C   UNL     1       3.044   3.041   2.717  0.00  0.00    -0.026 A 
ATOM      9  C   UNL     1       1.779   2.479   2.769  0.00  0.00    +0.054 A 
ATOM     10  C   UNL     1       0.657   3.279   2.584  0.00  0.00    +0.025 A 
ATOM     11  C   UNL     1       0.804   4.630   2.340  0.00  0.00    +0.002 A 
ATOM     12  C   UNL     1       2.068   5.186   2.280  0.00  0.00    +0.000 A 
ATOM     13  C   UNL     1       3.181   4.397   2.476  0.00  0.00    +0.005 A 
BRANCH   6  14
ATOM     14  N   UNL     1       5.133  -0.088   3.055  0.00  0.00    +0.379 N 
ATOM     15  C   UNL     1       4.831  -1.506   2.824  0.00  0.00    -0.096 C 
ATOM     16  C   UNL     1       6.304   0.300   2.257  0.00  0.00    -0.096 C 
ATOM     17  H   UNL     1       5.330   0.059   4.034  0.00  0.00    -0.082 HD
ENDBRANCH   6  14
ENDBRANCH   1   4
BRANCH   1  24
ATOM     18  C   UNL     1       0.758  -0.616   5.536  0.00  0.00    +0.046 C 
ATOM     19  C   UNL     1      -0.491   0.217   5.408  0.00  0.00    -0.020 A 
ATOM     20  C   UNL     1      -1.261   0.475   6.525  0.00  0.00    +0.051 A 
ATOM     21  C   UNL     1      -2.412   1.240   6.414  0.00  0.00    +0.131 A 
ATOM     22  C   UNL     1      -2.790   1.750   5.162  0.00  0.00    +0.106 A 
ATOM     23  C   UNL     1      -2.000   1.481   4.040  0.00  0.00    +0.048 A 
ATOM     24  C   UNL     1      -0.857   0.723   4.171  0.00  0.00    +0.113 A 
BRANCH  22  25
ATOM     25  C   UNL     1      -4.009   2.563   5.031  0.00  0.00    +0.390 C 
ATOM     26  O   UNL     1      -4.335   3.006   3.938  0.00  0.00    -0.240 OA
ATOM     27  O   UNL     1      -4.698   2.797   6.015  0.00  0.00    -0.240 OA
ENDBRANCH  22  25
BRANCH  21  28
ATOM     28  O   UNL     1      -3.170   1.494   7.510  0.00  0.00    -0.506 OA
ATOM     29  H   UNL     1      -2.919   2.299   7.984  0.00  0.00    +0.292 HD
ENDBRANCH  21  28
ENDBRANCH   1  24
TORSDOF 5
