REMARK  Name = ZINC08791199
REMARK  8 active torsions:
REMARK  status: ('A' for Active; 'I' for Inactive)
REMARK    1  A    between atoms: C_1  and  C_2
REMARK    2  A    between atoms: C_2  and  C_3
REMARK    3  A    between atoms: C_14  and  C_16
REMARK    4  A    between atoms: C_16  and  C_17
REMARK    5  A    between atoms: C_20  and  O_23
REMARK    6  A    between atoms: N_26  and  C_29
REMARK    7  A    between atoms: C_29  and  C_30
REMARK    8  A    between atoms: C_30  and  C_31
REMARK                            x       y       z     vdW  Elec       q    Type
REMARK                         _______ _______ _______ _____ _____    ______ ____
ROOT
ATOM      1  C   UNL     1      -1.367   1.781   3.364  0.00  0.00    -0.047 A 
ATOM      2  C   UNL     1      -0.672   2.701   4.129  0.00  0.00    +0.005 A 
ATOM      3  C   UNL     1       0.063   2.287   5.220  0.00  0.00    +0.024 A 
ATOM      4  C   UNL     1       0.111   0.937   5.561  0.00  0.00    +0.036 A 
ATOM      5  C   UNL     1      -0.592   0.021   4.784  0.00  0.00    -0.027 A 
ATOM      6  C   UNL     1      -1.329   0.439   3.699  0.00  0.00    +0.008 A 
ATOM      7  C   UNL     1      -0.338  -1.324   5.405  0.00  0.00    +0.050 C 
ATOM      8  C   UNL     1       0.321  -2.286   4.408  0.00  0.00    +0.088 C 
ATOM      9  C   UNL     1      -0.288  -3.676   4.744  0.00  0.00    +0.073 C 
ATOM     10  C   UNL     1      -1.244  -3.414   5.927  0.00  0.00    -0.053 C 
ATOM     11  C   UNL     1      -1.104  -3.993   3.492  0.00  0.00    +0.224 C 
ATOM     12  O   UNL     1      -1.769  -4.994   3.326  0.00  0.00    -0.275 OA
ATOM     13  N   UNL     1      -0.968  -3.001   2.605  0.00  0.00    -0.241 N 
ATOM     14  C   UNL     1      -0.186  -1.995   3.013  0.00  0.00    +0.225 C 
ATOM     15  O   UNL     1       0.075  -1.003   2.366  0.00  0.00    -0.275 OA
ATOM     16  C   UNL     1       0.559  -1.049   6.580  0.00  0.00    +0.211 C 
ATOM     17  O   UNL     1       1.004  -1.866   7.358  0.00  0.00    -0.277 OA
ATOM     18  N   UNL     1       0.771   0.281   6.602  0.00  0.00    -0.286 N 
ATOM     19  H   UNL     1       1.320   0.731   7.264  0.00  0.00    +0.155 HD
ATOM     20  N   UNL     1      -1.562  -1.988   5.817  0.00  0.00    +0.394 N 
ATOM     21  H   UNL     1      -2.299  -1.842   5.117  0.00  0.00    -0.083 HD
ATOM     22  H   UNL     1      -1.875  -1.624   6.724  0.00  0.00    -0.083 HD
ENDROOT
BRANCH   1  24
ATOM     23  C   UNL     1      -1.283   2.224   0.926  0.00  0.00    +0.009 C 
ATOM     24  C   UNL     1      -2.168   2.240   2.174  0.00  0.00    +0.032 C 
ENDBRANCH   1  24
BRANCH  10  25
ATOM     25  C   UNL     1      -0.538  -3.696   7.254  0.00  0.00    +0.020 C 
BRANCH  25  26
ATOM     26  C   UNL     1      -0.768  -5.132   7.651  0.00  0.00    -0.049 A 
ATOM     27  C   UNL     1      -1.859  -5.465   8.432  0.00  0.00    +0.007 A 
ATOM     28  C   UNL     1      -2.076  -6.781   8.792  0.00  0.00    +0.045 A 
ATOM     29  C   UNL     1      -1.191  -7.767   8.378  0.00  0.00    +0.117 A 
ATOM     30  C   UNL     1      -0.094  -7.429   7.599  0.00  0.00    +0.045 A 
ATOM     31  C   UNL     1       0.115  -6.112   7.237  0.00  0.00    +0.007 A 
BRANCH  29  32
ATOM     32  O   UNL     1      -1.399  -9.062   8.735  0.00  0.00    -0.507 OA
ATOM     33  H   UNL     1      -0.979  -9.312   9.569  0.00  0.00    +0.292 HD
ENDBRANCH  29  32
ENDBRANCH  25  26
ENDBRANCH  10  25
BRANCH  13  34
ATOM     34  C   UNL     1      -1.620  -3.015   1.293  0.00  0.00    +0.121 C 
BRANCH  34  35
ATOM     35  C   UNL     1      -0.698  -3.684   0.272  0.00  0.00    +0.054 C 
BRANCH  35  36
ATOM     36  C   UNL     1      -1.369  -3.699  -1.077  0.00  0.00    -0.046 A 
ATOM     37  C   UNL     1      -2.161  -4.771  -1.444  0.00  0.00    +0.004 A 
ATOM     38  C   UNL     1      -2.780  -4.782  -2.680  0.00  0.00    +0.000 A 
ATOM     39  C   UNL     1      -2.600  -3.726  -3.553  0.00  0.00    +0.000 A 
ATOM     40  C   UNL     1      -1.804  -2.656  -3.188  0.00  0.00    +0.000 A 
ATOM     41  C   UNL     1      -1.188  -2.642  -1.951  0.00  0.00    +0.004 A 
ENDBRANCH  35  36
ENDBRANCH  34  35
ENDBRANCH  13  34
TORSDOF 7
