REMARK  Name = ZINC20755767
REMARK  9 active torsions:
REMARK  status: ('A' for Active; 'I' for Inactive)
REMARK    1  A    between atoms: C_1  and  C_2
REMARK    2  A    between atoms: C_5  and  N_9
REMARK    3  A    between atoms: C_6  and  C_8
REMARK    4  A    between atoms: N_9  and  S_10
REMARK    5  A    between atoms: S_10  and  C_13
REMARK    6  A    between atoms: C_16  and  N_22
REMARK    7  A    between atoms: C_17  and  N_19
REMARK    8  A    between atoms: N_22  and  N_23
REMARK    9  A    between atoms: C_24  and  C_25
REMARK                            x       y       z     vdW  Elec       q    Type
REMARK                         _______ _______ _______ _____ _____    ______ ____
ROOT
ATOM      1  C   UNL     1       1.414   2.988   1.218  0.00  0.00    +0.111 A 
ATOM      2  C   UNL     1       0.937   4.285   1.268  0.00  0.00    +0.031 A 
ATOM      3  C   UNL     1       1.083   5.033   2.419  0.00  0.00    +0.029 A 
ATOM      4  C   UNL     1       1.719   4.483   3.526  0.00  0.00    +0.079 A 
ATOM      5  C   UNL     1       2.202   3.182   3.471  0.00  0.00    +0.150 A 
ATOM      6  C   UNL     1       2.048   2.438   2.317  0.00  0.00    +0.063 A 
ENDROOT
BRANCH   1   7
ATOM      7  S   UNL     1       1.221   2.036  -0.252  0.00  0.00    +0.072 S 
ATOM      8  O   UNL     1       2.240   1.046  -0.232  0.00  0.00    -0.150 OA
ATOM      9  O   UNL     1       1.080   2.963  -1.320  0.00  0.00    -0.150 OA
BRANCH   7  10
ATOM     10  N   UNL     1      -0.222   1.233  -0.129  0.00  0.00    -0.216 N 
ATOM     11  H   UNL     1      -0.243   0.134  -0.146  0.00  0.00    +0.174 HD
BRANCH  10  16
ATOM     12  C   UNL     1      -5.058   4.151   0.378  0.00  0.00    +0.044 C 
ATOM     13  C   UNL     1      -3.773   3.376   0.244  0.00  0.00    -0.050 A 
ATOM     14  C   UNL     1      -2.749   3.869  -0.545  0.00  0.00    +0.005 A 
ATOM     15  C   UNL     1      -1.570   3.161  -0.670  0.00  0.00    +0.025 A 
ATOM     16  C   UNL     1      -1.413   1.952  -0.004  0.00  0.00    +0.051 A 
ATOM     17  C   UNL     1      -2.445   1.458   0.783  0.00  0.00    -0.028 A 
ATOM     18  C   UNL     1      -3.620   2.174   0.909  0.00  0.00    +0.008 A 
ATOM     19  C   UNL     1      -2.282   0.144   1.504  0.00  0.00    +0.046 C 
ENDBRANCH  10  16
ENDBRANCH   7  10
ENDBRANCH   1   7
BRANCH   5  20
ATOM     20  N   UNL     1       2.880   2.592   4.647  0.00  0.00    +0.058 N 
ATOM     21  O   UNL     1       3.396   1.491   4.565  0.00  0.00    -0.126 OA
ATOM     22  O   UNL     1       2.922   3.207   5.698  0.00  0.00    -0.126 OA
ENDBRANCH   5  20
BRANCH   4  23
ATOM     23  N   UNL     1       1.872   5.237   4.691  0.00  0.00    -0.236 N 
ATOM     24  H   UNL     1       2.294   4.773   5.595  0.00  0.00    +0.174 HD
BRANCH  23  25
ATOM     25  N   UNL     1       1.490   6.585   4.708  0.00  0.00    -0.190 NA
ATOM     26  C   UNL     1       1.632   7.286   5.791  0.00  0.00    +0.144 C 
BRANCH  26  27
ATOM     27  C   UNL     1       1.229   8.704   5.809  0.00  0.00    +0.065 A 
ATOM     28  C   UNL     1       0.699   9.299   4.660  0.00  0.00    +0.135 A 
ATOM     29  C   UNL     1       0.319  10.627   4.687  0.00  0.00    +0.039 A 
ATOM     30  C   UNL     1       0.472  11.371   5.844  0.00  0.00    +0.006 A 
ATOM     31  C   UNL     1       1.002  10.792   6.983  0.00  0.00    +0.039 A 
ATOM     32  C   UNL     1       1.381   9.463   6.974  0.00  0.00    +0.135 A 
ATOM     33  F   UNL     1       1.898   8.899   8.088  0.00  0.00    -0.205 F 
ATOM     34  F   UNL     1       0.552   8.576   3.529  0.00  0.00    -0.205 F 
ENDBRANCH  26  27
ENDBRANCH  23  25
ENDBRANCH   4  23
TORSDOF 7
