REMARK  Name = ZINC66938759
REMARK  5 active torsions:
REMARK  status: ('A' for Active; 'I' for Inactive)
REMARK    1  A    between atoms: C_1  and  C_2
REMARK    2  A    between atoms: C_2  and  C_4
REMARK    3  A    between atoms: C_2  and  N_22
REMARK    4  A    between atoms: C_4  and  C_5
REMARK    5  A    between atoms: C_7  and  C_10
REMARK                            x       y       z     vdW  Elec       q    Type
REMARK                         _______ _______ _______ _____ _____    ______ ____
ROOT
ATOM      1  C   UNL     1      -0.030  -0.130   2.478  0.00  0.00    +0.081 A 
ATOM      2  N   UNL     1      -0.960  -0.811   3.095  0.00  0.00    -0.244 NA
ATOM      3  C   UNL     1      -1.554  -0.341   4.182  0.00  0.00    +0.078 A 
ATOM      4  C   UNL     1      -1.142   0.889   4.620  0.00  0.00    +0.075 A 
ATOM      5  S   UNL     1       0.105   1.272   3.400  0.00  0.00    -0.080 S 
ENDROOT
BRANCH   3   6
ATOM      6  C   UNL     1      -2.611  -1.106   4.888  0.00  0.00    +0.003 A 
ATOM      7  C   UNL     1      -2.927  -2.401   4.476  0.00  0.00    +0.012 A 
ATOM      8  C   UNL     1      -3.909  -3.116   5.129  0.00  0.00    +0.028 A 
ATOM      9  C   UNL     1      -4.585  -2.548   6.199  0.00  0.00    +0.067 A 
ATOM     10  C   UNL     1      -4.273  -1.251   6.616  0.00  0.00    +0.067 A 
ATOM     11  C   UNL     1      -3.284  -0.534   5.964  0.00  0.00    +0.037 A 
ATOM     12  N   UNL     1      -5.107  -0.963   7.694  0.00  0.00    -0.306 N 
ATOM     13  H   UNL     1      -5.122  -0.133   8.194  0.00  0.00    +0.170 HD
ATOM     14  C   UNL     1      -5.891  -2.034   7.922  0.00  0.00    +0.325 A 
ATOM     15  O   UNL     1      -6.734  -2.111   8.795  0.00  0.00    -0.247 OA
ATOM     16  N   UNL     1      -5.600  -3.006   7.037  0.00  0.00    -0.306 N 
ATOM     17  H   UNL     1      -6.024  -3.877   6.990  0.00  0.00    +0.170 HD
ENDBRANCH   3   6
BRANCH   1  18
ATOM     18  C   UNL     1       0.742  -0.511   1.242  0.00  0.00    +0.089 C 
BRANCH  18  20
ATOM     19  C   UNL     1      -0.019   1.526   0.010  0.00  0.00    +0.033 C 
ATOM     20  C   UNL     1       0.002  -0.004   0.002  0.00  0.00    +0.110 C 
BRANCH  20  21
ATOM     21  N   UNL     1       0.688  -0.476  -1.203  0.00  0.00    -0.267 N 
ATOM     22  C   UNL     1       1.744   0.117  -1.801  0.00  0.00    +0.128 A 
ATOM     23  C   UNL     1       2.079  -0.629  -2.880  0.00  0.00    +0.078 A 
ATOM     24  C   UNL     1       1.198  -1.714  -2.943  0.00  0.00    +0.154 A 
ATOM     25  N   UNL     1       0.368  -1.627  -1.936  0.00  0.00    -0.178 NA
ATOM     26 CL   UNL     1       3.373  -0.297  -3.989  0.00  0.00    -0.080 Cl
ENDBRANCH  20  21
ENDBRANCH  18  20
ENDBRANCH   1  18
TORSDOF 4
