REMARK  Name = ZINC22937522
REMARK  6 active torsions:
REMARK  status: ('A' for Active; 'I' for Inactive)
REMARK    1  A    between atoms: N_9  and  C_10
REMARK    2  A    between atoms: C_10  and  C_12
REMARK    3  A    between atoms: C_10  and  N_35
REMARK    4  A    between atoms: C_15  and  C_18
REMARK    5  A    between atoms: C_18  and  N_20
REMARK    6  A    between atoms: C_18  and  N_29
REMARK                            x       y       z     vdW  Elec       q    Type
REMARK                         _______ _______ _______ _____ _____    ______ ____
ROOT
ATOM      1  C   UNL     1      -2.606   3.524  -1.178  0.00  0.00    -0.009 A 
ATOM      2  C   UNL     1      -3.732   2.822  -1.565  0.00  0.00    +0.007 A 
ATOM      3  C   UNL     1      -4.391   3.162  -2.732  0.00  0.00    +0.007 A 
ATOM      4  C   UNL     1      -3.918   4.196  -3.517  0.00  0.00    -0.009 A 
ATOM      5  C   UNL     1      -2.789   4.895  -3.133  0.00  0.00    +0.007 A 
ATOM      6  C   UNL     1      -2.133   4.558  -1.964  0.00  0.00    +0.007 A 
ENDROOT
BRANCH   1   7
ATOM      7  C   UNL     1      -1.890   3.157   0.096  0.00  0.00    +0.210 C 
BRANCH   7  16
ATOM      8  C   UNL     1      -2.926  -1.696   1.861  0.00  0.00    +0.002 A 
ATOM      9  C   UNL     1      -1.891  -1.321   1.013  0.00  0.00    +0.002 A 
ATOM     10  C   UNL     1      -1.742  -0.017   0.632  0.00  0.00    +0.030 A 
ATOM     11  C   UNL     1      -2.633   0.945   1.096  0.00  0.00    +0.091 A 
ATOM     12  C   UNL     1      -3.682   0.572   1.954  0.00  0.00    +0.113 A 
ATOM     13  C   UNL     1      -3.813  -0.771   2.329  0.00  0.00    +0.032 A 
ATOM     14  N   UNL     1      -4.386   1.684   2.248  0.00  0.00    -0.129 NA
ATOM     15  N   UNL     1      -3.874   2.705   1.656  0.00  0.00    -0.063 NA
ATOM     16  N   UNL     1      -2.755   2.302   0.913  0.00  0.00    -0.222 N 
ENDBRANCH   7  16
BRANCH   7  17
ATOM     17  N   UNL     1      -1.563   4.379   0.843  0.00  0.00    -0.281 NA
ATOM     18  C   UNL     1      -2.756   5.216   1.032  0.00  0.00    +0.067 C 
ATOM     19  C   UNL     1      -2.360   6.512   1.742  0.00  0.00    -0.067 C 
ATOM     20  N   UNL     1      -1.737   6.189   3.034  0.00  0.00    +0.381 N 
ATOM     21  C   UNL     1      -0.543   5.353   2.845  0.00  0.00    -0.067 C 
ATOM     22  C   UNL     1      -0.940   4.056   2.134  0.00  0.00    +0.067 C 
ATOM     23  H   UNL     1      -1.440   7.120   3.540  0.00  0.00    -0.086 HD
ATOM     24  H   UNL     1      -2.456   5.643   3.662  0.00  0.00    -0.086 HD
ENDBRANCH   7  17
ENDBRANCH   1   7
BRANCH   4  25
ATOM     25  C   UNL     1      -4.634   4.563  -4.791  0.00  0.00    +0.210 C 
BRANCH  25  26
ATOM     26  N   UNL     1      -5.559   3.488  -5.159  0.00  0.00    -0.222 N 
ATOM     27  C   UNL     1      -6.927   3.499  -5.029  0.00  0.00    +0.091 A 
ATOM     28  C   UNL     1      -7.845   4.430  -4.554  0.00  0.00    +0.030 A 
ATOM     29  C   UNL     1      -9.179   4.132  -4.558  0.00  0.00    +0.002 A 
ATOM     30  C   UNL     1      -9.628   2.906  -5.033  0.00  0.00    +0.002 A 
ATOM     31  C   UNL     1      -8.748   1.976  -5.504  0.00  0.00    +0.032 A 
ATOM     32  C   UNL     1      -7.375   2.257  -5.511  0.00  0.00    +0.113 A 
ATOM     33  N   UNL     1      -6.292   1.556  -5.904  0.00  0.00    -0.129 NA
ATOM     34  N   UNL     1      -5.222   2.246  -5.718  0.00  0.00    -0.063 NA
ENDBRANCH  25  26
BRANCH  25  35
ATOM     35  N   UNL     1      -3.652   4.753  -5.867  0.00  0.00    -0.281 NA
ATOM     36  C   UNL     1      -2.748   3.599  -5.966  0.00  0.00    +0.067 C 
ATOM     37  C   UNL     1      -1.694   3.870  -7.041  0.00  0.00    -0.067 C 
ATOM     38  N   UNL     1      -2.362   4.123  -8.325  0.00  0.00    +0.381 N 
ATOM     39  C   UNL     1      -3.266   5.278  -8.227  0.00  0.00    -0.067 C 
ATOM     40  C   UNL     1      -4.320   5.006  -7.151  0.00  0.00    +0.067 C 
ATOM     41  H   UNL     1      -1.606   4.330  -9.097  0.00  0.00    -0.086 HD
ATOM     42  H   UNL     1      -2.948   3.238  -8.614  0.00  0.00    -0.086 HD
ENDBRANCH  25  35
ENDBRANCH   4  25
TORSDOF 6
