REMARK  Name = ZINC64219855
REMARK  10 active torsions:
REMARK  status: ('A' for Active; 'I' for Inactive)
REMARK    1  A    between atoms: C_1  and  C_2
REMARK    2  A    between atoms: C_2  and  N_3
REMARK    3  A    between atoms: C_4  and  C_6
REMARK    4  A    between atoms: N_14  and  C_15
REMARK    5  A    between atoms: C_15  and  C_16
REMARK    6  A    between atoms: C_16  and  C_17
REMARK    7  A    between atoms: C_17  and  C_18
REMARK    8  A    between atoms: C_18  and  N_19
REMARK    9  A    between atoms: C_21  and  C_26
REMARK   10  A    between atoms: C_23  and  C_25
REMARK                            x       y       z     vdW  Elec       q    Type
REMARK                         _______ _______ _______ _____ _____    ______ ____
ROOT
ATOM      1  C   UNL     1       1.536  -2.283  -2.664  0.00  0.00    +0.092 C 
ATOM      2  C   UNL     1       1.554  -3.814  -2.675  0.00  0.00    +0.016 C 
ATOM      3  C   UNL     1       2.298  -4.308  -3.917  0.00  0.00    +0.020 C 
ATOM      4  C   UNL     1       1.565  -3.825  -5.173  0.00  0.00    +0.109 C 
ATOM      5  N   UNL     1       1.415  -2.365  -5.100  0.00  0.00    -0.285 N 
ATOM      6  C   UNL     1       0.794  -1.777  -3.905  0.00  0.00    +0.122 C 
ATOM      7  C   UNL     1       1.839  -1.580  -6.110  0.00  0.00    +0.302 C 
ATOM      8  O   UNL     1       1.628  -0.383  -6.080  0.00  0.00    -0.253 OA
ATOM      9  N   UNL     1       2.498  -2.122  -7.154  0.00  0.00    -0.299 N 
ATOM     10  H   UNL     1       2.603  -3.084  -7.214  0.00  0.00    +0.150 HD
ENDROOT
BRANCH   1  12
ATOM     11  N   UNL     1       0.692  -0.475  -1.203  0.00  0.00    -0.315 N 
ATOM     12  C   UNL     1       0.831  -1.797  -1.424  0.00  0.00    +0.218 C 
ATOM     13  O   UNL     1       0.390  -2.596  -0.625  0.00  0.00    -0.275 OA
ATOM     14  H   UNL     1       1.045   0.164  -1.842  0.00  0.00    +0.149 HD
BRANCH  11  16
ATOM     15  C   UNL     1      -0.015   1.527   0.011  0.00  0.00    +0.024 C 
ATOM     16  C   UNL     1       0.007  -0.002   0.003  0.00  0.00    +0.101 C 
ENDBRANCH  11  16
ENDBRANCH   1  12
BRANCH   9  17
ATOM     17  C   UNL     1       3.057  -1.258  -8.196  0.00  0.00    +0.105 C 
BRANCH  17  18
ATOM     18  C   UNL     1       3.748  -2.118  -9.256  0.00  0.00    +0.017 C 
BRANCH  18  19
ATOM     19  C   UNL     1       4.331  -1.215 -10.345  0.00  0.00    -0.017 C 
BRANCH  19  20
ATOM     20  C   UNL     1       5.023  -2.075 -11.404  0.00  0.00    -0.079 C 
BRANCH  20  21
ATOM     21  N   UNL     1       5.583  -1.208 -12.450  0.00  0.00    +0.380 N 
ATOM     22  C   UNL     1       6.637  -0.366 -11.872  0.00  0.00    -0.076 C 
ATOM     23  C   UNL     1       7.168   0.595 -12.937  0.00  0.00    -0.031 C 
ATOM     24  C   UNL     1       7.740  -0.212 -14.106  0.00  0.00    +0.003 C 
ATOM     25  C   UNL     1       6.652  -1.140 -14.653  0.00  0.00    -0.031 C 
ATOM     26  C   UNL     1       6.140  -2.038 -13.524  0.00  0.00    -0.076 C 
ATOM     27  C   UNL     1       7.235  -2.008 -15.771  0.00  0.00    +0.005 C 
ATOM     28  C   UNL     1       8.269   1.470 -12.333  0.00  0.00    +0.005 C 
ATOM     29  H   UNL     1       4.853  -0.620 -12.824  0.00  0.00    -0.082 HD
ENDBRANCH  20  21
ENDBRANCH  19  20
ENDBRANCH  18  19
ENDBRANCH  17  18
ENDBRANCH   9  17
TORSDOF 7
