REMARK  Name = ZINC36643441
REMARK  12 active torsions:
REMARK  status: ('A' for Active; 'I' for Inactive)
REMARK    1  A    between atoms: C_1  and  C_2
REMARK    2  A    between atoms: N_8  and  S_9
REMARK    3  A    between atoms: S_9  and  C_12
REMARK    4  A    between atoms: C_15  and  C_18
REMARK    5  A    between atoms: N_20  and  C_21
REMARK    6  A    between atoms: C_21  and  C_22
REMARK    7  A    between atoms: C_22  and  C_23
REMARK    8  A    between atoms: C_23  and  N_24
REMARK    9  A    between atoms: N_24  and  C_25
REMARK   10  A    between atoms: N_24  and  C_26
REMARK   11  A    between atoms: C_30  and  O_36
REMARK   12  A    between atoms: O_36  and  C_37
REMARK                            x       y       z     vdW  Elec       q    Type
REMARK                         _______ _______ _______ _____ _____    ______ ____
ROOT
ATOM      1  C   UNL     1      -2.341   1.496   6.992  0.00  0.00    +0.252 C 
ATOM      2  O   UNL     1      -3.108   2.438   6.938  0.00  0.00    -0.270 OA
ATOM      3  N   UNL     1      -2.240   0.774   8.125  0.00  0.00    -0.246 N 
ATOM      4  C   UNL     1      -3.102   1.019   9.182  0.00  0.00    +0.168 A 
ATOM      5  N   UNL     1      -4.072   1.898   9.266  0.00  0.00    -0.221 NA
ATOM      6  C   UNL     1      -4.840   2.028  10.370  0.00  0.00    +0.122 A 
ATOM      7  C   UNL     1      -5.912   2.931  10.590  0.00  0.00    +0.146 A 
ATOM      8  C   UNL     1      -6.594   2.931  11.784  0.00  0.00    +0.048 A 
ATOM      9  C   UNL     1      -6.261   2.056  12.807  0.00  0.00    +0.005 A 
ATOM     10  C   UNL     1      -5.221   1.164  12.625  0.00  0.00    +0.017 A 
ATOM     11  C   UNL     1      -4.533   1.155  11.436  0.00  0.00    +0.044 A 
ATOM     12  S   UNL     1      -3.179   0.213  10.775  0.00  0.00    -0.052 S 
ENDROOT
BRANCH   1  16
ATOM     13  C   UNL     1       0.019   0.485   3.609  0.00  0.00    +0.106 A 
ATOM     14  C   UNL     1      -1.325   0.770   3.450  0.00  0.00    +0.029 A 
ATOM     15  C   UNL     1      -2.098   1.099   4.545  0.00  0.00    +0.015 A 
ATOM     16  C   UNL     1      -1.520   1.144   5.815  0.00  0.00    +0.037 A 
ATOM     17  C   UNL     1      -0.163   0.854   5.968  0.00  0.00    +0.015 A 
ATOM     18  C   UNL     1       0.597   0.521   4.866  0.00  0.00    +0.029 A 
BRANCH  13  19
ATOM     19  S   UNL     1       0.999   0.065   2.206  0.00  0.00    +0.061 S 
ATOM     20  O   UNL     1       2.356   0.203   2.602  0.00  0.00    -0.153 OA
ATOM     21  O   UNL     1       0.452   0.774   1.102  0.00  0.00    -0.153 OA
BRANCH  19  28
ATOM     22  C   UNL     1       2.521  -1.897   3.565  0.00  0.00    +0.026 C 
ATOM     23  C   UNL     1       1.481  -2.568   2.665  0.00  0.00    +0.077 C 
ATOM     24  C   UNL     1       2.184  -3.512   1.684  0.00  0.00    +0.020 C 
ATOM     25  C   UNL     1       1.157  -4.074   0.698  0.00  0.00    +0.003 C 
ATOM     26  C   UNL     1       0.533  -2.926  -0.100  0.00  0.00    +0.017 C 
ATOM     27  C   UNL     1      -0.189  -1.976   0.861  0.00  0.00    +0.110 C 
ATOM     28  N   UNL     1       0.755  -1.544   1.902  0.00  0.00    -0.174 NA
ENDBRANCH  19  28
ENDBRANCH  13  19
ENDBRANCH   1  16
BRANCH   7  29
ATOM     29  O   UNL     1      -6.268   3.804   9.610  0.00  0.00    -0.493 OA
ATOM     30  C   UNL     1      -7.356   4.687   9.893  0.00  0.00    +0.277 C 
ENDBRANCH   7  29
BRANCH   3  31
ATOM     31  C   UNL     1      -1.220  -0.271   8.239  0.00  0.00    +0.114 C 
BRANCH  31  32
ATOM     32  C   UNL     1      -0.016   0.274   9.010  0.00  0.00    +0.001 C 
BRANCH  32  33
ATOM     33  C   UNL     1       1.111  -0.761   8.995  0.00  0.00    -0.078 C 
BRANCH  33  34
ATOM     34  N   UNL     1       2.266  -0.238   9.736  0.00  0.00    +0.376 N 
ATOM     35  C   UNL     1       3.302  -1.276   9.825  0.00  0.00    -0.097 C 
ATOM     36  C   UNL     1       2.807   0.935   9.035  0.00  0.00    -0.097 C 
ATOM     37  H   UNL     1       1.978   0.030  10.665  0.00  0.00    -0.083 HD
ENDBRANCH  33  34
ENDBRANCH  32  33
ENDBRANCH  31  32
ENDBRANCH   3  31
TORSDOF 8
