REMARK  Name = ZINC22985009
REMARK  7 active torsions:
REMARK  status: ('A' for Active; 'I' for Inactive)
REMARK    1  A    between atoms: C_1  and  C_2
REMARK    2  A    between atoms: N_13  and  C_16
REMARK    3  A    between atoms: C_16  and  C_17
REMARK    4  A    between atoms: N_19  and  C_20
REMARK    5  A    between atoms: C_21  and  C_28
REMARK    6  A    between atoms: C_28  and  O_30
REMARK    7  A    between atoms: O_30  and  C_31
REMARK                            x       y       z     vdW  Elec       q    Type
REMARK                         _______ _______ _______ _____ _____    ______ ____
ROOT
ATOM      1  C   UNL     1      -1.265  -0.739   0.010  0.00  0.00    +0.222 C 
ENDROOT
BRANCH   1  13
ATOM      2  C   UNL     1       2.417   7.709  -0.062  0.00  0.00    +0.008 C 
ATOM      3  C   UNL     1       2.045   6.255  -0.356  0.00  0.00    -0.009 C 
ATOM      4  C   UNL     1       0.833   5.854   0.491  0.00  0.00    +0.008 C 
ATOM      5  C   UNL     1       0.300   4.498   0.025  0.00  0.00    +0.037 C 
ATOM      6  C   UNL     1       1.451   3.497   0.007  0.00  0.00    -0.023 A 
ATOM      7  C   UNL     1       2.733   3.919  -0.003  0.00  0.00    -0.004 A 
ATOM      8  S   UNL     1       3.705   2.437  -0.020  0.00  0.00    -0.073 S 
ATOM      9  C   UNL     1       2.384   1.252  -0.015  0.00  0.00    +0.116 A 
ATOM     10  C   UNL     1       1.229   2.051   0.001  0.00  0.00    +0.076 A 
ATOM     11  C   UNL     1      -0.016   1.342   0.009  0.00  0.00    +0.263 A 
ATOM     12  O   UNL     1      -1.074   1.947   0.018  0.00  0.00    -0.267 OA
ATOM     13  N   UNL     1       0.002  -0.004   0.002  0.00  0.00    -0.290 N 
ATOM     14  C   UNL     1       1.171  -0.695  -0.013  0.00  0.00    +0.203 A 
ATOM     15  N   UNL     1       2.322  -0.076  -0.021  0.00  0.00    -0.230 NA
ATOM     16  C   UNL     1       3.221   5.336   0.001  0.00  0.00    +0.046 C 
ENDBRANCH   1  13
BRANCH   1  17
ATOM     17  C   UNL     1      -1.713  -0.983  -1.408  0.00  0.00    +0.238 C 
ATOM     18  O   UNL     1      -1.040  -0.583  -2.334  0.00  0.00    -0.273 OA
ATOM     19  N   UNL     1      -2.861  -1.647  -1.647  0.00  0.00    -0.278 N 
ATOM     20  H   UNL     1      -3.472  -2.010  -0.808  0.00  0.00    +0.155 HD
BRANCH  19  21
ATOM     21  C   UNL     1      -3.273  -1.871  -2.952  0.00  0.00    +0.086 A 
ATOM     22  C   UNL     1      -4.408  -2.531  -3.395  0.00  0.00    +0.091 A 
ATOM     23  C   UNL     1      -4.613  -2.628  -4.840  0.00  0.00    -0.021 A 
ATOM     24  C   UNL     1      -3.653  -2.063  -5.593  0.00  0.00    -0.004 A 
ATOM     25  S   UNL     1      -2.491  -1.403  -4.423  0.00  0.00    -0.077 S 
ATOM     26  C   UNL     1      -3.932  -2.206  -7.064  0.00  0.00    +0.043 C 
ATOM     27  C   UNL     1      -5.431  -2.568  -7.143  0.00  0.00    +0.010 C 
ATOM     28  C   UNL     1      -5.666  -3.231  -5.771  0.00  0.00    +0.037 C 
BRANCH  22  29
ATOM     29  C   UNL     1      -5.369  -3.106  -2.451  0.00  0.00    +0.342 C 
ATOM     30  O   UNL     1      -6.301  -2.437  -2.048  0.00  0.00    -0.245 OA
BRANCH  29  31
ATOM     31  O   UNL     1      -5.220  -4.379  -2.029  0.00  0.00    -0.464 OA
ATOM     32  C   UNL     1      -6.210  -4.883  -1.094  0.00  0.00    +0.280 C 
ENDBRANCH  29  31
ENDBRANCH  22  29
ENDBRANCH  19  21
ENDBRANCH   1  17
TORSDOF 5
