REMARK  Name = ZINC67633689
REMARK  9 active torsions:
REMARK  status: ('A' for Active; 'I' for Inactive)
REMARK    1  A    between atoms: C_1  and  C_2
REMARK    2  A    between atoms: C_4  and  C_18
REMARK    3  A    between atoms: C_5  and  C_17
REMARK    4  A    between atoms: N_6  and  C_7
REMARK    5  A    between atoms: N_20  and  C_21
REMARK    6  A    between atoms: C_21  and  C_22
REMARK    7  A    between atoms: N_26  and  C_28
REMARK    8  A    between atoms: C_28  and  C_29
REMARK    9  A    between atoms: C_28  and  C_30
REMARK                            x       y       z     vdW  Elec       q    Type
REMARK                         _______ _______ _______ _____ _____    ______ ____
ROOT
ATOM      1  C   UNL     1      -0.018   1.503   0.010  0.00  0.00    +0.064 C 
ATOM      2  C   UNL     1       0.002  -0.004   0.002  0.00  0.00    +0.022 A 
ATOM      3  C   UNL     1       0.008  -0.780  -1.096  0.00  0.00    +0.036 A 
ATOM      4  C   UNL     1       0.030  -2.168  -0.621  0.00  0.00    +0.058 A 
ATOM      5  C   UNL     1       0.035  -2.103   0.745  0.00  0.00    +0.033 A 
ATOM      6  N   UNL     1       0.024  -0.805   1.109  0.00  0.00    -0.317 N 
ATOM      7  C   UNL     1       0.055  -3.282   1.684  0.00  0.00    +0.064 C 
ENDROOT
BRANCH   6   8
ATOM      8  C   UNL     1       0.029  -0.343   2.433  0.00  0.00    +0.050 A 
ATOM      9  C   UNL     1       1.132  -0.573   3.245  0.00  0.00    +0.030 A 
ATOM     10  C   UNL     1       1.138  -0.119   4.549  0.00  0.00    +0.051 A 
ATOM     11  C   UNL     1       0.043   0.569   5.053  0.00  0.00    +0.162 A 
ATOM     12  C   UNL     1      -1.062   0.802   4.242  0.00  0.00    +0.164 A 
ATOM     13  C   UNL     1      -1.065   0.349   2.932  0.00  0.00    +0.075 A 
ATOM     14  O   UNL     1      -2.142   1.482   4.716  0.00  0.00    -0.485 OA
ATOM     15  C   UNL     1      -2.256   1.599   6.138  0.00  0.00    +0.270 C 
ATOM     16  C   UNL     1      -0.888   2.013   6.697  0.00  0.00    +0.270 C 
ATOM     17  O   UNL     1       0.065   1.005   6.342  0.00  0.00    -0.485 OA
ENDBRANCH   6   8
BRANCH   4  18
ATOM     18  C   UNL     1       0.043  -3.386  -1.449  0.00  0.00    +0.246 C 
ATOM     19  O   UNL     1       0.060  -4.481  -0.919  0.00  0.00    -0.270 OA
ATOM     20  N   UNL     1       0.035  -3.288  -2.793  0.00  0.00    -0.311 N 
ATOM     21  H   UNL     1       0.022  -2.414  -3.215  0.00  0.00    +0.149 HD
BRANCH  20  22
ATOM     22  C   UNL     1       0.049  -4.499  -3.616  0.00  0.00    +0.106 C 
BRANCH  22  23
ATOM     23  C   UNL     1       0.036  -4.111  -5.096  0.00  0.00    -0.012 C 
ATOM     24  C   UNL     1       1.379  -3.445  -5.499  0.00  0.00    -0.015 C 
ATOM     25  C   UNL     1       1.440  -3.757  -7.016  0.00  0.00    -0.078 C 
ATOM     26  N   UNL     1       0.872  -5.116  -7.144  0.00  0.00    +0.381 N 
ATOM     27  C   UNL     1      -0.016  -5.367  -5.990  0.00  0.00    -0.074 C 
ATOM     28  H   UNL     1       1.617  -5.796  -7.157  0.00  0.00    -0.081 HD
BRANCH  26  29
ATOM     29  C   UNL     1       0.097  -5.212  -8.389  0.00  0.00    -0.075 C 
ATOM     30  C   UNL     1       1.019  -4.964  -9.584  0.00  0.00    -0.014 C 
ATOM     31  C   UNL     1      -0.518  -6.608  -8.501  0.00  0.00    -0.014 C 
ENDBRANCH  26  29
ENDBRANCH  22  23
ENDBRANCH  20  22
ENDBRANCH   4  18
TORSDOF 5
