REMARK  Name = ZINC49060953
REMARK  3 active torsions:
REMARK  status: ('A' for Active; 'I' for Inactive)
REMARK    1  A    between atoms: C_4  and  S_7
REMARK    2  A    between atoms: S_7  and  N_10
REMARK    3  A    between atoms: N_10  and  C_11
REMARK                            x       y       z     vdW  Elec       q    Type
REMARK                         _______ _______ _______ _____ _____    ______ ____
ROOT
ATOM      1  N   UNL     1       3.173  -2.560  -0.043  0.00  0.00    -0.187 NA
ATOM      2  H   UNL     1       3.608  -2.962  -0.811  0.00  0.00    +0.148 HD
ENDROOT
BRANCH   1   3
ATOM      3  C   UNL     1       3.972  -2.115   1.101  0.00  0.00    +0.074 C 
ATOM      4  C   UNL     1       4.221  -3.297   2.042  0.00  0.00    +0.001 C 
ATOM      5  C   UNL     1       5.087  -2.840   3.217  0.00  0.00    -0.080 C 
ATOM      6  N   UNL     1       6.388  -2.374   2.720  0.00  0.00    +0.383 N 
ATOM      7  C   UNL     1       6.192  -1.238   1.815  0.00  0.00    -0.067 C 
ATOM      8  C   UNL     1       5.319  -1.574   0.608  0.00  0.00    +0.008 C 
ATOM      9  C   UNL     1       7.495  -0.518   1.444  0.00  0.00    -0.012 C 
ATOM     10  C   UNL     1       6.710   0.798   1.576  0.00  0.00    -0.003 C 
ATOM     11  C   UNL     1       5.767   0.050   2.533  0.00  0.00    -0.012 C 
ATOM     12  H   UNL     1       6.963  -2.088   3.498  0.00  0.00    -0.085 HD
ATOM     13  H   UNL     1       6.846  -3.124   2.223  0.00  0.00    -0.085 HD
ENDBRANCH   1   3
BRANCH   1  14
ATOM     14  S   UNL     1       1.527  -2.376  -0.026  0.00  0.00    +0.066 S 
ATOM     15  O   UNL     1       1.075  -2.885   1.220  0.00  0.00    -0.153 OA
ATOM     16  O   UNL     1       1.050  -2.870  -1.270  0.00  0.00    -0.153 OA
BRANCH  14  20
ATOM     17  C   UNL     1      -0.017   1.379   0.010  0.00  0.00    +0.025 A 
ATOM     18  C   UNL     1       1.160   2.052   0.002  0.00  0.00    +0.048 A 
ATOM     19  S   UNL     1       2.348   0.720  -0.017  0.00  0.00    -0.076 S 
ATOM     20  C   UNL     1       1.197  -0.645  -0.013  0.00  0.00    +0.156 A 
ATOM     21  C   UNL     1       0.002  -0.004   0.002  0.00  0.00    +0.051 A 
ATOM     22 BR   UNL     1      -1.614  -0.986   0.013  0.00  0.00    -0.048 Br
ENDBRANCH  14  20
ENDBRANCH   1  14
TORSDOF 3
