REMARK  Name = ZINC35969120
REMARK  9 active torsions:
REMARK  status: ('A' for Active; 'I' for Inactive)
REMARK    1  A    between atoms: C_2  and  C_3
REMARK    2  A    between atoms: C_3  and  N_4
REMARK    3  A    between atoms: C_7  and  C_12
REMARK    4  A    between atoms: N_21  and  C_23
REMARK    5  A    between atoms: C_23  and  C_25
REMARK    6  A    between atoms: C_23  and  C_32
REMARK    7  A    between atoms: C_25  and  C_26
REMARK    8  A    between atoms: N_34  and  C_35
REMARK    9  A    between atoms: C_35  and  C_36
REMARK                            x       y       z     vdW  Elec       q    Type
REMARK                         _______ _______ _______ _____ _____    ______ ____
ROOT
ATOM      1  N   UNL     1       1.367  -1.676   1.111  0.00  0.00    -0.253 N 
ATOM      2  C   UNL     1       1.872  -1.230   2.300  0.00  0.00    +0.043 C 
ATOM      3  C   UNL     1       1.946  -2.039   3.375  0.00  0.00    +0.058 C 
ATOM      4  C   UNL     1       1.450  -3.463   3.221  0.00  0.00    +0.142 C 
ATOM      5  N   UNL     1       0.924  -3.846   1.900  0.00  0.00    -0.288 N 
ATOM      6  C   UNL     1       0.911  -2.920   0.921  0.00  0.00    +0.307 C 
ATOM      7  O   UNL     1       0.474  -3.226  -0.172  0.00  0.00    -0.252 OA
ATOM      8  C   UNL     1       2.501  -1.348   4.472  0.00  0.00    +0.247 C 
ATOM      9  O   UNL     1       2.685  -1.837   5.572  0.00  0.00    -0.270 OA
ATOM     10  N   UNL     1       2.802  -0.078   4.144  0.00  0.00    -0.280 N 
ATOM     11  C   UNL     1       2.428   0.108   2.734  0.00  0.00    +0.160 C 
ATOM     12  H   UNL     1       0.592  -4.743   1.740  0.00  0.00    +0.151 HD
ENDROOT
BRANCH   4  13
ATOM     13  C   UNL     1       2.590  -4.391   3.554  0.00  0.00    -0.020 A 
ATOM     14  C   UNL     1       3.573  -4.643   2.615  0.00  0.00    +0.006 A 
ATOM     15  C   UNL     1       4.618  -5.494   2.919  0.00  0.00    +0.003 A 
ATOM     16  C   UNL     1       4.682  -6.095   4.162  0.00  0.00    +0.038 A 
ATOM     17  C   UNL     1       3.699  -5.843   5.104  0.00  0.00    +0.124 A 
ATOM     18  C   UNL     1       2.655  -4.985   4.800  0.00  0.00    +0.044 A 
ATOM     19  F   UNL     1       3.760  -6.430   6.319  0.00  0.00    -0.205 F 
ENDBRANCH   4  13
BRANCH   1  20
ATOM     20  C   UNL     1       1.317  -0.740  -0.015  0.00  0.00    +0.141 C 
BRANCH  20  22
ATOM     21  C   UNL     1      -0.016   1.306   0.009  0.00  0.00    +0.005 C 
ATOM     22  C   UNL     1       0.002  -0.004   0.002  0.00  0.00    -0.015 C 
ENDBRANCH  20  22
ENDBRANCH   1  20
BRANCH  10  23
ATOM     23  C   UNL     1       3.391   0.931   5.028  0.00  0.00    +0.167 C 
BRANCH  23  24
ATOM     24  C   UNL     1       2.481   1.160   6.206  0.00  0.00    +0.234 C 
ATOM     25  O   UNL     1       1.442   0.541   6.300  0.00  0.00    -0.274 OA
ATOM     26  N   UNL     1       2.821   2.052   7.157  0.00  0.00    -0.311 N 
ATOM     27  H   UNL     1       3.652   2.547   7.083  0.00  0.00    +0.149 HD
BRANCH  26  28
ATOM     28  C   UNL     1       1.936   2.275   8.303  0.00  0.00    +0.135 C 
BRANCH  28  29
ATOM     29  C   UNL     1       2.551   3.329   9.226  0.00  0.00    +0.135 C 
ATOM     30  C   UNL     1       1.687   3.483  10.495  0.00  0.00    +0.035 C 
ATOM     31  C   UNL     1       1.728   5.016  10.738  0.00  0.00    +0.031 C 
ATOM     32  C   UNL     1       1.769   5.544   9.282  0.00  0.00    +0.160 C 
ATOM     33  O   UNL     1       2.580   4.598   8.563  0.00  0.00    -0.375 OA
ENDBRANCH  28  29
ENDBRANCH  26  28
ENDBRANCH  23  24
BRANCH  23  34
ATOM     34  C   UNL     1       4.754   0.442   5.523  0.00  0.00    +0.067 C 
BRANCH  34  35
ATOM     35  C   UNL     1       5.702   0.330   4.357  0.00  0.00    -0.045 A 
ATOM     36  C   UNL     1       5.788  -0.853   3.647  0.00  0.00    +0.004 A 
ATOM     37  C   UNL     1       6.658  -0.956   2.578  0.00  0.00    +0.000 A 
ATOM     38  C   UNL     1       7.441   0.125   2.217  0.00  0.00    +0.000 A 
ATOM     39  C   UNL     1       7.354   1.308   2.927  0.00  0.00    +0.000 A 
ATOM     40  C   UNL     1       6.481   1.412   3.994  0.00  0.00    +0.004 A 
ENDBRANCH  34  35
ENDBRANCH  23  34
ENDBRANCH  10  23
TORSDOF 9
