REMARK  Name = ZINC36245246
REMARK  8 active torsions:
REMARK  status: ('A' for Active; 'I' for Inactive)
REMARK    1  A    between atoms: C_1  and  C_2
REMARK    2  A    between atoms: C_10  and  C_12
REMARK    3  A    between atoms: C_12  and  O_13
REMARK    4  A    between atoms: O_13  and  C_14
REMARK    5  A    between atoms: C_14  and  C_16
REMARK    6  A    between atoms: C_19  and  O_22
REMARK    7  A    between atoms: O_22  and  C_23
REMARK    8  A    between atoms: C_28  and  N_29
REMARK                            x       y       z     vdW  Elec       q    Type
REMARK                         _______ _______ _______ _____ _____    ______ ____
ROOT
ATOM      1  C   UNL     1       0.146  -2.346   8.207  0.00  0.00    +0.059 A 
ATOM      2  C   UNL     1       0.183  -0.949   8.231  0.00  0.00    +0.018 A 
ATOM      3  C   UNL     1       0.174  -0.282   9.435  0.00  0.00    +0.047 A 
ATOM      4  C   UNL     1       0.127  -0.997  10.627  0.00  0.00    +0.129 A 
ATOM      5  C   UNL     1       0.090  -2.387  10.608  0.00  0.00    +0.047 A 
ATOM      6  C   UNL     1       0.094  -3.061   9.407  0.00  0.00    +0.018 A 
ENDROOT
BRANCH   1   7
ATOM      7  C   UNL     1       0.155  -3.064   6.919  0.00  0.00    +0.340 C 
ATOM      8  O   UNL     1       0.118  -4.278   6.900  0.00  0.00    -0.245 OA
BRANCH   7   9
ATOM      9  O   UNL     1       0.205  -2.373   5.763  0.00  0.00    -0.455 OA
BRANCH   9  10
ATOM     10  C   UNL     1       0.211  -3.133   4.553  0.00  0.00    +0.285 C 
BRANCH  10  20
ATOM     11  C   UNL     1       0.475   1.702   0.048  0.00  0.00    +0.064 C 
ATOM     12  C   UNL     1       0.429   0.196   0.013  0.00  0.00    +0.033 A 
ATOM     13  C   UNL     1       0.444  -0.433  -1.162  0.00  0.00    +0.070 A 
ATOM     14  S   UNL     1       0.375  -2.146  -0.660  0.00  0.00    -0.059 S 
ATOM     15  C   UNL     1       0.332  -1.871   1.098  0.00  0.00    +0.158 A 
ATOM     16  N   UNL     1       0.377  -0.506   1.193  0.00  0.00    -0.261 N 
ATOM     17  C   UNL     1       0.362   0.017   2.455  0.00  0.00    +0.259 A 
ATOM     18  O   UNL     1       0.395   1.227   2.616  0.00  0.00    -0.267 OA
ATOM     19  C   UNL     1       0.308  -0.833   3.560  0.00  0.00    +0.095 A 
ATOM     20  C   UNL     1       0.270  -2.198   3.372  0.00  0.00    +0.061 A 
ATOM     21  N   UNL     1       0.276  -2.675   2.130  0.00  0.00    -0.336 N 
ATOM     22  H   UNL     1       0.250  -3.634   1.988  0.00  0.00    +0.168 HD
ENDBRANCH  10  20
ENDBRANCH   9  10
ENDBRANCH   7   9
ENDBRANCH   1   7
BRANCH   4  23
ATOM     23  O   UNL     1       0.119  -0.337  11.812  0.00  0.00    -0.454 OA
BRANCH  23  24
ATOM     24  C   UNL     1      -0.979   0.403  12.123  0.00  0.00    +0.159 A 
ATOM     25  C   UNL     1      -2.097   0.364  11.303  0.00  0.00    +0.050 A 
ATOM     26  C   UNL     1      -3.211   1.116  11.620  0.00  0.00    +0.024 A 
ATOM     27  C   UNL     1      -3.213   1.908  12.755  0.00  0.00    +0.043 A 
ATOM     28  C   UNL     1      -2.098   1.948  13.574  0.00  0.00    +0.056 A 
ATOM     29  C   UNL     1      -0.984   1.193  13.263  0.00  0.00    +0.170 A 
ATOM     30 CL   UNL     1      -4.614   2.853  13.151  0.00  0.00    -0.083 Cl
BRANCH  29  31
ATOM     31  N   UNL     1       0.205   1.231  14.143  0.00  0.00    +0.060 N 
ATOM     32  O   UNL     1       0.201   1.920  15.137  0.00  0.00    -0.126 OA
ATOM     33  O   UNL     1       1.182   0.574  13.868  0.00  0.00    -0.126 OA
ENDBRANCH  29  31
ENDBRANCH  23  24
ENDBRANCH   4  23
TORSDOF 7
