REMARK  Name = ZINC37376680
REMARK  6 active torsions:
REMARK  status: ('A' for Active; 'I' for Inactive)
REMARK    1  A    between atoms: C_1  and  C_2
REMARK    2  A    between atoms: C_2  and  C_3
REMARK    3  A    between atoms: C_2  and  C_4
REMARK    4  A    between atoms: C_7  and  C_10
REMARK    5  A    between atoms: C_12  and  N_26
REMARK    6  A    between atoms: N_13  and  C_25
REMARK                            x       y       z     vdW  Elec       q    Type
REMARK                         _______ _______ _______ _____ _____    ______ ____
ROOT
ATOM      1  C   UNL     1      -5.633  -1.443   0.081  0.00  0.00    +0.089 A 
ATOM      2  C   UNL     1      -6.263  -1.808  -1.129  0.00  0.00    +0.086 A 
ATOM      3  C   UNL     1      -5.947  -1.728  -2.480  0.00  0.00    +0.126 A 
ATOM      4  N   UNL     1      -6.974  -2.256  -3.168  0.00  0.00    -0.251 N 
ATOM      5  N   UNL     1      -7.970  -2.686  -2.284  0.00  0.00    -0.149 NA
ATOM      6  C   UNL     1      -7.592  -2.441  -1.049  0.00  0.00    +0.188 A 
ATOM      7  N   UNL     1      -8.126  -2.632   0.173  0.00  0.00    -0.193 NA
ATOM      8  C   UNL     1      -7.468  -2.260   1.251  0.00  0.00    +0.220 A 
ATOM      9  N   UNL     1      -6.266  -1.693   1.220  0.00  0.00    -0.214 NA
ATOM     10  N   UNL     1      -8.056  -2.478   2.484  0.00  0.00    -0.298 N 
ATOM     11  C   UNL     1      -7.354  -2.071   3.702  0.00  0.00    +0.118 C 
ATOM     12  C   UNL     1      -8.134  -0.944   4.389  0.00  0.00    +0.088 C 
ATOM     13  S   UNL     1      -9.821  -1.528   4.730  0.00  0.00    -0.158 S 
ATOM     14  C   UNL     1     -10.394  -2.108   3.105  0.00  0.00    +0.088 C 
ATOM     15  C   UNL     1      -9.376  -3.106   2.554  0.00  0.00    +0.118 C 
ATOM     16  C   UNL     1      -7.042  -2.364  -4.628  0.00  0.00    +0.174 C 
ENDROOT
BRANCH   1  20
ATOM     17  C   UNL     1      -1.799   0.392   0.075  0.00  0.00    -0.045 A 
ATOM     18  C   UNL     1      -2.068  -0.638   0.958  0.00  0.00    +0.004 A 
ATOM     19  C   UNL     1      -3.311  -1.238   0.965  0.00  0.00    +0.010 A 
ATOM     20  C   UNL     1      -4.297  -0.803   0.079  0.00  0.00    +0.001 A 
ATOM     21  C   UNL     1      -4.019   0.236  -0.809  0.00  0.00    +0.010 A 
ATOM     22  C   UNL     1      -2.775   0.831  -0.803  0.00  0.00    +0.004 A 
BRANCH  17  24
ATOM     23  C   UNL     1      -0.161   1.645   1.450  0.00  0.00    +0.012 C 
ATOM     24  C   UNL     1      -0.440   1.042   0.072  0.00  0.00    +0.013 C 
ATOM     25  C   UNL     1       0.626  -0.006  -0.251  0.00  0.00    +0.012 C 
ENDBRANCH  17  24
ENDBRANCH   1  20
BRANCH   3  26
ATOM     26  N   UNL     1      -4.788  -1.201  -3.019  0.00  0.00    -0.343 N 
ATOM     27  H   UNL     1      -4.000  -1.094  -2.463  0.00  0.00    +0.144 HD
ATOM     28  H   UNL     1      -4.763  -0.938  -3.952  0.00  0.00    +0.144 HD
ENDBRANCH   3  26
TORSDOF 3
