REMARK  Name = ZINC40729214
REMARK  11 active torsions:
REMARK  status: ('A' for Active; 'I' for Inactive)
REMARK    1  A    between atoms: C_1  and  C_2
REMARK    2  A    between atoms: C_2  and  N_3
REMARK    3  A    between atoms: N_3  and  C_4
REMARK    4  A    between atoms: N_3  and  S_6
REMARK    5  A    between atoms: C_4  and  C_5
REMARK    6  A    between atoms: S_6  and  C_9
REMARK    7  A    between atoms: C_12  and  N_15
REMARK    8  A    between atoms: C_17  and  N_35
REMARK    9  A    between atoms: C_18  and  N_22
REMARK   10  A    between atoms: C_25  and  C_28
REMARK   11  A    between atoms: C_28  and  C_29
REMARK                            x       y       z     vdW  Elec       q    Type
REMARK                         _______ _______ _______ _____ _____    ______ ____
ROOT
ATOM      1  N   UNL     1      -0.693   4.036  -5.831  0.00  0.00    -0.298 N 
ATOM      2  C   UNL     1       0.316   4.383  -6.723  0.00  0.00    +0.149 A 
ATOM      3  C   UNL     1       0.261   5.592  -7.420  0.00  0.00    +0.106 A 
ATOM      4  C   UNL     1       1.300   5.891  -8.303  0.00  0.00    +0.147 A 
ATOM      5  N   UNL     1       2.296   5.019  -8.446  0.00  0.00    -0.219 NA
ATOM      6  C   UNL     1       2.309   3.889  -7.769  0.00  0.00    +0.225 A 
ATOM      7  N   UNL     1       1.351   3.571  -6.922  0.00  0.00    -0.219 NA
ATOM      8  H   UNL     1      -1.486   4.590  -5.756  0.00  0.00    +0.154 HD
ENDROOT
BRANCH   1  12
ATOM      9  C   UNL     1      -0.310   0.620  -3.480  0.00  0.00    +0.106 A 
ATOM     10  C   UNL     1       0.820   1.274  -3.936  0.00  0.00    +0.030 A 
ATOM     11  C   UNL     1       0.697   2.407  -4.716  0.00  0.00    +0.025 A 
ATOM     12  C   UNL     1      -0.565   2.889  -5.043  0.00  0.00    +0.033 A 
ATOM     13  C   UNL     1      -1.698   2.230  -4.583  0.00  0.00    +0.025 A 
ATOM     14  C   UNL     1      -1.567   1.095  -3.808  0.00  0.00    +0.030 A 
BRANCH   9  15
ATOM     15  S   UNL     1      -0.148  -0.825  -2.484  0.00  0.00    +0.061 S 
ATOM     16  O   UNL     1      -1.351  -0.940  -1.737  0.00  0.00    -0.153 OA
ATOM     17  O   UNL     1       1.129  -0.750  -1.865  0.00  0.00    -0.153 OA
BRANCH  15  18
ATOM     18  N   UNL     1      -0.101  -2.123  -3.510  0.00  0.00    -0.177 NA
BRANCH  18  20
ATOM     19  C   UNL     1       1.444  -1.973  -5.400  0.00  0.00    +0.022 C 
ATOM     20  C   UNL     1       1.183  -2.601  -4.029  0.00  0.00    +0.106 C 
ENDBRANCH  18  20
BRANCH  18  21
ATOM     21  C   UNL     1      -1.344  -2.795  -3.899  0.00  0.00    +0.106 C 
ATOM     22  C   UNL     1      -1.585  -3.994  -2.980  0.00  0.00    +0.022 C 
ENDBRANCH  18  21
ENDBRANCH  15  18
ENDBRANCH   9  15
ENDBRANCH   1  12
BRANCH   4  23
ATOM     23  N   UNL     1       1.295   7.080  -9.021  0.00  0.00    -0.314 N 
ATOM     24  C   UNL     1       1.832   8.314  -8.431  0.00  0.00    +0.107 C 
ATOM     25  C   UNL     1       2.877   8.902  -9.384  0.00  0.00    +0.023 C 
ATOM     26  C   UNL     1       2.253   9.088 -10.769  0.00  0.00    -0.004 C 
ATOM     27  C   UNL     1       1.810   7.729 -11.317  0.00  0.00    +0.023 C 
ATOM     28  C   UNL     1       0.757   7.127 -10.388  0.00  0.00    +0.107 C 
BRANCH  26  29
ATOM     29  C   UNL     1       3.284   9.707 -11.714  0.00  0.00    +0.038 C 
BRANCH  29  30
ATOM     30  C   UNL     1       2.635  10.003 -13.041  0.00  0.00    -0.047 A 
ATOM     31  C   UNL     1       2.631   9.045 -14.038  0.00  0.00    +0.003 A 
ATOM     32  C   UNL     1       2.035   9.317 -15.255  0.00  0.00    +0.000 A 
ATOM     33  C   UNL     1       1.444  10.547 -15.476  0.00  0.00    +0.000 A 
ATOM     34  C   UNL     1       1.447  11.504 -14.479  0.00  0.00    +0.000 A 
ATOM     35  C   UNL     1       2.039  11.231 -13.260  0.00  0.00    +0.003 A 
ENDBRANCH  29  30
ENDBRANCH  26  29
ENDBRANCH   4  23
BRANCH   3  36
ATOM     36  N   UNL     1      -0.810   6.481  -7.238  0.00  0.00    -0.353 N 
ATOM     37  H   UNL     1      -1.487   6.295  -6.569  0.00  0.00    +0.143 HD
ATOM     38  H   UNL     1      -0.873   7.282  -7.781  0.00  0.00    +0.143 HD
ENDBRANCH   3  36
TORSDOF 9
