REMARK  Name = ZINC20368497
REMARK  5 active torsions:
REMARK  status: ('A' for Active; 'I' for Inactive)
REMARK    1  A    between atoms: C_3  and  N_19
REMARK    2  A    between atoms: C_5  and  S_7
REMARK    3  A    between atoms: S_7  and  N_10
REMARK    4  A    between atoms: N_10  and  C_11
REMARK    5  A    between atoms: C_16  and  O_17
REMARK                            x       y       z     vdW  Elec       q    Type
REMARK                         _______ _______ _______ _____ _____    ______ ____
ROOT
ATOM      1  S   UNL     1      -0.129   5.696   0.059  0.00  0.00    +0.073 S 
ATOM      2  O   UNL     1      -1.371   6.160   0.569  0.00  0.00    -0.150 OA
ATOM      3  O   UNL     1       1.119   6.100   0.606  0.00  0.00    -0.150 OA
ENDROOT
BRANCH   1   8
ATOM      4  C   UNL     1       0.972   1.838   0.279  0.00  0.00    +0.004 A 
ATOM      5  C   UNL     1      -0.242   1.177   0.299  0.00  0.00    +0.033 A 
ATOM      6  C   UNL     1      -1.421   1.895   0.239  0.00  0.00    +0.128 A 
ATOM      7  C   UNL     1      -1.387   3.276   0.171  0.00  0.00    +0.061 A 
ATOM      8  C   UNL     1      -0.173   3.937   0.152  0.00  0.00    +0.111 A 
ATOM      9  C   UNL     1       1.007   3.217   0.206  0.00  0.00    +0.029 A 
BRANCH   6  10
ATOM     10  N   UNL     1      -2.721   1.187   0.253  0.00  0.00    +0.056 N 
ATOM     11  O   UNL     1      -2.751  -0.029   0.318  0.00  0.00    -0.126 OA
ATOM     12  O   UNL     1      -3.760   1.820   0.201  0.00  0.00    -0.126 OA
ENDBRANCH   6  10
ENDBRANCH   1   8
BRANCH   1  13
ATOM     13  N   UNL     1      -0.096   6.100  -1.547  0.00  0.00    -0.213 N 
ATOM     14  H   UNL     1       0.754   6.669  -1.953  0.00  0.00    +0.174 HD
BRANCH  13  15
ATOM     15  C   UNL     1      -1.148   5.718  -2.386  0.00  0.00    +0.091 A 
ATOM     16  C   UNL     1      -2.449   5.697  -1.905  0.00  0.00    +0.048 A 
ATOM     17  C   UNL     1      -3.488   5.324  -2.738  0.00  0.00    +0.043 A 
ATOM     18  C   UNL     1      -3.232   4.963  -4.049  0.00  0.00    +0.024 A 
ATOM     19  C   UNL     1      -1.937   4.977  -4.533  0.00  0.00    +0.049 A 
ATOM     20  C   UNL     1      -0.892   5.354  -3.706  0.00  0.00    +0.139 A 
ATOM     21 CL   UNL     1      -5.117   5.304  -2.137  0.00  0.00    -0.083 Cl
BRANCH  20  22
ATOM     22  O   UNL     1       0.383   5.368  -4.182  0.00  0.00    -0.505 OA
ATOM     23  H   UNL     1       0.584   5.080  -5.224  0.00  0.00    +0.292 HD
ENDBRANCH  20  22
ENDBRANCH  13  15
ENDBRANCH   1  13
TORSDOF 5
