REMARK  Name = ZINC14943486
REMARK  11 active torsions:
REMARK  status: ('A' for Active; 'I' for Inactive)
REMARK    1  A    between atoms: C_1  and  C_2
REMARK    2  A    between atoms: C_7  and  C_17
REMARK    3  A    between atoms: C_21  and  O_27
REMARK    4  A    between atoms: C_22  and  O_23
REMARK    5  A    between atoms: O_23  and  C_24
REMARK    6  A    between atoms: C_24  and  C_25
REMARK    7  A    between atoms: C_24  and  C_26
REMARK    8  A    between atoms: O_27  and  C_28
REMARK    9  A    between atoms: C_31  and  C_33
REMARK   10  A    between atoms: C_33  and  O_35
REMARK   11  A    between atoms: O_35  and  C_36
REMARK                            x       y       z     vdW  Elec       q    Type
REMARK                         _______ _______ _______ _____ _____    ______ ____
ROOT
ATOM      1  C   UNL     1      -4.682   4.338   3.551  0.00  0.00    +0.009 C 
ATOM      2  C   UNL     1      -3.798   5.142   2.595  0.00  0.00    +0.013 C 
ATOM      3  C   UNL     1      -2.835   6.018   3.393  0.00  0.00    +0.055 C 
ATOM      4  C   UNL     1      -1.958   5.148   4.279  0.00  0.00    +0.017 C 
ATOM      5  C   UNL     1      -1.589   3.921   3.875  0.00  0.00    +0.037 C 
ATOM      6  C   UNL     1      -0.694   2.970   4.633  0.00  0.00    +0.140 C 
ATOM      7  N   UNL     1      -0.437   3.355   6.005  0.00  0.00    -0.331 N 
ATOM      8  C   UNL     1       0.264   4.521   6.307  0.00  0.00    +0.049 A 
ATOM      9  C   UNL     1       1.502   4.481   6.929  0.00  0.00    +0.025 A 
ATOM     10  C   UNL     1       2.182   5.663   7.168  0.00  0.00    +0.002 A 
ATOM     11  C   UNL     1       1.634   6.874   6.788  0.00  0.00    +0.002 A 
ATOM     12  C   UNL     1       0.390   6.919   6.181  0.00  0.00    +0.025 A 
ATOM     13  C   UNL     1      -0.300   5.739   5.961  0.00  0.00    +0.052 A 
ATOM     14  N   UNL     1      -1.595   5.721   5.455  0.00  0.00    -0.316 N 
ATOM     15  C   UNL     1      -2.046   3.412   2.637  0.00  0.00    +0.177 C 
ATOM     16  O   UNL     1      -1.685   2.304   2.290  0.00  0.00    -0.291 OA
ATOM     17  C   UNL     1      -2.960   4.188   1.736  0.00  0.00    +0.171 C 
ATOM     18  H   UNL     1      -0.758   2.791   6.726  0.00  0.00    +0.147 HD
ATOM     19  H   UNL     1      -2.289   6.149   5.980  0.00  0.00    +0.152 HD
ENDROOT
BRANCH   6  20
ATOM     20  C   UNL     1       0.624   2.873   3.909  0.00  0.00    +0.023 A 
ATOM     21  C   UNL     1       1.015   3.881   3.046  0.00  0.00    +0.009 A 
ATOM     22  C   UNL     1       2.223   3.796   2.381  0.00  0.00    +0.004 A 
ATOM     23  C   UNL     1       3.047   2.703   2.575  0.00  0.00    +0.049 A 
ATOM     24  C   UNL     1       2.665   1.693   3.442  0.00  0.00    +0.162 A 
ATOM     25  C   UNL     1       1.445   1.776   4.108  0.00  0.00    +0.168 A 
BRANCH  24  26
ATOM     26  O   UNL     1       3.477   0.619   3.638  0.00  0.00    -0.491 OA
ATOM     27  C   UNL     1       4.713   0.602   2.921  0.00  0.00    +0.277 C 
ENDBRANCH  24  26
BRANCH  25  28
ATOM     28  O   UNL     1       1.063   0.783   4.956  0.00  0.00    -0.485 OA
BRANCH  28  29
ATOM     29  C   UNL     1       0.210  -0.232   4.424  0.00  0.00    +0.168 C 
ATOM     30  C   UNL     1       1.057  -1.415   3.953  0.00  0.00    +0.051 C 
ATOM     31  C   UNL     1      -0.763  -0.700   5.508  0.00  0.00    +0.051 C 
ENDBRANCH  28  29
ENDBRANCH  25  28
ENDBRANCH   6  20
BRANCH  17  32
ATOM     32  C   UNL     1      -3.869   3.239   0.999  0.00  0.00    +0.318 C 
ATOM     33  O   UNL     1      -5.062   3.430   0.990  0.00  0.00    -0.250 OA
BRANCH  32  34
ATOM     34  O   UNL     1      -3.353   2.182   0.351  0.00  0.00    -0.467 OA
ATOM     35  C   UNL     1      -4.282   1.344  -0.386  0.00  0.00    +0.280 C 
ENDBRANCH  32  34
ENDBRANCH  17  32
TORSDOF 6
