REMARK  Name = ZINC66177965
REMARK  4 active torsions:
REMARK  status: ('A' for Active; 'I' for Inactive)
REMARK    1  A    between atoms: C_3  and  C_22
REMARK    2  A    between atoms: C_6  and  C_7
REMARK    3  A    between atoms: C_7  and  N_8
REMARK    4  A    between atoms: C_14  and  N_17
REMARK                            x       y       z     vdW  Elec       q    Type
REMARK                         _______ _______ _______ _____ _____    ______ ____
ROOT
ATOM      1  C   UNL     1      -0.011   1.406   0.270  0.00  0.00    +0.006 A 
ATOM      2  C   UNL     1       1.180   2.101   0.241  0.00  0.00    +0.013 A 
ATOM      3  C   UNL     1       2.377   1.421   0.011  0.00  0.00    +0.037 A 
ATOM      4  C   UNL     1       2.360   0.040  -0.190  0.00  0.00    +0.013 A 
ATOM      5  C   UNL     1       1.162  -0.644  -0.159  0.00  0.00    +0.006 A 
ATOM      6  C   UNL     1      -0.021   0.037   0.070  0.00  0.00    -0.030 A 
ENDROOT
BRANCH   3   7
ATOM      7  C   UNL     1       3.657   2.160  -0.022  0.00  0.00    +0.247 C 
ATOM      8  O   UNL     1       4.631   1.713   0.551  0.00  0.00    -0.270 OA
ATOM      9  N   UNL     1       3.743   3.330  -0.686  0.00  0.00    -0.287 N 
ATOM     10  C   UNL     1       5.023   4.047  -0.811  0.00  0.00    +0.127 C 
ATOM     11  C   UNL     1       5.372   4.146  -2.298  0.00  0.00    +0.123 C 
ATOM     12  N   UNL     1       4.217   4.581  -3.071  0.00  0.00    -0.313 N 
ATOM     13  C   UNL     1       2.950   4.462  -2.673  0.00  0.00    +0.230 C 
ATOM     14  O   UNL     1       2.069   4.789  -3.439  0.00  0.00    -0.274 OA
ATOM     15  C   UNL     1       2.564   3.938  -1.321  0.00  0.00    +0.203 C 
ATOM     16  H   UNL     1       4.381   4.986  -3.937  0.00  0.00    +0.149 HD
ENDBRANCH   3   7
BRANCH   6  17
ATOM     17  C   UNL     1      -1.325  -0.717   0.103  0.00  0.00    +0.141 C 
BRANCH  17  18
ATOM     18  N   UNL     1      -1.897  -0.762  -1.245  0.00  0.00    -0.295 N 
ATOM     19  C   UNL     1      -3.071  -1.389  -1.459  0.00  0.00    +0.302 C 
ATOM     20  O   UNL     1      -3.655  -1.917  -0.533  0.00  0.00    -0.253 OA
ATOM     21  N   UNL     1      -3.597  -1.430  -2.699  0.00  0.00    -0.287 N 
ATOM     22  C   UNL     1      -2.996  -0.841  -3.905  0.00  0.00    +0.108 C 
ATOM     23  C   UNL     1      -3.934  -1.161  -5.087  0.00  0.00    +0.005 C 
ATOM     24  C   UNL     1      -4.725  -2.396  -4.580  0.00  0.00    -0.049 C 
ATOM     25  C   UNL     1      -4.867  -2.079  -3.072  0.00  0.00    +0.094 C 
ATOM     26  H   UNL     1      -1.431  -0.340  -1.984  0.00  0.00    +0.151 HD
BRANCH  24  27
ATOM     27  N   UNL     1      -6.040  -2.483  -5.229  0.00  0.00    +0.383 N 
ATOM     28  C   UNL     1      -5.876  -2.692  -6.691  0.00  0.00    -0.078 C 
ATOM     29  C   UNL     1      -7.232  -3.310  -7.114  0.00  0.00    -0.020 C 
ATOM     30  C   UNL     1      -7.583  -4.226  -5.919  0.00  0.00    -0.020 C 
ATOM     31  C   UNL     1      -6.776  -3.665  -4.733  0.00  0.00    -0.078 C 
ATOM     32  H   UNL     1      -6.571  -1.643  -5.054  0.00  0.00    -0.081 HD
ENDBRANCH  24  27
ENDBRANCH  17  18
ENDBRANCH   6  17
TORSDOF 4
