REMARK  Name = ZINC06134074
REMARK  10 active torsions:
REMARK  status: ('A' for Active; 'I' for Inactive)
REMARK    1  A    between atoms: C_1  and  C_2
REMARK    2  A    between atoms: C_2  and  O_3
REMARK    3  A    between atoms: O_3  and  C_4
REMARK    4  A    between atoms: C_11  and  C_16
REMARK    5  A    between atoms: C_16  and  C_18
REMARK    6  A    between atoms: C_16  and  N_76
REMARK    7  A    between atoms: N_22  and  C_23
REMARK    8  A    between atoms: N_30  and  C_33
REMARK    9  A    between atoms: C_37  and  C_40
REMARK   10  A    between atoms: C_38  and  C_39
REMARK                            x       y       z     vdW  Elec       q    Type
REMARK                         _______ _______ _______ _____ _____    ______ ____
ROOT
ATOM      1  C   UNL     1       2.591  -0.626  -0.056  0.00  0.00    +0.039 C 
ENDROOT
BRANCH   1   9
ATOM      2  C   UNL     1       2.058  -3.396  -5.576  0.00  0.00    +0.121 A 
ATOM      3  C   UNL     1       3.313  -3.024  -6.052  0.00  0.00    +0.047 A 
ATOM      4  C   UNL     1       4.163  -2.270  -5.274  0.00  0.00    +0.030 A 
ATOM      5  C   UNL     1       3.771  -1.873  -4.000  0.00  0.00    +0.049 A 
ATOM      6  C   UNL     1       2.504  -2.246  -3.515  0.00  0.00    +0.002 A 
ATOM      7  C   UNL     1       1.649  -3.012  -4.315  0.00  0.00    +0.055 A 
ATOM      8  C   UNL     1       2.103  -1.821  -2.173  0.00  0.00    +0.017 A 
ATOM      9  C   UNL     1       2.972  -1.079  -1.442  0.00  0.00    +0.011 A 
ATOM     10  C   UNL     1       4.229  -0.726  -1.976  0.00  0.00    +0.251 A 
ATOM     11  O   UNL     1       4.993  -0.054  -1.304  0.00  0.00    -0.268 OA
ATOM     12  N   UNL     1       4.609  -1.116  -3.205  0.00  0.00    -0.322 N 
ATOM     13  H   UNL     1       5.511  -0.855  -3.549  0.00  0.00    +0.169 HD
BRANCH   2  14
ATOM     14  O   UNL     1       1.231  -4.141  -6.357  0.00  0.00    -0.492 OA
BRANCH  14  16
ATOM     15  C   UNL     1       0.655  -5.334  -8.379  0.00  0.00    +0.048 C 
ATOM     16  C   UNL     1       1.716  -4.504  -7.652  0.00  0.00    +0.225 C 
ENDBRANCH  14  16
ENDBRANCH   2  14
ENDBRANCH   1   9
BRANCH   1  22
ATOM     17  C   UNL     1       3.806  -2.519   0.839  0.00  0.00    -0.058 C 
ATOM     18  C   UNL     1       4.933  -2.924   1.792  0.00  0.00    +0.086 C 
ATOM     19  N   UNL     1       4.594  -2.498   3.157  0.00  0.00    -0.333 N 
ATOM     20  C   UNL     1       4.402  -1.043   3.220  0.00  0.00    +0.086 C 
ATOM     21  C   UNL     1       3.275  -0.638   2.267  0.00  0.00    -0.058 C 
ATOM     22  N   UNL     1       3.639  -1.052   0.895  0.00  0.00    +0.391 N 
ATOM     23  H   UNL     1       4.526  -0.605   0.636  0.00  0.00    -0.080 HD
BRANCH  19  24
ATOM     24  C   UNL     1       5.568  -2.915   4.068  0.00  0.00    +0.033 A 
ATOM     25  C   UNL     1       6.864  -2.425   3.973  0.00  0.00    +0.023 A 
ATOM     26  C   UNL     1       7.824  -2.839   4.875  0.00  0.00    +0.002 A 
ATOM     27  C   UNL     1       7.496  -3.739   5.872  0.00  0.00    +0.004 A 
ATOM     28  C   UNL     1       6.207  -4.228   5.970  0.00  0.00    -0.046 A 
ATOM     29  C   UNL     1       5.240  -3.814   5.074  0.00  0.00    -0.027 A 
ATOM     30  C   UNL     1       3.833  -4.343   5.185  0.00  0.00    +0.046 C 
ATOM     31  C   UNL     1       5.854  -5.209   7.059  0.00  0.00    +0.044 C 
ENDBRANCH  19  24
ENDBRANCH   1  22
BRANCH   1  32
ATOM     32  C   UNL     1       2.488   0.878  -0.030  0.00  0.00    +0.143 A 
ATOM     33  N   UNL     1       3.484   1.730  -0.030  0.00  0.00    -0.115 NA
ATOM     34  N   UNL     1       2.990   2.919  -0.003  0.00  0.00    -0.023 NA
ATOM     35  N   UNL     1       1.705   2.848   0.008  0.00  0.00    -0.044 NA
ATOM     36  N   UNL     1       1.357   1.606  -0.002  0.00  0.00    -0.227 N 
BRANCH  36  37
ATOM     37  C   UNL     1      -0.013   1.086   0.008  0.00  0.00    +0.111 C 
ATOM     38  C   UNL     1      -0.763   1.597   1.255  0.00  0.00    +0.027 C 
ATOM     39  C   UNL     1      -1.531   2.845   0.750  0.00  0.00    +0.002 C 
ATOM     40  C   UNL     1      -1.978   2.421  -0.670  0.00  0.00    +0.002 C 
ATOM     41  C   UNL     1      -0.784   1.609  -1.216  0.00  0.00    +0.027 C 
ENDBRANCH  36  37
ENDBRANCH   1  32
TORSDOF 7
