REMARK  Name = ZINC35311574
REMARK  10 active torsions:
REMARK  status: ('A' for Active; 'I' for Inactive)
REMARK    1  A    between atoms: C_1  and  C_2
REMARK    2  A    between atoms: C_2  and  C_3
REMARK    3  A    between atoms: C_3  and  C_5
REMARK    4  A    between atoms: C_3  and  N_6
REMARK    5  A    between atoms: N_6  and  S_7
REMARK    6  A    between atoms: S_7  and  C_10
REMARK    7  A    between atoms: C_13  and  N_16
REMARK    8  A    between atoms: C_17  and  C_19
REMARK    9  A    between atoms: C_19  and  N_20
REMARK   10  A    between atoms: C_25  and  C_27
REMARK                            x       y       z     vdW  Elec       q    Type
REMARK                         _______ _______ _______ _____ _____    ______ ____
ROOT
ATOM      1  C   UNL     1      -4.588  -1.240   0.855  0.00  0.00    +0.105 A 
ATOM      2  C   UNL     1      -5.024  -1.426  -0.444  0.00  0.00    +0.030 A 
ATOM      3  C   UNL     1      -5.710  -2.575  -0.786  0.00  0.00    +0.025 A 
ATOM      4  C   UNL     1      -5.962  -3.544   0.176  0.00  0.00    +0.033 A 
ATOM      5  C   UNL     1      -5.523  -3.354   1.480  0.00  0.00    +0.025 A 
ATOM      6  C   UNL     1      -4.833  -2.206   1.814  0.00  0.00    +0.030 A 
ENDROOT
BRANCH   4   7
ATOM      7  N   UNL     1      -6.658  -4.708  -0.168  0.00  0.00    -0.287 N 
ATOM      8  C   UNL     1      -6.515  -5.241  -1.397  0.00  0.00    +0.201 C 
ATOM      9  O   UNL     1      -5.713  -4.767  -2.174  0.00  0.00    -0.278 OA
ATOM     10  H   UNL     1      -7.242  -5.133   0.480  0.00  0.00    +0.155 HD
BRANCH   8  11
ATOM     11  C   UNL     1      -7.352  -6.425  -1.808  0.00  0.00    +0.019 C 
BRANCH  11  12
ATOM     12  N   UNL     1      -7.011  -6.813  -3.183  0.00  0.00    +0.387 N 
ATOM     13  C   UNL     1      -5.619  -7.277  -3.228  0.00  0.00    -0.078 C 
ATOM     14  C   UNL     1      -5.233  -7.605  -4.671  0.00  0.00    -0.019 C 
ATOM     15  C   UNL     1      -6.157  -8.705  -5.203  0.00  0.00    -0.003 C 
ATOM     16  C   UNL     1      -7.611  -8.239  -5.083  0.00  0.00    -0.016 C 
ATOM     17  C   UNL     1      -7.909  -7.887  -3.624  0.00  0.00    -0.071 C 
ATOM     18  C   UNL     1      -9.361  -7.421  -3.499  0.00  0.00    -0.013 C 
ATOM     19  H   UNL     1      -7.117  -6.016  -3.793  0.00  0.00    -0.081 HD
ENDBRANCH  11  12
ENDBRANCH   8  11
ENDBRANCH   4   7
BRANCH   1  20
ATOM     20  S   UNL     1      -3.713   0.227   1.288  0.00  0.00    +0.059 S 
ATOM     21  O   UNL     1      -3.886   0.405   2.687  0.00  0.00    -0.153 OA
ATOM     22  O   UNL     1      -4.089   1.218   0.341  0.00  0.00    -0.153 OA
BRANCH  20  23
ATOM     23  N   UNL     1      -2.103  -0.074   1.044  0.00  0.00    -0.187 NA
ATOM     24  H   UNL     1      -1.492  -0.081   1.797  0.00  0.00    +0.148 HD
BRANCH  23  25
ATOM     25  C   UNL     1      -1.602  -0.329  -0.309  0.00  0.00    +0.073 C 
ATOM     26  C   UNL     1      -1.547  -1.838  -0.556  0.00  0.00    +0.025 C 
BRANCH  25  28
ATOM     27  C   UNL     1      -0.273   1.786  -0.330  0.00  0.00    +0.005 C 
ATOM     28  C   UNL     1      -0.199   0.263  -0.454  0.00  0.00    +0.017 C 
ENDBRANCH  25  28
ENDBRANCH  23  25
ENDBRANCH  20  23
ENDBRANCH   1  20
TORSDOF 7
