REMARK  Name = ZINC12469794
REMARK  8 active torsions:
REMARK  status: ('A' for Active; 'I' for Inactive)
REMARK    1  A    between atoms: C_1  and  C_2
REMARK    2  A    between atoms: C_2  and  C_3
REMARK    3  A    between atoms: C_10  and  C_15
REMARK    4  A    between atoms: C_15  and  C_17
REMARK    5  A    between atoms: C_15  and  N_63
REMARK    6  A    between atoms: N_21  and  C_22
REMARK    7  A    between atoms: C_22  and  C_23
REMARK    8  A    between atoms: C_32  and  C_35
REMARK                            x       y       z     vdW  Elec       q    Type
REMARK                         _______ _______ _______ _____ _____    ______ ____
ROOT
ATOM      1  C   UNL     1       1.756  -1.813  -0.025  0.00  0.00    +0.039 C 
ENDROOT
BRANCH   1   9
ATOM      2  C   UNL     1       3.352  -3.484   5.715  0.00  0.00    -0.047 A 
ATOM      3  C   UNL     1       2.060  -3.597   6.209  0.00  0.00    +0.005 A 
ATOM      4  C   UNL     1       0.973  -3.344   5.401  0.00  0.00    +0.026 A 
ATOM      5  C   UNL     1       1.170  -2.970   4.075  0.00  0.00    +0.049 A 
ATOM      6  C   UNL     1       2.482  -2.856   3.578  0.00  0.00    -0.001 A 
ATOM      7  C   UNL     1       3.570  -3.119   4.417  0.00  0.00    +0.013 A 
ATOM      8  C   UNL     1       2.680  -2.462   2.182  0.00  0.00    +0.017 A 
ATOM      9  C   UNL     1       1.587  -2.220   1.416  0.00  0.00    +0.011 A 
ATOM     10  C   UNL     1       0.293  -2.343   1.965  0.00  0.00    +0.251 A 
ATOM     11  O   UNL     1      -0.675  -2.115   1.261  0.00  0.00    -0.268 OA
ATOM     12  N   UNL     1       0.101  -2.709   3.245  0.00  0.00    -0.322 N 
ATOM     13  H   UNL     1      -0.802  -2.788   3.589  0.00  0.00    +0.169 HD
BRANCH   2  15
ATOM     14  C   UNL     1       4.952  -2.476   7.319  0.00  0.00    +0.009 C 
ATOM     15  C   UNL     1       4.525  -3.767   6.618  0.00  0.00    +0.032 C 
ENDBRANCH   2  15
ENDBRANCH   1   9
BRANCH   1  22
ATOM     16  C   UNL     1       1.059  -2.304  -2.291  0.00  0.00    -0.077 C 
ATOM     17  C   UNL     1       0.120  -3.171  -3.133  0.00  0.00    -0.018 C 
ATOM     18  C   UNL     1       0.518  -4.641  -2.983  0.00  0.00    -0.001 C 
ATOM     19  C   UNL     1       0.466  -5.027  -1.502  0.00  0.00    -0.031 C 
ATOM     20  C   UNL     1       1.396  -4.107  -0.708  0.00  0.00    -0.074 C 
ATOM     21  C   UNL     1       0.920  -6.479  -1.337  0.00  0.00    +0.005 C 
ATOM     22  N   UNL     1       0.944  -2.710  -0.874  0.00  0.00    +0.389 N 
ATOM     23  H   UNL     1      -0.039  -2.641  -0.587  0.00  0.00    -0.080 HD
ENDBRANCH   1  22
BRANCH   1  24
ATOM     24  C   UNL     1       1.272  -0.397  -0.207  0.00  0.00    +0.143 A 
ATOM     25  N   UNL     1       0.025  -0.003  -0.300  0.00  0.00    -0.115 NA
ATOM     26  N   UNL     1       0.023   1.277  -0.448  0.00  0.00    -0.023 NA
ATOM     27  N   UNL     1       1.236   1.709  -0.453  0.00  0.00    -0.044 NA
ATOM     28  N   UNL     1       2.035   0.707  -0.306  0.00  0.00    -0.226 N 
BRANCH  28  29
ATOM     29  C   UNL     1       3.498   0.760  -0.258  0.00  0.00    +0.182 C 
BRANCH  29  30
ATOM     30  C   UNL     1       4.053   0.615  -1.651  0.00  0.00    -0.026 A 
ATOM     31  C   UNL     1       4.351  -0.640  -2.149  0.00  0.00    +0.005 A 
ATOM     32  C   UNL     1       4.856  -0.774  -3.429  0.00  0.00    +0.000 A 
ATOM     33  C   UNL     1       5.072   0.348  -4.207  0.00  0.00    +0.000 A 
ATOM     34  C   UNL     1       4.778   1.603  -3.708  0.00  0.00    +0.000 A 
ATOM     35  C   UNL     1       4.269   1.736  -2.430  0.00  0.00    +0.005 A 
ENDBRANCH  29  30
ENDBRANCH  28  29
ENDBRANCH   1  24
TORSDOF 6
