REMARK  Name = ZINC24810213
REMARK  9 active torsions:
REMARK  status: ('A' for Active; 'I' for Inactive)
REMARK    1  A    between atoms: C_1  and  C_2
REMARK    2  A    between atoms: C_2  and  C_3
REMARK    3  A    between atoms: C_2  and  C_4
REMARK    4  A    between atoms: C_4  and  C_6
REMARK    5  A    between atoms: C_4  and  N_22
REMARK    6  A    between atoms: N_8  and  C_9
REMARK    7  A    between atoms: C_9  and  C_10
REMARK    8  A    between atoms: N_12  and  C_13
REMARK    9  A    between atoms: C_23  and  C_25
REMARK                            x       y       z     vdW  Elec       q    Type
REMARK                         _______ _______ _______ _____ _____    ______ ____
ROOT
ATOM      1  C   UNL     1       3.771  -4.761   0.506  0.00  0.00    +0.234 C 
ATOM      2  O   UNL     1       4.597  -3.959   0.887  0.00  0.00    -0.274 OA
ATOM      3  N   UNL     1       4.015  -6.082   0.611  0.00  0.00    -0.305 N 
ATOM      4  H   UNL     1       3.265  -6.809   0.264  0.00  0.00    +0.149 HD
ENDROOT
BRANCH   1   5
ATOM      5  C   UNL     1       2.471  -4.279  -0.086  0.00  0.00    +0.162 C 
BRANCH   5   6
ATOM      6  N   UNL     1       2.449  -2.814  -0.088  0.00  0.00    -0.300 N 
ATOM      7  C   UNL     1       1.271  -2.158  -0.080  0.00  0.00    +0.245 C 
ATOM      8  O   UNL     1       0.228  -2.782  -0.071  0.00  0.00    -0.270 OA
ATOM      9  H   UNL     1       3.393  -2.250  -0.097  0.00  0.00    +0.150 HD
BRANCH   7  10
ATOM     10  C   UNL     1       1.249  -0.680  -0.083  0.00  0.00    +0.037 A 
ATOM     11  C   UNL     1       0.031   0.002  -0.075  0.00  0.00    +0.014 A 
ATOM     12  C   UNL     1       0.017   1.381  -0.078  0.00  0.00    +0.021 A 
ATOM     13  C   UNL     1       1.207   2.089  -0.089  0.00  0.00    +0.041 A 
ATOM     14  C   UNL     1       2.418   1.417  -0.097  0.00  0.00    +0.021 A 
ATOM     15  C   UNL     1       2.446   0.039  -0.094  0.00  0.00    +0.014 A 
ATOM     16 CL   UNL     1       1.181   3.825  -0.093  0.00  0.00    -0.084 Cl
ENDBRANCH   7  10
ENDBRANCH   5   6
BRANCH   5  18
ATOM     17  C   UNL     1       1.022  -4.305  -2.121  0.00  0.00    +0.009 C 
ATOM     18  C   UNL     1       2.342  -4.794  -1.521  0.00  0.00    +0.012 C 
ATOM     19  C   UNL     1       3.509  -4.268  -2.358  0.00  0.00    +0.009 C 
ENDBRANCH   5  18
ENDBRANCH   1   5
BRANCH   3  20
ATOM     20  C   UNL     1       5.278  -6.550   1.185  0.00  0.00    +0.200 C 
BRANCH  20  21
ATOM     21  C   UNL     1       5.301  -8.057   1.188  0.00  0.00    +0.234 C 
ATOM     22  O   UNL     1       4.355  -8.679   0.753  0.00  0.00    -0.274 OA
ATOM     23  N   UNL     1       6.373  -8.714   1.675  0.00  0.00    -0.282 N 
ATOM     24  H   UNL     1       7.260  -8.152   2.002  0.00  0.00    +0.155 HD
BRANCH  23  25
ATOM     25  C   UNL     1       6.356 -10.113   1.764  0.00  0.00    +0.072 A 
ATOM     26  C   UNL     1       5.694 -10.862   0.802  0.00  0.00    +0.029 A 
ATOM     27  C   UNL     1       5.681 -12.241   0.888  0.00  0.00    +0.043 A 
ATOM     28  C   UNL     1       6.322 -12.877   1.937  0.00  0.00    +0.161 A 
ATOM     29  C   UNL     1       6.981 -12.132   2.903  0.00  0.00    +0.195 A 
ATOM     30  C   UNL     1       6.999 -10.750   2.818  0.00  0.00    +0.182 A 
ATOM     31  F   UNL     1       7.641 -10.023   3.758  0.00  0.00    -0.200 F 
ATOM     32  F   UNL     1       7.604 -12.754   3.928  0.00  0.00    -0.199 F 
ATOM     33  F   UNL     1       6.304 -14.225   2.021  0.00  0.00    -0.202 F 
ENDBRANCH  23  25
ENDBRANCH  20  21
ENDBRANCH   3  20
TORSDOF 7
