REMARK  Name = ZINC39711141
REMARK  10 active torsions:
REMARK  status: ('A' for Active; 'I' for Inactive)
REMARK    1  A    between atoms: C_1  and  C_2
REMARK    2  A    between atoms: C_4  and  C_42
REMARK    3  A    between atoms: C_7  and  C_14
REMARK    4  A    between atoms: C_14  and  C_16
REMARK    5  A    between atoms: C_14  and  N_27
REMARK    6  A    between atoms: N_21  and  C_22
REMARK    7  A    between atoms: N_27  and  C_28
REMARK    8  A    between atoms: N_27  and  C_35
REMARK    9  A    between atoms: C_28  and  C_29
REMARK   10  A    between atoms: C_35  and  C_36
REMARK                            x       y       z     vdW  Elec       q    Type
REMARK                         _______ _______ _______ _____ _____    ______ ____
ROOT
ATOM      1  C   UNL     1      -1.406  -5.379   1.133  0.00  0.00    -0.010 C 
ENDROOT
BRANCH   1   8
ATOM      2  C   UNL     1       4.447  -3.002   5.171  0.00  0.00    +0.044 C 
ATOM      3  C   UNL     1       3.261  -3.128   4.250  0.00  0.00    -0.048 A 
ATOM      4  C   UNL     1       2.288  -2.128   4.271  0.00  0.00    +0.007 A 
ATOM      5  C   UNL     1       1.197  -2.186   3.465  0.00  0.00    -0.042 A 
ATOM      6  C   UNL     1       1.049  -3.326   2.559  0.00  0.00    -0.004 A 
ATOM      7  C   UNL     1      -0.030  -3.426   1.731  0.00  0.00    -0.006 C 
ATOM      8  C   UNL     1      -0.101  -4.641   0.826  0.00  0.00    +0.088 C 
ATOM      9  C   UNL     1       1.029  -5.641   0.915  0.00  0.00    +0.223 C 
ATOM     10  O   UNL     1       1.023  -6.634   0.212  0.00  0.00    -0.275 OA
ATOM     11  N   UNL     1       2.024  -5.433   1.761  0.00  0.00    -0.285 N 
ATOM     12  C   UNL     1       2.091  -4.367   2.558  0.00  0.00    +0.041 A 
ATOM     13  C   UNL     1       3.184  -4.208   3.430  0.00  0.00    +0.027 A 
ATOM     14  C   UNL     1       0.157  -1.096   3.502  0.00  0.00    +0.044 C 
ATOM     15  H   UNL     1       2.740  -6.087   1.803  0.00  0.00    +0.155 HD
ENDBRANCH   1   8
BRANCH   1  16
ATOM     16  C   UNL     1      -1.473  -6.662   0.303  0.00  0.00    +0.183 C 
ATOM     17  N   UNL     1      -1.402  -6.356  -1.139  0.00  0.00    -0.229 N 
ATOM     18  N   UNL     1      -2.606  -6.812  -1.687  0.00  0.00    -0.064 NA
ATOM     19  N   UNL     1      -3.348  -7.316  -0.848  0.00  0.00    -0.061 NA
ATOM     20  N   UNL     1      -2.794  -7.305   0.442  0.00  0.00    -0.213 N 
ATOM     21  H   UNL     1      -0.671  -5.926  -1.609  0.00  0.00    +0.172 HD
BRANCH  20  22
ATOM     22  C   UNL     1      -3.398  -7.823   1.671  0.00  0.00    +0.096 C 
ATOM     23  C   UNL     1      -3.912  -9.259   1.443  0.00  0.00    +0.024 C 
ATOM     24  C   UNL     1      -5.224  -9.329   2.264  0.00  0.00    +0.002 C 
ATOM     25  C   UNL     1      -5.838  -7.924   2.046  0.00  0.00    +0.002 C 
ATOM     26  C   UNL     1      -4.623  -6.974   2.055  0.00  0.00    +0.024 C 
ENDBRANCH  20  22
ENDBRANCH   1  16
BRANCH   1  27
ATOM     27  N   UNL     1      -1.453  -5.717   2.562  0.00  0.00    +0.390 N 
ATOM     28  H   UNL     1      -2.140  -6.440   2.714  0.00  0.00    -0.080 HD
BRANCH  27  29
ATOM     29  C   UNL     1      -0.134  -6.197   2.995  0.00  0.00    -0.042 C 
BRANCH  29  30
ATOM     30  C   UNL     1      -0.246  -6.800   4.371  0.00  0.00    -0.064 A 
ATOM     31  C   UNL     1      -0.074  -6.006   5.490  0.00  0.00    +0.002 A 
ATOM     32  C   UNL     1      -0.177  -6.560   6.753  0.00  0.00    +0.000 A 
ATOM     33  C   UNL     1      -0.452  -7.907   6.896  0.00  0.00    +0.000 A 
ATOM     34  C   UNL     1      -0.624  -8.701   5.777  0.00  0.00    +0.000 A 
ATOM     35  C   UNL     1      -0.526  -8.146   4.515  0.00  0.00    +0.002 A 
ENDBRANCH  29  30
ENDBRANCH  27  29
BRANCH  27  36
ATOM     36  C   UNL     1      -1.818  -4.523   3.336  0.00  0.00    -0.040 C 
BRANCH  36  37
ATOM     37  C   UNL     1      -3.208  -4.083   2.954  0.00  0.00    -0.046 A 
ATOM     38  C   UNL     1      -3.407  -3.256   1.859  0.00  0.00    +0.005 A 
ATOM     39  C   UNL     1      -4.703  -2.877   1.545  0.00  0.00    +0.020 A 
ATOM     40  C   UNL     1      -5.746  -3.332   2.329  0.00  0.00    +0.111 A 
ATOM     41  N   UNL     1      -5.520  -4.117   3.364  0.00  0.00    -0.263 NA
ATOM     42  C   UNL     1      -4.301  -4.503   3.688  0.00  0.00    +0.112 A 
ENDBRANCH  36  37
ENDBRANCH  27  36
ENDBRANCH   1  27
TORSDOF 8
