REMARK  Name = ZINC65528251
REMARK  5 active torsions:
REMARK  status: ('A' for Active; 'I' for Inactive)
REMARK    1  A    between atoms: C_4  and  C_7
REMARK    2  A    between atoms: C_9  and  C_27
REMARK    3  A    between atoms: N_11  and  C_14
REMARK    4  A    between atoms: C_14  and  C_15
REMARK    5  A    between atoms: C_18  and  C_21
REMARK                            x       y       z     vdW  Elec       q    Type
REMARK                         _______ _______ _______ _____ _____    ______ ____
ROOT
ATOM      1  C   UNL     1       3.711  -0.707  -0.038  0.00  0.00    +0.110 C 
ATOM      2  C   UNL     1       4.024  -1.204  -1.462  0.00  0.00    +0.144 C 
ATOM      3  N   UNL     1       4.103  -2.681  -1.361  0.00  0.00    -0.276 NA
ATOM      4  C   UNL     1       4.428  -2.938   0.066  0.00  0.00    +0.169 C 
ATOM      5  N   UNL     1       3.628  -1.925   0.803  0.00  0.00    -0.295 NA
ATOM      6  H   UNL     1       4.012  -1.758   1.721  0.00  0.00    +0.124 HD
ENDROOT
BRANCH   2   7
ATOM      7  C   UNL     1       2.922  -0.803  -2.408  0.00  0.00    +0.104 A 
ATOM      8  N   UNL     1       1.841  -1.517  -2.678  0.00  0.00    -0.349 N 
ATOM      9  C   UNL     1       1.092  -0.830  -3.565  0.00  0.00    +0.101 A 
ATOM     10  C   UNL     1       1.740   0.322  -3.832  0.00  0.00    +0.101 A 
ATOM     11  N   UNL     1       2.873   0.324  -3.099  0.00  0.00    -0.349 N 
ATOM     12  H   UNL     1       3.539   1.030  -3.085  0.00  0.00    +0.166 HD
ATOM     13  H   UNL     1       1.625  -2.385  -2.303  0.00  0.00    +0.166 HD
ENDBRANCH   2   7
BRANCH   1  17
ATOM     14  C   UNL     1      -0.017   1.378   0.010  0.00  0.00    +0.000 A 
ATOM     15  C   UNL     1       1.171   2.086   0.002  0.00  0.00    +0.000 A 
ATOM     16  C   UNL     1       2.377   1.411  -0.013  0.00  0.00    +0.005 A 
ATOM     17  C   UNL     1       2.396   0.029  -0.020  0.00  0.00    -0.029 A 
ATOM     18  C   UNL     1       1.208  -0.679  -0.012  0.00  0.00    +0.005 A 
ATOM     19  C   UNL     1       0.002  -0.004   0.002  0.00  0.00    +0.000 A 
ENDBRANCH   1  17
BRANCH   3  20
ATOM     20  C   UNL     1       5.149  -3.214  -2.244  0.00  0.00    +0.119 C 
BRANCH  20  21
ATOM     21  C   UNL     1       5.037  -4.739  -2.304  0.00  0.00    +0.167 C 
ATOM     22  C   UNL     1       5.985  -5.305  -3.346  0.00  0.00    +0.032 C 
ATOM     23  C   UNL     1       5.170  -5.909  -4.231  0.00  0.00    +0.091 C 
ATOM     24  N   UNL     1       3.872  -5.773  -3.850  0.00  0.00    -0.154 NA
ATOM     25  N   UNL     1       3.710  -5.144  -2.798  0.00  0.00    -0.178 NA
BRANCH  23  26
ATOM     26  C   UNL     1       5.623  -6.621  -5.451  0.00  0.00    +0.002 A 
ATOM     27  C   UNL     1       6.982  -6.706  -5.747  0.00  0.00    +0.010 A 
ATOM     28  C   UNL     1       7.399  -7.370  -6.883  0.00  0.00    +0.001 A 
ATOM     29  C   UNL     1       6.470  -7.951  -7.727  0.00  0.00    +0.000 A 
ATOM     30  C   UNL     1       5.119  -7.870  -7.439  0.00  0.00    +0.001 A 
ATOM     31  C   UNL     1       4.692  -7.213  -6.303  0.00  0.00    +0.010 A 
ENDBRANCH  23  26
ENDBRANCH  20  21
ENDBRANCH   3  20
TORSDOF 5
