REMARK  Name = ZINC66450907
REMARK  4 active torsions:
REMARK  status: ('A' for Active; 'I' for Inactive)
REMARK    1  A    between atoms: C_6  and  N_7
REMARK    2  A    between atoms: C_8  and  C_10
REMARK    3  A    between atoms: C_10  and  N_11
REMARK    4  A    between atoms: C_17  and  N_21
REMARK                            x       y       z     vdW  Elec       q    Type
REMARK                         _______ _______ _______ _____ _____    ______ ____
ROOT
ATOM      1  N   UNL     1      -2.196  -4.261  -0.311  0.00  0.00    -0.315 N 
ATOM      2  C   UNL     1      -3.233  -5.164  -0.419  0.00  0.00    +0.160 A 
ATOM      3  N   UNL     1      -4.526  -4.934  -0.449  0.00  0.00    -0.225 NA
ATOM      4  C   UNL     1      -5.438  -5.925  -0.559  0.00  0.00    +0.080 A 
ATOM      5  C   UNL     1      -6.846  -5.815  -0.602  0.00  0.00    +0.031 A 
ATOM      6  C   UNL     1      -7.633  -6.932  -0.717  0.00  0.00    +0.035 A 
ATOM      7  C   UNL     1      -7.081  -8.202  -0.796  0.00  0.00    +0.127 A 
ATOM      8  C   UNL     1      -5.706  -8.347  -0.757  0.00  0.00    +0.050 A 
ATOM      9  C   UNL     1      -4.911  -7.234  -0.642  0.00  0.00    +0.043 A 
ATOM     10  S   UNL     1      -3.160  -6.944  -0.562  0.00  0.00    -0.052 S 
ATOM     11  H   UNL     1      -1.278  -4.574  -0.307  0.00  0.00    +0.148 HD
ENDROOT
BRANCH   7  12
ATOM     12  N   UNL     1      -7.955  -9.390  -0.919  0.00  0.00    +0.056 N 
ATOM     13  O   UNL     1      -9.156  -9.257  -0.952  0.00  0.00    -0.126 OA
ATOM     14  O   UNL     1      -7.467 -10.495  -0.987  0.00  0.00    -0.126 OA
ENDBRANCH   7  12
BRANCH   1  15
ATOM     15  C   UNL     1      -2.480  -2.827  -0.204  0.00  0.00    +0.199 C 
BRANCH  15  17
ATOM     16  N   UNL     1      -1.200  -0.721   0.010  0.00  0.00    -0.284 N 
ATOM     17  C   UNL     1      -1.185  -2.065  -0.099  0.00  0.00    +0.234 C 
ATOM     18  O   UNL     1      -0.128  -2.659  -0.113  0.00  0.00    -0.274 OA
ATOM     19  H   UNL     1      -2.045  -0.252   0.098  0.00  0.00    +0.155 HD
BRANCH  16  25
ATOM     20  C   UNL     1       1.071  -0.454  -0.766  0.00  0.00    +0.026 A 
ATOM     21  C   UNL     1       2.257   0.255  -0.780  0.00  0.00    +0.043 A 
ATOM     22  C   UNL     1       2.380   1.414  -0.033  0.00  0.00    +0.159 A 
ATOM     23  C   UNL     1       1.314   1.866   0.730  0.00  0.00    +0.160 A 
ATOM     24  C   UNL     1       0.126   1.159   0.745  0.00  0.00    +0.064 A 
ATOM     25  C   UNL     1       0.002  -0.004  -0.004  0.00  0.00    +0.036 A 
ATOM     26  F   UNL     1       1.436   2.998   1.458  0.00  0.00    -0.202 F 
ATOM     27  F   UNL     1       3.541   2.105  -0.047  0.00  0.00    -0.202 F 
ENDBRANCH  16  25
ENDBRANCH  15  17
ENDBRANCH   1  15
TORSDOF 4
