REMARK  Name = ZINC40688835
REMARK  7 active torsions:
REMARK  status: ('A' for Active; 'I' for Inactive)
REMARK    1  A    between atoms: C_1  and  C_2
REMARK    2  A    between atoms: C_4  and  C_26
REMARK    3  A    between atoms: C_7  and  N_8
REMARK    4  A    between atoms: C_10  and  N_24
REMARK    5  A    between atoms: C_11  and  N_15
REMARK    6  A    between atoms: C_26  and  C_28
REMARK    7  A    between atoms: C_26  and  C_30
REMARK                            x       y       z     vdW  Elec       q    Type
REMARK                         _______ _______ _______ _____ _____    ______ ____
ROOT
ATOM      1  N   UNL     1       0.686  -0.444   2.732  0.00  0.00    -0.298 N 
ATOM      2  C   UNL     1       0.637  -1.295   3.829  0.00  0.00    +0.149 A 
ATOM      3  C   UNL     1       0.809  -0.796   5.125  0.00  0.00    +0.110 A 
ATOM      4  C   UNL     1       0.751  -1.694   6.189  0.00  0.00    +0.182 A 
ATOM      5  N   UNL     1       0.535  -2.983   5.935  0.00  0.00    -0.215 NA
ATOM      6  C   UNL     1       0.379  -3.412   4.700  0.00  0.00    +0.225 A 
ATOM      7  N   UNL     1       0.421  -2.597   3.665  0.00  0.00    -0.219 NA
ATOM      8  H   UNL     1       0.754   0.515   2.865  0.00  0.00    +0.154 HD
ENDROOT
BRANCH   4   9
ATOM      9  N   UNL     1       0.916  -1.249   7.503  0.00  0.00    -0.192 N 
ATOM     10  C   UNL     1       0.090  -1.515   8.573  0.00  0.00    +0.096 A 
ATOM     11  C   UNL     1      -1.084  -2.243   8.729  0.00  0.00    +0.030 A 
ATOM     12  C   UNL     1      -1.681  -2.316   9.968  0.00  0.00    +0.002 A 
ATOM     13  C   UNL     1      -1.119  -1.667  11.060  0.00  0.00    +0.002 A 
ATOM     14  C   UNL     1       0.033  -0.948  10.926  0.00  0.00    +0.032 A 
ATOM     15  C   UNL     1       0.660  -0.859   9.677  0.00  0.00    +0.113 A 
ATOM     16  N   UNL     1       1.782  -0.235   9.248  0.00  0.00    -0.129 NA
ATOM     17  N   UNL     1       1.958  -0.448   7.992  0.00  0.00    -0.058 NA
ENDBRANCH   4   9
BRANCH   1  24
ATOM     18  C   UNL     1      -0.329   1.210   0.652  0.00  0.00    +0.045 C 
ATOM     19  C   UNL     1       0.149  -0.196   0.392  0.00  0.00    -0.029 A 
ATOM     20  C   UNL     1       0.106  -0.715  -0.887  0.00  0.00    +0.011 A 
ATOM     21  C   UNL     1       0.544  -2.004  -1.127  0.00  0.00    -0.008 A 
ATOM     22  C   UNL     1       1.025  -2.779  -0.086  0.00  0.00    +0.047 A 
ATOM     23  C   UNL     1       1.070  -2.266   1.196  0.00  0.00    +0.043 A 
ATOM     24  C   UNL     1       0.637  -0.968   1.438  0.00  0.00    +0.037 A 
ATOM     25 CL   UNL     1       1.573  -4.398  -0.392  0.00  0.00    -0.083 Cl
BRANCH  21  26
ATOM     26  C   UNL     1       0.496  -2.567  -2.525  0.00  0.00    +0.153 C 
BRANCH  26  27
ATOM     27  C   UNL     1       1.410  -1.768  -3.419  0.00  0.00    -0.026 A 
ATOM     28  C   UNL     1       1.076  -0.473  -3.768  0.00  0.00    +0.006 A 
ATOM     29  C   UNL     1       1.913   0.260  -4.588  0.00  0.00    +0.020 A 
ATOM     30  C   UNL     1       3.086  -0.303  -5.060  0.00  0.00    +0.041 A 
ATOM     31  C   UNL     1       3.419  -1.600  -4.710  0.00  0.00    +0.020 A 
ATOM     32  C   UNL     1       2.584  -2.330  -3.885  0.00  0.00    +0.006 A 
ATOM     33 CL   UNL     1       4.137   0.616  -6.090  0.00  0.00    -0.084 Cl
ENDBRANCH  26  27
BRANCH  26  34
ATOM     34  C   UNL     1      -0.881  -2.491  -3.037  0.00  0.00    +0.075 C 
ATOM     35  N   UNL     1      -1.944  -2.433  -3.433  0.00  0.00    -0.196 NA
ENDBRANCH  26  34
ENDBRANCH  21  26
ENDBRANCH   1  24
BRANCH   3  36
ATOM     36  N   UNL     1       1.034   0.570   5.346  0.00  0.00    -0.352 N 
ATOM     37  H   UNL     1       1.165   1.168   4.594  0.00  0.00    +0.143 HD
ATOM     38  H   UNL     1       1.057   0.917   6.252  0.00  0.00    +0.143 HD
ENDBRANCH   3  36
TORSDOF 6
