REMARK  Name = ZINC11855697
REMARK  5 active torsions:
REMARK  status: ('A' for Active; 'I' for Inactive)
REMARK    1  A    between atoms: C_1  and  C_2
REMARK    2  A    between atoms: C_2  and  C_3
REMARK    3  A    between atoms: C_2  and  C_4
REMARK    4  A    between atoms: N_6  and  C_7
REMARK    5  A    between atoms: C_9  and  C_23
REMARK                            x       y       z     vdW  Elec       q    Type
REMARK                         _______ _______ _______ _____ _____    ______ ____
ROOT
ATOM      1  C   UNL     1       2.297   6.891   0.017  0.00  0.00    +0.132 A 
ATOM      2  C   UNL     1       2.267   5.534   0.015  0.00  0.00    +0.074 A 
ATOM      3  C   UNL     1       0.915   5.132   0.020  0.00  0.00    +0.102 A 
ATOM      4  N   UNL     1       0.164   6.215   0.034  0.00  0.00    -0.162 NA
ATOM      5  N   UNL     1       1.005   7.334   0.032  0.00  0.00    -0.185 N 
ATOM      6  C   UNL     1       0.600   8.655   0.043  0.00  0.00    +0.234 A 
ATOM      7  N   UNL     1      -0.728   8.945   0.052  0.00  0.00    -0.291 N 
ATOM      8  H   UNL     1      -1.384   8.230   0.050  0.00  0.00    +0.172 HD
ATOM      9  C   UNL     1      -1.130  10.233   0.067  0.00  0.00    +0.256 A 
ATOM     10  O   UNL     1      -2.317  10.514   0.079  0.00  0.00    -0.267 OA
ATOM     11  C   UNL     1      -0.153  11.248   0.063  0.00  0.00    +0.038 A 
ATOM     12  C   UNL     1       1.163  10.898   0.050  0.00  0.00    +0.053 A 
ATOM     13  N   UNL     1       1.505   9.607   0.040  0.00  0.00    -0.217 NA
ATOM     14  C   UNL     1       2.028  12.141   0.049  0.00  0.00    +0.056 C 
ATOM     15  C   UNL     1       1.085  13.288  -0.373  0.00  0.00    +0.011 C 
ATOM     16  C   UNL     1      -0.294  12.754   0.073  0.00  0.00    +0.043 C 
ENDROOT
BRANCH   3  17
ATOM     17  C   UNL     1       0.425   3.737   0.017  0.00  0.00    +0.039 A 
ATOM     18  C   UNL     1      -0.864   3.276   0.027  0.00  0.00    +0.018 A 
ATOM     19  C   UNL     1      -1.080   1.915   0.017  0.00  0.00    +0.008 A 
ATOM     20  C   UNL     1      -0.013   1.076   0.008  0.00  0.00    +0.046 A 
ATOM     21  S   UNL     1       1.360   2.217   0.001  0.00  0.00    -0.095 S 
ENDBRANCH   3  17
BRANCH   1  24
ATOM     22  C   UNL     1       4.660   7.116  -0.003  0.00  0.00    +0.221 C 
ATOM     23  O   UNL     1       4.764   5.908  -0.012  0.00  0.00    -0.275 OA
ATOM     24  N   UNL     1       3.440   7.688   0.012  0.00  0.00    -0.270 N 
ATOM     25  H   UNL     1       3.357   8.654   0.019  0.00  0.00    +0.156 HD
BRANCH  22  27
ATOM     26  C   UNL     1       5.914   8.854   1.246  0.00  0.00    +0.017 C 
ATOM     27  C   UNL     1       5.896   7.978  -0.009  0.00  0.00    +0.069 C 
ATOM     28  C   UNL     1       7.140   7.087  -0.026  0.00  0.00    +0.017 C 
ENDBRANCH  22  27
ENDBRANCH   1  24
TORSDOF 3
