REMARK  Name = ZINC49486232
REMARK  9 active torsions:
REMARK  status: ('A' for Active; 'I' for Inactive)
REMARK    1  A    between atoms: C_1  and  O_2
REMARK    2  A    between atoms: O_2  and  C_3
REMARK    3  A    between atoms: C_6  and  C_9
REMARK    4  A    between atoms: C_9  and  C_15
REMARK    5  A    between atoms: N_17  and  C_18
REMARK    6  A    between atoms: C_18  and  C_19
REMARK    7  A    between atoms: C_19  and  C_21
REMARK    8  A    between atoms: C_19  and  N_26
REMARK    9  A    between atoms: N_29  and  C_32
REMARK                            x       y       z     vdW  Elec       q    Type
REMARK                         _______ _______ _______ _____ _____    ______ ____
ROOT
ATOM      1  C   UNL     1      -6.754   0.751   2.435  0.00  0.00    +0.017 C 
ENDROOT
BRANCH   1   2
ATOM      2  N   UNL     1      -5.473   1.346   2.030  0.00  0.00    +0.389 N 
ATOM      3  C   UNL     1      -5.154   0.931   0.658  0.00  0.00    -0.059 C 
ATOM      4  C   UNL     1      -3.766   1.455   0.276  0.00  0.00    +0.086 C 
ATOM      5  N   UNL     1      -3.742   2.910   0.492  0.00  0.00    -0.333 N 
ATOM      6  C   UNL     1      -4.203   3.427   1.790  0.00  0.00    +0.086 C 
ATOM      7  C   UNL     1      -5.570   2.809   2.100  0.00  0.00    -0.059 C 
ATOM      8  H   UNL     1      -4.744   1.028   2.653  0.00  0.00    -0.081 HD
BRANCH   5   9
ATOM      9  C   UNL     1      -3.294   3.778  -0.509  0.00  0.00    +0.030 A 
ATOM     10  C   UNL     1      -3.160   5.135  -0.245  0.00  0.00    +0.026 A 
ATOM     11  C   UNL     1      -2.717   5.990  -1.235  0.00  0.00    +0.040 A 
ATOM     12  C   UNL     1      -2.406   5.495  -2.490  0.00  0.00    +0.124 A 
ATOM     13  C   UNL     1      -2.539   4.143  -2.756  0.00  0.00    +0.040 A 
ATOM     14  C   UNL     1      -2.977   3.283  -1.768  0.00  0.00    +0.026 A 
ATOM     15  F   UNL     1      -1.973   6.333  -3.457  0.00  0.00    -0.205 F 
ENDBRANCH   5   9
ENDBRANCH   1   2
BRANCH   1  16
ATOM     16  C   UNL     1      -7.140   1.270   3.796  0.00  0.00    +0.093 A 
ATOM     17  C   UNL     1      -8.382   1.609   4.185  0.00  0.00    +0.043 A 
ATOM     18  C   UNL     1      -8.288   2.040   5.529  0.00  0.00    +0.041 A 
ATOM     19  C   UNL     1      -6.993   1.939   5.880  0.00  0.00    +0.195 A 
ATOM     20  O   UNL     1      -6.304   1.467   4.828  0.00  0.00    -0.469 OA
ENDBRANCH   1  16
BRANCH   1  21
ATOM     21  C   UNL     1      -6.615  -0.771   2.490  0.00  0.00    +0.096 C 
BRANCH  21  24
ATOM     22  C   UNL     1      -8.057  -2.709   2.805  0.00  0.00    +0.224 C 
ATOM     23  O   UNL     1      -7.090  -3.422   2.638  0.00  0.00    -0.275 OA
ATOM     24  N   UNL     1      -7.915  -1.369   2.803  0.00  0.00    -0.316 N 
ATOM     25  H   UNL     1      -8.673  -0.801   3.009  0.00  0.00    +0.149 HD
BRANCH  22  26
ATOM     26  C   UNL     1      -9.418  -3.322   3.015  0.00  0.00    +0.076 C 
ATOM     27  C   UNL     1     -10.043  -2.760   4.296  0.00  0.00    +0.049 C 
ATOM     28  C   UNL     1      -9.178  -3.160   5.494  0.00  0.00    +0.161 C 
ATOM     29  O   UNL     1      -9.065  -4.584   5.545  0.00  0.00    -0.380 OA
ATOM     30  C   UNL     1      -8.445  -5.161   4.394  0.00  0.00    +0.161 C 
ATOM     31  C   UNL     1      -9.280  -4.842   3.151  0.00  0.00    +0.049 C 
BRANCH  26  35
ATOM     32  C   UNL     1     -11.928  -2.408  -0.320  0.00  0.00    +0.120 A 
ATOM     33  C   UNL     1     -11.487  -1.393   0.516  0.00  0.00    +0.046 A 
ATOM     34  C   UNL     1     -10.676  -1.691   1.594  0.00  0.00    +0.008 A 
ATOM     35  C   UNL     1     -10.303  -3.000   1.839  0.00  0.00    -0.032 A 
ATOM     36  C   UNL     1     -10.741  -4.013   1.007  0.00  0.00    +0.008 A 
ATOM     37  C   UNL     1     -11.557  -3.721  -0.069  0.00  0.00    +0.046 A 
BRANCH  32  39
ATOM     38  C   UNL     1     -13.067  -0.744  -1.579  0.00  0.00    +0.277 C 
ATOM     39  O   UNL     1     -12.726  -2.117  -1.381  0.00  0.00    -0.495 OA
ENDBRANCH  32  39
ENDBRANCH  26  35
ENDBRANCH  22  26
ENDBRANCH  21  24
ENDBRANCH   1  21
TORSDOF 8
