REMARK  Name = ZINC01021266
REMARK  10 active torsions:
REMARK  status: ('A' for Active; 'I' for Inactive)
REMARK    1  A    between atoms: C_1  and  O_2
REMARK    2  A    between atoms: O_2  and  C_3
REMARK    3  A    between atoms: C_7  and  N_9
REMARK    4  A    between atoms: C_10  and  C_11
REMARK    5  A    between atoms: C_16  and  O_17
REMARK    6  A    between atoms: C_19  and  N_33
REMARK    7  A    between atoms: C_20  and  C_31
REMARK    8  A    between atoms: C_21  and  C_23
REMARK    9  A    between atoms: C_28  and  O_29
REMARK   10  A    between atoms: O_29  and  C_30
REMARK                            x       y       z     vdW  Elec       q    Type
REMARK                         _______ _______ _______ _____ _____    ______ ____
ROOT
ATOM      1  C   UNL     1      -0.820   6.276  -3.561  0.00  0.00    +0.035 A 
ATOM      2  C   UNL     1      -0.163   5.822  -2.412  0.00  0.00    +0.021 A 
ATOM      3  C   UNL     1      -0.806   5.844  -1.194  0.00  0.00    +0.008 A 
ATOM      4  C   UNL     1      -2.110   6.317  -1.100  0.00  0.00    +0.138 A 
ATOM      5  C   UNL     1      -2.771   6.771  -2.236  0.00  0.00    +0.092 A 
ATOM      6  C   UNL     1      -2.137   6.754  -3.464  0.00  0.00    +0.129 A 
ATOM      7  O   UNL     1      -2.753   6.344   0.093  0.00  0.00    -0.441 OA
ATOM      8  C   UNL     1      -2.050   6.292   1.235  0.00  0.00    +0.199 C 
ATOM      9  C   UNL     1      -0.780   5.830   1.272  0.00  0.00    +0.098 C 
ATOM     10  C   UNL     1      -0.082   5.350   0.031  0.00  0.00    +0.101 C 
ENDROOT
BRANCH  10  11
ATOM     11  C   UNL     1      -0.057   3.844   0.023  0.00  0.00    +0.007 A 
ATOM     12  C   UNL     1      -1.242   3.132   0.031  0.00  0.00    +0.008 A 
ATOM     13  C   UNL     1      -1.220   1.750   0.017  0.00  0.00    +0.001 A 
ATOM     14  C   UNL     1      -0.013   1.076   0.008  0.00  0.00    +0.004 A 
ATOM     15  C   UNL     1       1.174   1.782   0.000  0.00  0.00    +0.046 A 
ATOM     16  C   UNL     1       1.155   3.169   0.008  0.00  0.00    +0.124 A 
BRANCH  16  17
ATOM     17  O   UNL     1       2.321   3.867   0.000  0.00  0.00    -0.495 OA
ATOM     18  C   UNL     1       3.531   3.107  -0.016  0.00  0.00    +0.277 C 
ENDBRANCH  16  17
ENDBRANCH  10  11
BRANCH   8  19
ATOM     19  N   UNL     1      -2.638   6.718   2.400  0.00  0.00    -0.328 N 
ATOM     20  H   UNL     1      -3.549   7.051   2.389  0.00  0.00    +0.145 HD
ATOM     21  H   UNL     1      -2.143   6.686   3.233  0.00  0.00    +0.145 HD
ENDBRANCH   8  19
BRANCH   1  23
ATOM     22  N   UNL     1      -0.752   6.676  -5.930  0.00  0.00    -0.255 NA
ATOM     23  C   UNL     1      -0.136   6.252  -4.861  0.00  0.00    +0.123 C 
BRANCH  22  28
ATOM     24  C   UNL     1      -0.130   6.164  -9.496  0.00  0.00    +0.122 A 
ATOM     25  C   UNL     1       1.181   6.612  -9.592  0.00  0.00    +0.046 A 
ATOM     26  C   UNL     1       1.842   7.078  -8.470  0.00  0.00    +0.006 A 
ATOM     27  C   UNL     1       1.201   7.108  -7.249  0.00  0.00    +0.028 A 
ATOM     28  C   UNL     1      -0.115   6.654  -7.141  0.00  0.00    +0.067 A 
ATOM     29  C   UNL     1      -0.781   6.184  -8.274  0.00  0.00    +0.073 A 
BRANCH  24  31
ATOM     30  C   UNL     1      -0.043   5.716 -11.829  0.00  0.00    +0.277 C 
ATOM     31  O   UNL     1      -0.774   5.707 -10.601  0.00  0.00    -0.495 OA
ENDBRANCH  24  31
ENDBRANCH  22  28
ENDBRANCH   1  23
BRANCH   6  32
ATOM     32  O   UNL     1      -2.784   7.197  -4.572  0.00  0.00    -0.506 OA
ATOM     33  H   UNL     1      -3.279   6.510  -5.039  0.00  0.00    +0.292 HD
ENDBRANCH   6  32
BRANCH   9  34
ATOM     34  C   UNL     1      -0.086   5.799   2.524  0.00  0.00    +0.101 C 
ATOM     35  N   UNL     1       0.464   5.774   3.518  0.00  0.00    -0.191 NA
ENDBRANCH   9  34
TORSDOF 8
