REMARK  Name = ZINC64774069
REMARK  7 active torsions:
REMARK  status: ('A' for Active; 'I' for Inactive)
REMARK    1  A    between atoms: C_6  and  C_7
REMARK    2  A    between atoms: C_7  and  S_8
REMARK    3  A    between atoms: S_8  and  C_9
REMARK    4  A    between atoms: C_15  and  C_23
REMARK    5  A    between atoms: C_26  and  O_29
REMARK    6  A    between atoms: O_29  and  C_30
REMARK    7  A    between atoms: C_30  and  C_31
REMARK                            x       y       z     vdW  Elec       q    Type
REMARK                         _______ _______ _______ _____ _____    ______ ____
ROOT
ATOM      1  C   UNL     1      -3.615  -2.131  -2.735  0.00  0.00    +0.182 C 
ATOM      2  N   UNL     1      -3.805  -2.034  -1.430  0.00  0.00    -0.154 NA
ATOM      3  C   UNL     1      -4.864  -2.575  -0.825  0.00  0.00    +0.249 C 
ATOM      4  O   UNL     1      -5.017  -2.503   0.379  0.00  0.00    -0.273 OA
ATOM      5  C   UNL     1      -5.867  -3.283  -1.712  0.00  0.00    +0.148 C 
ATOM      6  C   UNL     1      -6.049  -4.709  -1.188  0.00  0.00    +0.047 C 
ATOM      7  C   UNL     1      -7.184  -5.376  -1.969  0.00  0.00    +0.105 C 
ATOM      8  C   UNL     1      -7.000  -5.193  -3.447  0.00  0.00    +0.219 C 
ATOM      9  O   UNL     1      -7.594  -5.933  -4.201  0.00  0.00    -0.275 OA
ATOM     10  N   UNL     1      -6.207  -4.244  -3.973  0.00  0.00    -0.273 N 
ATOM     11  C   UNL     1      -5.481  -3.415  -3.174  0.00  0.00    +0.117 C 
ATOM     12  N   UNL     1      -4.400  -2.811  -3.579  0.00  0.00    -0.212 NA
ATOM     13  H   UNL     1      -6.160  -4.137  -4.936  0.00  0.00    +0.156 HD
ENDROOT
BRANCH   6  14
ATOM     14  C   UNL     1      -4.772  -5.485  -1.382  0.00  0.00    -0.042 A 
ATOM     15  C   UNL     1      -3.951  -5.745  -0.299  0.00  0.00    +0.007 A 
ATOM     16  C   UNL     1      -2.780  -6.457  -0.474  0.00  0.00    +0.046 A 
ATOM     17  C   UNL     1      -2.428  -6.910  -1.737  0.00  0.00    +0.121 A 
ATOM     18  C   UNL     1      -3.253  -6.649  -2.821  0.00  0.00    +0.046 A 
ATOM     19  C   UNL     1      -4.426  -5.941  -2.640  0.00  0.00    +0.007 A 
BRANCH  17  20
ATOM     20  O   UNL     1      -1.276  -7.610  -1.912  0.00  0.00    -0.483 OA
BRANCH  20  21
ATOM     21  C   UNL     1      -0.976  -8.046  -3.240  0.00  0.00    +0.324 C 
BRANCH  21  22
ATOM     22  C   UNL     1       0.329  -8.799  -3.239  0.00  0.00    +0.248 C 
ATOM     23  O   UNL     1       0.943  -8.948  -2.204  0.00  0.00    -0.272 OA
ATOM     24  N   UNL     1       0.814  -9.307  -4.389  0.00  0.00    -0.327 N 
ATOM     25  H   UNL     1       0.324  -9.188  -5.217  0.00  0.00    +0.145 HD
ATOM     26  H   UNL     1       1.655  -9.792  -4.388  0.00  0.00    +0.145 HD
ENDBRANCH  21  22
ENDBRANCH  20  21
ENDBRANCH  17  20
ENDBRANCH   6  14
BRANCH   1  27
ATOM     27  S   UNL     1      -2.223  -1.294  -3.417  0.00  0.00    -0.084 S 
BRANCH  27  28
ATOM     28  C   UNL     1      -1.435  -0.512  -1.982  0.00  0.00    +0.112 C 
BRANCH  28  34
ATOM     29  C   UNL     1      -0.324   1.575  -2.804  0.00  0.00    +0.006 A 
ATOM     30  C   UNL     1       0.796   2.272  -3.216  0.00  0.00    +0.020 A 
ATOM     31  C   UNL     1       2.027   1.642  -3.256  0.00  0.00    +0.041 A 
ATOM     32  C   UNL     1       2.136   0.314  -2.885  0.00  0.00    +0.020 A 
ATOM     33  C   UNL     1       1.016  -0.382  -2.472  0.00  0.00    +0.006 A 
ATOM     34  C   UNL     1      -0.214   0.248  -2.432  0.00  0.00    -0.037 A 
ATOM     35 CL   UNL     1       3.434   2.518  -3.775  0.00  0.00    -0.084 Cl
ENDBRANCH  28  34
ENDBRANCH  27  28
ENDBRANCH   1  27
TORSDOF 7
