REMARK  Name = ZINC66762823
REMARK  6 active torsions:
REMARK  status: ('A' for Active; 'I' for Inactive)
REMARK    1  A    between atoms: C_4  and  C_7
REMARK    2  A    between atoms: C_15  and  C_17
REMARK    3  A    between atoms: C_17  and  C_18
REMARK    4  A    between atoms: C_18  and  N_19
REMARK    5  A    between atoms: C_21  and  S_24
REMARK    6  A    between atoms: S_24  and  N_27
REMARK                            x       y       z     vdW  Elec       q    Type
REMARK                         _______ _______ _______ _____ _____    ______ ____
ROOT
ATOM      1  C   UNL     1       3.711  -0.707  -0.038  0.00  0.00    +0.021 C 
ATOM      2  C   UNL     1       3.792  -1.524  -1.324  0.00  0.00    +0.010 C 
ATOM      3  C   UNL     1       5.240  -1.732  -1.694  0.00  0.00    +0.020 C 
ATOM      4  C   UNL     1       5.758  -3.048  -1.086  0.00  0.00    +0.108 C 
ATOM      5  N   UNL     1       5.261  -3.260   0.287  0.00  0.00    -0.301 N 
ATOM      6  C   UNL     1       5.199  -2.199   1.268  0.00  0.00    +0.108 C 
ATOM      7  C   UNL     1       3.815  -1.507   1.192  0.00  0.00    +0.027 C 
ATOM      8  C   UNL     1       4.849  -4.493   0.642  0.00  0.00    +0.217 C 
ATOM      9  O   UNL     1       4.436  -4.695   1.765  0.00  0.00    -0.276 OA
ENDROOT
BRANCH   1  13
ATOM     10  C   UNL     1      -0.017   1.378   0.010  0.00  0.00    +0.000 A 
ATOM     11  C   UNL     1       1.171   2.086   0.002  0.00  0.00    +0.000 A 
ATOM     12  C   UNL     1       2.377   1.411  -0.013  0.00  0.00    +0.004 A 
ATOM     13  C   UNL     1       2.396   0.029  -0.020  0.00  0.00    -0.044 A 
ATOM     14  C   UNL     1       1.208  -0.679  -0.012  0.00  0.00    +0.004 A 
ATOM     15  C   UNL     1       0.002  -0.004   0.002  0.00  0.00    +0.000 A 
ENDBRANCH   1  13
BRANCH   8  16
ATOM     16  C   UNL     1       4.900  -5.621  -0.356  0.00  0.00    +0.119 C 
BRANCH  16  17
ATOM     17  C   UNL     1       4.379  -6.903   0.297  0.00  0.00    +0.152 C 
BRANCH  17  18
ATOM     18  N   UNL     1       4.429  -8.000  -0.673  0.00  0.00    -0.269 N 
ATOM     19  C   UNL     1       5.047  -9.187  -0.499  0.00  0.00    +0.136 A 
ATOM     20  C   UNL     1       4.861  -9.918  -1.622  0.00  0.00    +0.142 A 
ATOM     21  C   UNL     1       4.104  -9.151  -2.514  0.00  0.00    +0.162 A 
ATOM     22  N   UNL     1       3.839  -8.004  -1.944  0.00  0.00    -0.178 NA
BRANCH  20  23
ATOM     23  S   UNL     1       5.467 -11.547  -1.911  0.00  0.00    +0.059 S 
ATOM     24  O   UNL     1       5.546 -11.707  -3.321  0.00  0.00    -0.153 OA
ATOM     25  O   UNL     1       6.592 -11.719  -1.060  0.00  0.00    -0.153 OA
BRANCH  23  26
ATOM     26  N   UNL     1       4.306 -12.602  -1.379  0.00  0.00    -0.203 NA
ATOM     27  H   UNL     1       3.482 -12.264  -0.996  0.00  0.00    +0.144 HD
ATOM     28  H   UNL     1       4.451 -13.559  -1.451  0.00  0.00    +0.144 HD
ENDBRANCH  23  26
ENDBRANCH  20  23
ENDBRANCH  17  18
ENDBRANCH  16  17
ENDBRANCH   8  16
TORSDOF 6
