REMARK  Name = ZINC02509431
REMARK  6 active torsions:
REMARK  status: ('A' for Active; 'I' for Inactive)
REMARK    1  A    between atoms: C_1  and  O_2
REMARK    2  A    between atoms: O_2  and  C_3
REMARK    3  A    between atoms: C_8  and  C_9
REMARK    4  A    between atoms: N_13  and  N_14
REMARK    5  A    between atoms: C_15  and  C_16
REMARK    6  A    between atoms: C_25  and  O_26
REMARK                            x       y       z     vdW  Elec       q    Type
REMARK                         _______ _______ _______ _____ _____    ______ ____
ROOT
ATOM      1  C   UNL     1       0.005  -2.850   0.225  0.00  0.00    +0.187 A 
ATOM      2  N   UNL     1       1.214  -2.363   0.163  0.00  0.00    -0.151 NA
ATOM      3  N   UNL     1       2.093  -3.418  -0.116  0.00  0.00    -0.253 N 
ATOM      4  C   UNL     1       1.357  -4.544  -0.217  0.00  0.00    +0.197 A 
ATOM      5  N   UNL     1       0.069  -4.211  -0.004  0.00  0.00    -0.188 N 
ATOM      6  S   UNL     1       1.954  -6.114  -0.548  0.00  0.00    -0.010 S 
ATOM      7  H   UNL     1       3.055  -3.351  -0.218  0.00  0.00    +0.191 HD
ENDROOT
BRANCH   1  13
ATOM      8  C   UNL     1      -1.155  -0.696   0.715  0.00  0.00    +0.131 A 
ATOM      9  C   UNL     1      -2.313   0.021   0.965  0.00  0.00    +0.046 A 
ATOM     10  C   UNL     1      -3.533  -0.627   1.007  0.00  0.00    +0.004 A 
ATOM     11  C   UNL     1      -3.607  -1.994   0.800  0.00  0.00    +0.001 A 
ATOM     12  C   UNL     1      -2.462  -2.721   0.549  0.00  0.00    +0.015 A 
ATOM     13  C   UNL     1      -1.225  -2.077   0.499  0.00  0.00    +0.063 A 
BRANCH   8  15
ATOM     14  C   UNL     1       0.040   1.351   0.903  0.00  0.00    +0.277 C 
ATOM     15  O   UNL     1       0.045  -0.060   0.673  0.00  0.00    -0.494 OA
ENDBRANCH   8  15
ENDBRANCH   1  13
BRANCH   5  16
ATOM     16  N   UNL     1      -1.020  -5.093  -0.016  0.00  0.00    -0.170 NA
ATOM     17  C   UNL     1      -0.818  -6.373  -0.123  0.00  0.00    +0.145 C 
BRANCH  17  18
ATOM     18  C   UNL     1      -1.961  -7.291  -0.227  0.00  0.00    +0.044 A 
ATOM     19  C   UNL     1      -1.752  -8.733  -0.342  0.00  0.00    -0.006 A 
ATOM     20  C   UNL     1      -0.466  -9.287  -0.356  0.00  0.00    +0.009 A 
ATOM     21  C   UNL     1      -0.315 -10.637  -0.465  0.00  0.00    +0.001 A 
ATOM     22  C   UNL     1      -1.423 -11.476  -0.561  0.00  0.00    +0.001 A 
ATOM     23  C   UNL     1      -2.688 -10.970  -0.550  0.00  0.00    +0.008 A 
ATOM     24  C   UNL     1      -2.881  -9.583  -0.440  0.00  0.00    -0.017 A 
ATOM     25  C   UNL     1      -4.172  -9.025  -0.424  0.00  0.00    +0.012 A 
ATOM     26  C   UNL     1      -4.348  -7.682  -0.316  0.00  0.00    +0.046 A 
ATOM     27  C   UNL     1      -3.268  -6.806  -0.213  0.00  0.00    +0.126 A 
BRANCH  27  28
ATOM     28  O   UNL     1      -3.491  -5.471  -0.102  0.00  0.00    -0.506 OA
ATOM     29  H   UNL     1      -3.537  -5.008  -0.950  0.00  0.00    +0.292 HD
ENDBRANCH  27  28
ENDBRANCH  17  18
ENDBRANCH   5  16
TORSDOF 5
