REMARK  Name = ZINC26440183
REMARK  4 active torsions:
REMARK  status: ('A' for Active; 'I' for Inactive)
REMARK    1  A    between atoms: C_4  and  N_7
REMARK    2  A    between atoms: N_13  and  C_16
REMARK    3  A    between atoms: C_16  and  C_17
REMARK    4  A    between atoms: C_17  and  C_18
REMARK                            x       y       z     vdW  Elec       q    Type
REMARK                         _______ _______ _______ _____ _____    ______ ____
ROOT
ATOM      1  N   UNL     1      -1.206   2.971   0.024  0.00  0.00    -0.296 N 
ATOM      2  C   UNL     1      -1.187   1.624   0.017  0.00  0.00    +0.302 C 
ATOM      3  O   UNL     1      -0.131   1.031  -0.083  0.00  0.00    -0.253 OA
ATOM      4  N   UNL     1      -2.340   0.934   0.120  0.00  0.00    -0.283 N 
ATOM      5  C   UNL     1      -2.336  -0.534   0.218  0.00  0.00    +0.124 C 
ATOM      6  C   UNL     1      -3.190  -0.939   1.429  0.00  0.00    +0.103 C 
ATOM      7  N   UNL     1      -4.521  -0.330   1.309  0.00  0.00    -0.298 NA
ATOM      8  C   UNL     1      -4.441   1.137   1.341  0.00  0.00    +0.103 C 
ATOM      9  C   UNL     1      -3.637   1.628   0.132  0.00  0.00    +0.124 C 
ATOM     10  H   UNL     1      -2.166   3.508   0.026  0.00  0.00    +0.151 HD
ENDROOT
BRANCH   1  14
ATOM     11  C   UNL     1       1.641   6.033   0.875  0.00  0.00    +0.000 C 
ATOM     12  C   UNL     1       1.136   5.894  -0.563  0.00  0.00    +0.002 C 
ATOM     13  C   UNL     1      -0.179   5.111  -0.567  0.00  0.00    +0.022 C 
ATOM     14  C   UNL     1       0.053   3.721   0.028  0.00  0.00    +0.074 C 
ATOM     15  C   UNL     1       0.558   3.860   1.466  0.00  0.00    +0.022 C 
ATOM     16  C   UNL     1       1.873   4.643   1.471  0.00  0.00    +0.002 C 
ENDBRANCH   1  14
BRANCH   7  17
ATOM     17  C   UNL     1      -5.426  -0.830   2.353  0.00  0.00    +0.099 C 
BRANCH  17  18
ATOM     18  C   UNL     1      -5.680  -2.323   2.134  0.00  0.00    +0.134 C 
BRANCH  18  19
ATOM     19  C   UNL     1      -6.586  -2.825   3.180  0.00  0.00    +0.064 C 
ATOM     20  N   UNL     1      -7.285  -3.212   3.987  0.00  0.00    -0.197 NA
ENDBRANCH  18  19
ENDBRANCH  17  18
ENDBRANCH   7  17
TORSDOF 4
