REMARK  Name = ZINC02519909
REMARK  9 active torsions:
REMARK  status: ('A' for Active; 'I' for Inactive)
REMARK    1  A    between atoms: C_4  and  S_7
REMARK    2  A    between atoms: S_7  and  N_10
REMARK    3  A    between atoms: N_10  and  C_11
REMARK    4  A    between atoms: C_11  and  C_12
REMARK    5  A    between atoms: N_14  and  N_15
REMARK    6  A    between atoms: C_16  and  C_17
REMARK    7  A    between atoms: C_20  and  O_23
REMARK    8  A    between atoms: O_23  and  C_24
REMARK    9  A    between atoms: C_24  and  C_26
REMARK                            x       y       z     vdW  Elec       q    Type
REMARK                         _______ _______ _______ _____ _____    ______ ____
ROOT
ATOM      1  N   UNL     1      -1.979  -1.788   5.785  0.00  0.00    -0.188 NA
ATOM      2  C   UNL     1      -2.842  -1.657   6.745  0.00  0.00    +0.138 C 
ENDROOT
BRANCH   2   3
ATOM      3  C   UNL     1      -2.739  -2.502   7.949  0.00  0.00    -0.005 A 
ATOM      4  C   UNL     1      -1.716  -3.447   8.056  0.00  0.00    +0.013 A 
ATOM      5  C   UNL     1      -1.620  -4.231   9.186  0.00  0.00    +0.047 A 
ATOM      6  C   UNL     1      -2.545  -4.089  10.212  0.00  0.00    +0.132 A 
ATOM      7  C   UNL     1      -3.567  -3.154  10.108  0.00  0.00    +0.047 A 
ATOM      8  C   UNL     1      -3.667  -2.363   8.984  0.00  0.00    +0.013 A 
BRANCH   6   9
ATOM      9  O   UNL     1      -2.450  -4.868  11.321  0.00  0.00    -0.422 OA
BRANCH   9  10
ATOM     10  C   UNL     1      -3.410  -5.797  11.500  0.00  0.00    +0.344 C 
ATOM     11  O   UNL     1      -4.246  -5.980  10.638  0.00  0.00    -0.245 OA
BRANCH  10  12
ATOM     12  C   UNL     1      -3.445  -6.592  12.744  0.00  0.00    +0.059 A 
ATOM     13  C   UNL     1      -2.481  -6.388  13.734  0.00  0.00    +0.016 A 
ATOM     14  C   UNL     1      -2.523  -7.129  14.896  0.00  0.00    +0.016 A 
ATOM     15  C   UNL     1      -3.511  -8.084  15.077  0.00  0.00    +0.018 A 
ATOM     16  C   UNL     1      -4.465  -8.295  14.096  0.00  0.00    +0.016 A 
ATOM     17  C   UNL     1      -4.438  -7.556  12.932  0.00  0.00    +0.016 A 
ATOM     18 BR   UNL     1      -3.556  -9.102  16.670  0.00  0.00    -0.050 Br
ENDBRANCH  10  12
ENDBRANCH   9  10
ENDBRANCH   6   9
ENDBRANCH   2   3
BRANCH   1  21
ATOM     19  C   UNL     1      -1.180  -1.121   3.644  0.00  0.00    +0.248 C 
ATOM     20  O   UNL     1      -0.288  -1.938   3.737  0.00  0.00    -0.273 OA
ATOM     21  N   UNL     1      -2.077  -0.985   4.641  0.00  0.00    -0.206 N 
ATOM     22  H   UNL     1      -2.886  -0.244   4.556  0.00  0.00    +0.177 HD
BRANCH  19  23
ATOM     23  C   UNL     1      -1.286  -0.258   2.413  0.00  0.00    +0.203 C 
BRANCH  23  24
ATOM     24  N   UNL     1      -0.203  -0.595   1.485  0.00  0.00    -0.181 NA
ATOM     25  H   UNL     1       0.728  -1.040   1.866  0.00  0.00    +0.149 HD
BRANCH  24  26
ATOM     26  S   UNL     1      -0.273  -0.087  -0.089  0.00  0.00    +0.059 S 
ATOM     27  O   UNL     1      -1.566  -0.428  -0.569  0.00  0.00    -0.153 OA
ATOM     28  O   UNL     1       0.918  -0.543  -0.716  0.00  0.00    -0.153 OA
BRANCH  26  32
ATOM     29  C   UNL     1      -0.062   4.435  -0.046  0.00  0.00    +0.000 A 
ATOM     30  C   UNL     1       1.099   3.690  -0.123  0.00  0.00    +0.002 A 
ATOM     31  C   UNL     1       1.035   2.309  -0.136  0.00  0.00    +0.028 A 
ATOM     32  C   UNL     1      -0.191   1.673  -0.072  0.00  0.00    +0.105 A 
ATOM     33  C   UNL     1      -1.353   2.419  -0.001  0.00  0.00    +0.028 A 
ATOM     34  C   UNL     1      -1.288   3.800   0.018  0.00  0.00    +0.002 A 
ENDBRANCH  26  32
ENDBRANCH  24  26
ENDBRANCH  23  24
ENDBRANCH  19  23
ENDBRANCH   1  21
TORSDOF 9
