REMARK  Name = ZINC25268531
REMARK  4 active torsions:
REMARK  status: ('A' for Active; 'I' for Inactive)
REMARK    1  A    between atoms: C_8  and  S_10
REMARK    2  A    between atoms: S_10  and  C_11
REMARK    3  A    between atoms: C_11  and  C_12
REMARK    4  A    between atoms: C_15  and  C_17
REMARK                            x       y       z     vdW  Elec       q    Type
REMARK                         _______ _______ _______ _____ _____    ______ ____
ROOT
ATOM      1  C   UNL     1       0.002  -0.004   0.002  0.00  0.00    +0.090 A 
ATOM      2  C   UNL     1       1.288  -0.399  -0.012  0.00  0.00    +0.221 A 
ATOM      3  O   UNL     1       2.048   0.714  -0.014  0.00  0.00    -0.443 OA
ATOM      4  C   UNL     1       1.222   1.774  -0.000  0.00  0.00    +0.227 A 
ATOM      5  N   UNL     1      -0.016   1.338   0.009  0.00  0.00    -0.213 NA
ENDROOT
BRANCH   4   6
ATOM      6  C   UNL     1       1.637   3.192   0.004  0.00  0.00    +0.037 A 
ATOM      7  C   UNL     1       0.674   4.204   0.012  0.00  0.00    +0.016 A 
ATOM      8  C   UNL     1       1.067   5.526   0.020  0.00  0.00    +0.039 A 
ATOM      9  C   UNL     1       2.414   5.851   0.009  0.00  0.00    +0.123 A 
ATOM     10  C   UNL     1       3.374   4.851  -0.005  0.00  0.00    +0.039 A 
ATOM     11  C   UNL     1       2.992   3.526  -0.008  0.00  0.00    +0.016 A 
ATOM     12  F   UNL     1       2.794   7.148   0.012  0.00  0.00    -0.205 F 
ENDBRANCH   4   6
BRANCH   1  13
ATOM     13  C   UNL     1      -1.204  -0.908   0.008  0.00  0.00    +0.137 C 
BRANCH  13  14
ATOM     14  S   UNL     1      -1.702  -1.260  -1.696  0.00  0.00    -0.061 S 
BRANCH  14  22
ATOM     15  C   UNL     1      -6.697  -5.011  -1.337  0.00  0.00    +0.002 A 
ATOM     16  C   UNL     1      -6.505  -4.885   0.030  0.00  0.00    +0.004 A 
ATOM     17  C   UNL     1      -5.471  -4.116   0.524  0.00  0.00    +0.048 A 
ATOM     18  C   UNL     1      -4.617  -3.464  -0.350  0.00  0.00    +0.156 A 
ATOM     19  C   UNL     1      -4.807  -3.588  -1.734  0.00  0.00    +0.110 A 
ATOM     20  C   UNL     1      -5.857  -4.369  -2.220  0.00  0.00    +0.031 A 
ATOM     21  N   UNL     1      -3.832  -2.849  -2.331  0.00  0.00    -0.203 NA
ATOM     22  C   UNL     1      -3.090  -2.304  -1.399  0.00  0.00    +0.258 A 
ATOM     23  O   UNL     1      -3.539  -2.663  -0.183  0.00  0.00    -0.431 OA
ENDBRANCH  14  22
ENDBRANCH  13  14
ENDBRANCH   1  13
TORSDOF 4
