REMARK  Name = ZINC07248377
REMARK  6 active torsions:
REMARK  status: ('A' for Active; 'I' for Inactive)
REMARK    1  A    between atoms: C_1  and  C_2
REMARK    2  A    between atoms: C_2  and  N_3
REMARK    3  A    between atoms: C_7  and  S_9
REMARK    4  A    between atoms: S_9  and  C_10
REMARK    5  A    between atoms: C_10  and  C_11
REMARK    6  A    between atoms: C_24  and  C_26
REMARK                            x       y       z     vdW  Elec       q    Type
REMARK                         _______ _______ _______ _____ _____    ______ ____
ROOT
ATOM      1  C   UNL     1       1.454  -8.511  -2.414  0.00  0.00    +0.230 C 
ATOM      2  O   UNL     1       2.055  -8.624  -3.462  0.00  0.00    -0.274 OA
ATOM      3  N   UNL     1       1.075  -9.611  -1.733  0.00  0.00    -0.266 N 
ATOM      4  C   UNL     1       0.375  -9.496  -0.524  0.00  0.00    +0.058 A 
ATOM      5  C   UNL     1       1.015  -9.058   0.624  0.00  0.00    +0.025 A 
ATOM      6  C   UNL     1       0.314  -8.973   1.812  0.00  0.00    +0.002 A 
ATOM      7  C   UNL     1      -1.022  -9.325   1.860  0.00  0.00    +0.002 A 
ATOM      8  C   UNL     1      -1.671  -9.754   0.717  0.00  0.00    +0.025 A 
ATOM      9  C   UNL     1      -0.979  -9.832  -0.480  0.00  0.00    +0.055 A 
ATOM     10  N   UNL     1      -1.627 -10.210  -1.661  0.00  0.00    -0.284 N 
ATOM     11  C   UNL     1      -1.084 -11.143  -2.473  0.00  0.00    +0.219 C 
ATOM     12  O   UNL     1      -1.613 -11.401  -3.533  0.00  0.00    -0.275 OA
ATOM     13  C   UNL     1       0.175 -11.865  -2.069  0.00  0.00    +0.118 C 
ATOM     14  C   UNL     1       1.381 -10.948  -2.246  0.00  0.00    +0.087 C 
ATOM     15  C   UNL     1       2.571 -11.527  -1.479  0.00  0.00    +0.029 C 
ATOM     16  H   UNL     1      -2.473  -9.799  -1.899  0.00  0.00    +0.155 HD
ENDROOT
BRANCH   1  17
ATOM     17  C   UNL     1       1.132  -7.142  -1.873  0.00  0.00    +0.172 C 
BRANCH  17  18
ATOM     18  S   UNL     1       1.770  -5.879  -3.008  0.00  0.00    -0.088 S 
BRANCH  18  23
ATOM     19  N   UNL     1       0.688  -0.476  -1.203  0.00  0.00    -0.322 N 
ATOM     20  C   UNL     1       0.831  -1.840  -1.432  0.00  0.00    +0.182 A 
ATOM     21  N   UNL     1       0.422  -2.858  -0.700  0.00  0.00    -0.125 NA
ATOM     22  N   UNL     1       0.671  -4.145  -1.116  0.00  0.00    -0.133 NA
ATOM     23  C   UNL     1       1.319  -4.355  -2.246  0.00  0.00    +0.160 A 
ATOM     24  S   UNL     1       1.613  -2.682  -2.800  0.00  0.00    -0.025 S 
ATOM     25  H   UNL     1       1.042   0.162  -1.842  0.00  0.00    +0.148 HD
BRANCH  19  27
ATOM     26  C   UNL     1      -0.019   1.526   0.010  0.00  0.00    +0.024 C 
ATOM     27  C   UNL     1       0.002  -0.004   0.002  0.00  0.00    +0.100 C 
ENDBRANCH  19  27
ENDBRANCH  18  23
ENDBRANCH  17  18
ENDBRANCH   1  17
TORSDOF 4
