REMARK  Name = ZINC38676014
REMARK  11 active torsions:
REMARK  status: ('A' for Active; 'I' for Inactive)
REMARK    1  A    between atoms: C_1  and  C_2
REMARK    2  A    between atoms: C_2  and  C_3
REMARK    3  A    between atoms: C_3  and  C_4
REMARK    4  A    between atoms: C_4  and  C_5
REMARK    5  A    between atoms: C_5  and  C_6
REMARK    6  A    between atoms: C_6  and  C_7
REMARK    7  A    between atoms: N_9  and  C_10
REMARK    8  A    between atoms: C_10  and  C_11
REMARK    9  A    between atoms: C_11  and  C_12
REMARK   10  A    between atoms: C_20  and  C_22
REMARK   11  A    between atoms: N_29  and  C_32
REMARK                            x       y       z     vdW  Elec       q    Type
REMARK                         _______ _______ _______ _____ _____    ______ ____
ROOT
ATOM      1  C   UNL     1       3.741  -8.328   6.452  0.00  0.00    -0.033 C 
ATOM      2  C   UNL     1       4.408  -7.693   7.443  0.00  0.00    -0.000 A 
ATOM      3  C   UNL     1       4.506  -6.281   7.830  0.00  0.00    +0.010 A 
ATOM      4  C   UNL     1       5.271  -5.943   8.893  0.00  0.00    +0.001 A 
ATOM      5  C   UNL     1       5.971  -6.906   9.632  0.00  0.00    +0.002 A 
ATOM      6  C   UNL     1       5.931  -8.223   9.338  0.00  0.00    +0.026 A 
ATOM      7  C   UNL     1       5.157  -8.691   8.240  0.00  0.00    +0.043 A 
ATOM      8  N   UNL     1       4.960  -9.895   7.761  0.00  0.00    -0.374 N 
ATOM      9  C   UNL     1       4.059  -9.798   6.608  0.00  0.00    +0.130 C 
ATOM     10  H   UNL     1       5.344 -10.713   8.112  0.00  0.00    +0.161 HD
ENDROOT
BRANCH   9  11
ATOM     11  C   UNL     1       2.795 -10.578   6.865  0.00  0.00    +0.020 C 
ATOM     12  C   UNL     1       2.497 -11.654   6.103  0.00  0.00    +0.100 C 
ATOM     13  C   UNL     1       1.178 -12.318   6.181  0.00  0.00    +0.274 C 
ATOM     14  O   UNL     1       0.226 -11.865   7.023  0.00  0.00    -0.268 OA
ATOM     15  N   UNL     1       0.955 -13.362   5.408  0.00  0.00    -0.153 NA
ATOM     16  C   UNL     1       1.875 -13.832   4.567  0.00  0.00    +0.171 C 
ATOM     17  S   UNL     1       1.473 -15.194   3.612  0.00  0.00    -0.016 S 
ATOM     18  N   UNL     1       3.097 -13.299   4.424  0.00  0.00    -0.213 N 
ATOM     19  C   UNL     1       3.476 -12.220   5.143  0.00  0.00    +0.261 C 
ATOM     20  O   UNL     1       4.583 -11.734   5.011  0.00  0.00    -0.269 OA
BRANCH  18  21
ATOM     21  C   UNL     1       3.994 -13.868   3.510  0.00  0.00    +0.078 A 
ATOM     22  C   UNL     1       4.026 -13.421   2.196  0.00  0.00    +0.027 A 
ATOM     23  C   UNL     1       4.911 -13.983   1.297  0.00  0.00    +0.002 A 
ATOM     24  C   UNL     1       5.765 -14.992   1.704  0.00  0.00    +0.003 A 
ATOM     25  C   UNL     1       5.737 -15.441   3.011  0.00  0.00    +0.040 A 
ATOM     26  C   UNL     1       4.857 -14.879   3.918  0.00  0.00    +0.145 A 
ATOM     27  F   UNL     1       4.834 -15.313   5.197  0.00  0.00    -0.204 F 
ENDBRANCH  18  21
ENDBRANCH   9  11
BRANCH   1  28
ATOM     28  C   UNL     1       2.855  -7.697   5.409  0.00  0.00    +0.052 C 
BRANCH  28  29
ATOM     29  C   UNL     1       2.813  -6.183   5.621  0.00  0.00    +0.108 C 
BRANCH  29  32
ATOM     30  C   UNL     1       1.765  -4.236   4.598  0.00  0.00    +0.213 C 
ATOM     31  O   UNL     1       2.310  -3.542   5.430  0.00  0.00    -0.276 OA
ATOM     32  N   UNL     1       1.952  -5.571   4.607  0.00  0.00    -0.315 N 
ATOM     33  H   UNL     1       1.516  -6.125   3.941  0.00  0.00    +0.149 HD
BRANCH  30  34
ATOM     34  C   UNL     1       0.879  -3.606   3.555  0.00  0.00    +0.096 C 
BRANCH  34  35
ATOM     35  C   UNL     1       0.838  -2.091   3.768  0.00  0.00    +0.009 C 
BRANCH  35  36
ATOM     36  C   UNL     1      -0.062  -1.452   2.708  0.00  0.00    +0.000 C 
BRANCH  36  37
ATOM     37  C   UNL     1      -0.103   0.063   2.921  0.00  0.00    -0.000 C 
BRANCH  37  39
ATOM     38  C   UNL     1      -1.044   2.217   2.074  0.00  0.00    +0.004 C 
ATOM     39  C   UNL     1      -1.002   0.703   1.861  0.00  0.00    -0.003 C 
ENDBRANCH  37  39
ENDBRANCH  36  37
ENDBRANCH  35  36
ENDBRANCH  34  35
ENDBRANCH  30  34
ENDBRANCH  29  32
ENDBRANCH  28  29
ENDBRANCH   1  28
TORSDOF 10
