REMARK  Name = ZINC65318960
REMARK  6 active torsions:
REMARK  status: ('A' for Active; 'I' for Inactive)
REMARK    1  A    between atoms: C_1  and  C_2
REMARK    2  A    between atoms: C_5  and  C_23
REMARK    3  A    between atoms: C_7  and  S_8
REMARK    4  A    between atoms: S_8  and  N_11
REMARK    5  A    between atoms: N_11  and  C_12
REMARK    6  A    between atoms: C_25  and  C_28
REMARK                            x       y       z     vdW  Elec       q    Type
REMARK                         _______ _______ _______ _____ _____    ______ ____
ROOT
ATOM      1  C   UNL     1      -1.604   0.567   0.225  0.00  0.00    +0.046 C 
ATOM      2  C   UNL     1      -1.448  -0.900   0.531  0.00  0.00    -0.024 A 
ATOM      3  C   UNL     1      -2.011  -1.844  -0.309  0.00  0.00    +0.006 A 
ATOM      4  C   UNL     1      -1.870  -3.189  -0.033  0.00  0.00    +0.012 A 
ATOM      5  C   UNL     1      -1.160  -3.595   1.095  0.00  0.00    +0.024 A 
ATOM      6  C   UNL     1      -0.594  -2.641   1.937  0.00  0.00    +0.040 A 
ATOM      7  C   UNL     1      -0.736  -1.298   1.649  0.00  0.00    +0.109 A 
ENDROOT
BRANCH   5   8
ATOM      8  C   UNL     1      -1.006  -5.040   1.397  0.00  0.00    +0.203 A 
ATOM      9  N   UNL     1      -1.498  -6.048   0.662  0.00  0.00    -0.183 NA
ATOM     10  C   UNL     1      -1.183  -7.196   1.207  0.00  0.00    +0.314 A 
ATOM     11  O   UNL     1      -0.471  -6.953   2.321  0.00  0.00    -0.328 OA
ATOM     12  N   UNL     1      -0.361  -5.541   2.424  0.00  0.00    -0.055 NA
BRANCH  10  13
ATOM     13  C   UNL     1      -1.549  -8.535   0.685  0.00  0.00    +0.304 C 
ATOM     14  O   UNL     1      -2.083  -8.639  -0.401  0.00  0.00    -0.265 OA
ATOM     15  N   UNL     1      -1.290  -9.637   1.417  0.00  0.00    -0.294 N 
ATOM     16  C   UNL     1      -0.757  -9.522   2.781  0.00  0.00    +0.108 C 
ATOM     17  C   UNL     1      -1.659 -10.317   3.731  0.00  0.00    +0.019 C 
ATOM     18  C   UNL     1      -1.784 -11.755   3.225  0.00  0.00    +0.003 C 
ATOM     19  C   UNL     1      -2.427 -11.755   1.836  0.00  0.00    +0.019 C 
ATOM     20  C   UNL     1      -1.540 -10.976   0.867  0.00  0.00    +0.108 C 
ENDBRANCH  10  13
ENDBRANCH   5   8
BRANCH   7  21
ATOM     21  S   UNL     1      -0.016  -0.090   2.709  0.00  0.00    +0.059 S 
ATOM     22  O   UNL     1       0.637  -0.802   3.752  0.00  0.00    -0.153 OA
ATOM     23  O   UNL     1       0.669   0.831   1.871  0.00  0.00    -0.153 OA
BRANCH  21  24
ATOM     24  N   UNL     1      -1.259   0.746   3.414  0.00  0.00    -0.183 NA
ATOM     25  H   UNL     1      -1.366   1.695   3.241  0.00  0.00    +0.149 HD
BRANCH  24  26
ATOM     26  C   UNL     1      -2.199   0.054   4.300  0.00  0.00    +0.107 C 
ATOM     27  C   UNL     1      -3.628   0.420   3.904  0.00  0.00    +0.025 C 
ATOM     28  C   UNL     1      -4.582  -0.135   4.968  0.00  0.00    +0.007 C 
ATOM     29  C   UNL     1      -4.390   0.669   6.253  0.00  0.00    +0.035 C 
ATOM     30  C   UNL     1      -2.931   0.734   6.623  0.00  0.00    -0.043 A 
ATOM     31  C   UNL     1      -1.926   0.456   5.726  0.00  0.00    -0.026 A 
ATOM     32  C   UNL     1      -0.600   0.541   6.131  0.00  0.00    +0.005 A 
ATOM     33  C   UNL     1      -0.284   0.899   7.425  0.00  0.00    +0.000 A 
ATOM     34  C   UNL     1      -1.295   1.175   8.327  0.00  0.00    +0.000 A 
ATOM     35  C   UNL     1      -2.611   1.091   7.926  0.00  0.00    +0.004 A 
ENDBRANCH  24  26
ENDBRANCH  21  24
ENDBRANCH   7  21
TORSDOF 5
