REMARK  Name = ZINC31868364
REMARK  6 active torsions:
REMARK  status: ('A' for Active; 'I' for Inactive)
REMARK    1  A    between atoms: C_1  and  C_2
REMARK    2  A    between atoms: C_6  and  C_11
REMARK    3  A    between atoms: N_7  and  C_10
REMARK    4  A    between atoms: C_13  and  C_14
REMARK    5  A    between atoms: N_16  and  C_17
REMARK    6  A    between atoms: C_17  and  C_18
REMARK                            x       y       z     vdW  Elec       q    Type
REMARK                         _______ _______ _______ _____ _____    ______ ____
ROOT
ATOM      1  C   UNL     1       1.804  -1.720  -0.025  0.00  0.00    +0.046 C 
ATOM      2  C   UNL     1       1.336  -0.287  -0.012  0.00  0.00    -0.017 A 
ATOM      3  C   UNL     1       2.268   0.753  -0.015  0.00  0.00    +0.076 A 
ATOM      4  C   UNL     1       1.731   2.061  -0.003  0.00  0.00    +0.116 A 
ATOM      5  N   UNL     1       2.507   3.137  -0.005  0.00  0.00    -0.227 NA
ATOM      6  C   UNL     1       3.809   3.041  -0.019  0.00  0.00    +0.110 A 
ATOM      7  N   UNL     1       4.439   1.841  -0.031  0.00  0.00    -0.299 N 
ATOM      8  C   UNL     1       3.747   0.685  -0.030  0.00  0.00    +0.262 A 
ATOM      9  O   UNL     1       4.323  -0.388  -0.041  0.00  0.00    -0.267 OA
ATOM     10  C   UNL     1       5.904   1.800  -0.046  0.00  0.00    +0.153 C 
ATOM     11  C   UNL     1       4.635   4.302  -0.020  0.00  0.00    +0.086 C 
ATOM     12  S   UNL     1      -0.022   1.781   0.012  0.00  0.00    -0.064 S 
ATOM     13  C   UNL     1       0.002  -0.004   0.002  0.00  0.00    +0.079 A 
ENDROOT
BRANCH  13  14
ATOM     14  C   UNL     1      -1.131  -0.935   0.007  0.00  0.00    +0.251 C 
ATOM     15  O   UNL     1      -0.932  -2.135  -0.001  0.00  0.00    -0.270 OA
ATOM     16  N   UNL     1      -2.393  -0.460   0.022  0.00  0.00    -0.307 N 
ATOM     17  H   UNL     1      -2.572   0.625   0.030  0.00  0.00    +0.149 HD
BRANCH  16  18
ATOM     18  C   UNL     1      -3.525  -1.390   0.028  0.00  0.00    +0.131 C 
BRANCH  18  19
ATOM     19  C   UNL     1      -4.814  -0.611   0.044  0.00  0.00    -0.016 C 
ATOM     20  C   UNL     1      -5.720  -0.824  -0.878  0.00  0.00    +0.005 C 
ENDBRANCH  18  19
ENDBRANCH  16  18
ENDBRANCH  13  14
TORSDOF 3
