REMARK  Name = ZINC57460553
REMARK  9 active torsions:
REMARK  status: ('A' for Active; 'I' for Inactive)
REMARK    1  A    between atoms: C_1  and  C_2
REMARK    2  A    between atoms: C_3  and  C_22
REMARK    3  A    between atoms: C_4  and  C_10
REMARK    4  A    between atoms: C_13  and  O_18
REMARK    5  A    between atoms: C_14  and  O_16
REMARK    6  A    between atoms: O_16  and  C_17
REMARK    7  A    between atoms: O_18  and  C_19
REMARK    8  A    between atoms: N_24  and  C_25
REMARK    9  A    between atoms: N_24  and  C_26
REMARK                            x       y       z     vdW  Elec       q    Type
REMARK                         _______ _______ _______ _____ _____    ______ ____
ROOT
ATOM      1  C   UNL     1       0.042   1.320  -0.301  0.00  0.00    +0.061 C 
ATOM      2  C   UNL     1       0.132  -0.176  -0.141  0.00  0.00    +0.017 C 
ATOM      3  C   UNL     1      -1.000  -0.912  -0.139  0.00  0.00    +0.056 C 
ATOM      4  C   UNL     1      -0.864  -2.413   0.026  0.00  0.00    +0.139 C 
ATOM      5  N   UNL     1       0.500  -2.948   0.170  0.00  0.00    -0.315 N 
ATOM      6  C   UNL     1       1.534  -2.083   0.148  0.00  0.00    +0.135 C 
ATOM      7  S   UNL     1       3.126  -2.691   0.315  0.00  0.00    -0.019 S 
ATOM      8  N   UNL     1       1.356  -0.765  -0.005  0.00  0.00    -0.300 N 
ATOM      9  H   UNL     1       0.651  -3.900   0.279  0.00  0.00    +0.149 HD
ATOM     10  H   UNL     1       2.142  -0.195  -0.017  0.00  0.00    +0.154 HD
ENDROOT
BRANCH   4  11
ATOM     11  C   UNL     1      -1.496  -3.070  -1.175  0.00  0.00    -0.019 A 
ATOM     12  C   UNL     1      -0.769  -3.217  -2.342  0.00  0.00    +0.009 A 
ATOM     13  C   UNL     1      -1.344  -3.820  -3.446  0.00  0.00    +0.050 A 
ATOM     14  C   UNL     1      -2.650  -4.278  -3.383  0.00  0.00    +0.168 A 
ATOM     15  C   UNL     1      -3.381  -4.130  -2.208  0.00  0.00    +0.162 A 
ATOM     16  C   UNL     1      -2.797  -3.530  -1.104  0.00  0.00    +0.055 A 
BRANCH  15  17
ATOM     17  O   UNL     1      -4.663  -4.578  -2.142  0.00  0.00    -0.491 OA
ATOM     18  C   UNL     1      -5.353  -4.392  -0.904  0.00  0.00    +0.277 C 
ENDBRANCH  15  17
BRANCH  14  19
ATOM     19  O   UNL     1      -3.217  -4.870  -4.468  0.00  0.00    -0.431 OA
BRANCH  19  20
ATOM     20  C   UNL     1      -2.408  -4.988  -5.640  0.00  0.00    +0.541 C 
ATOM     21  F   UNL     1      -2.019  -3.714  -6.068  0.00  0.00    -0.166 F 
ATOM     22  F   UNL     1      -1.271  -5.749  -5.347  0.00  0.00    -0.166 F 
ENDBRANCH  19  20
ENDBRANCH  14  19
ENDBRANCH   4  11
BRANCH   3  23
ATOM     23  C   UNL     1      -2.270  -0.303  -0.284  0.00  0.00    +0.246 C 
ATOM     24  O   UNL     1      -2.814  -0.282  -1.373  0.00  0.00    -0.270 OA
ATOM     25  N   UNL     1      -2.877   0.253   0.783  0.00  0.00    -0.304 N 
ATOM     26  C   UNL     1      -4.229   0.801   0.653  0.00  0.00    +0.132 C 
ATOM     27  C   UNL     1      -2.185   0.308   2.073  0.00  0.00    +0.132 C 
ENDBRANCH   3  23
TORSDOF 5
