REMARK  Name = ZINC39272595
REMARK  6 active torsions:
REMARK  status: ('A' for Active; 'I' for Inactive)
REMARK    1  A    between atoms: C_1  and  C_2
REMARK    2  A    between atoms: C_3  and  C_15
REMARK    3  A    between atoms: N_6  and  C_9
REMARK    4  A    between atoms: C_15  and  C_36
REMARK    5  A    between atoms: N_23  and  C_29
REMARK    6  A    between atoms: C_29  and  C_30
REMARK                            x       y       z     vdW  Elec       q    Type
REMARK                         _______ _______ _______ _____ _____    ______ ____
ROOT
ATOM      1  C   UNL     1      -2.454  -0.179  -0.104  0.00  0.00    +0.187 C 
ATOM      2  C   UNL     1      -3.256  -0.508  -1.370  0.00  0.00    +0.144 C 
ATOM      3  C   UNL     1      -4.186   0.743  -1.359  0.00  0.00    +0.179 C 
ATOM      4  N   UNL     1      -3.295   1.825  -1.035  0.00  0.00    -0.295 N 
ATOM      5  C   UNL     1      -2.302   1.340  -0.230  0.00  0.00    +0.235 C 
ATOM      6  O   UNL     1      -1.438   2.006   0.300  0.00  0.00    -0.274 OA
ATOM      7  N   UNL     1      -4.973   0.700  -2.562  0.00  0.00    -0.260 N 
ATOM      8  C   UNL     1      -5.500  -0.522  -2.867  0.00  0.00    +0.330 C 
ATOM      9  N   UNL     1      -5.242  -1.605  -2.105  0.00  0.00    -0.128 NA
ATOM     10  C   UNL     1      -4.160  -1.698  -1.321  0.00  0.00    +0.248 C 
ATOM     11  O   UNL     1      -3.898  -2.764  -0.548  0.00  0.00    -0.273 OA
ATOM     12  O   UNL     1      -6.216  -0.637  -3.845  0.00  0.00    -0.250 OA
ATOM     13  H   UNL     1      -3.383   2.743  -1.336  0.00  0.00    +0.151 HD
ENDROOT
BRANCH   1  16
ATOM     14  C   UNL     1      -1.464  -2.207  -2.251  0.00  0.00    +0.065 C 
ATOM     15  C   UNL     1      -0.681  -1.739  -1.051  0.00  0.00    +0.040 A 
ATOM     16  C   UNL     1      -1.111  -0.861  -0.122  0.00  0.00    +0.063 A 
ATOM     17  C   UNL     1      -0.081  -0.692   0.832  0.00  0.00    +0.276 A 
ATOM     18  O   UNL     1      -0.121   0.028   1.814  0.00  0.00    -0.266 OA
ATOM     19  N   UNL     1       0.954  -1.473   0.460  0.00  0.00    -0.219 N 
ATOM     20  N   UNL     1       0.583  -2.137  -0.717  0.00  0.00    -0.294 N 
ATOM     21  H   UNL     1       1.129  -2.768  -1.211  0.00  0.00    +0.187 HD
BRANCH  19  22
ATOM     22  C   UNL     1       2.174  -1.602   1.130  0.00  0.00    +0.067 A 
ATOM     23  C   UNL     1       2.404  -0.888   2.299  0.00  0.00    +0.028 A 
ATOM     24  C   UNL     1       3.611  -1.018   2.959  0.00  0.00    +0.002 A 
ATOM     25  C   UNL     1       4.589  -1.857   2.457  0.00  0.00    +0.000 A 
ATOM     26  C   UNL     1       4.363  -2.568   1.293  0.00  0.00    +0.002 A 
ATOM     27  C   UNL     1       3.156  -2.447   0.631  0.00  0.00    +0.028 A 
ENDBRANCH  19  22
ENDBRANCH   1  16
BRANCH   1  28
ATOM     28  C   UNL     1      -3.239  -0.550   1.156  0.00  0.00    +0.409 C 
ATOM     29  F   UNL     1      -2.658   0.072   2.267  0.00  0.00    -0.169 F 
ATOM     30  F   UNL     1      -4.564  -0.122   1.023  0.00  0.00    -0.169 F 
ATOM     31  F   UNL     1      -3.212  -1.937   1.331  0.00  0.00    -0.169 F 
ENDBRANCH   1  28
BRANCH   7  32
ATOM     32  C   UNL     1      -5.195   1.882  -3.399  0.00  0.00    +0.146 C 
BRANCH  32  33
ATOM     33  C   UNL     1      -4.106   1.974  -4.437  0.00  0.00    -0.030 A 
ATOM     34  C   UNL     1      -2.943   2.667  -4.160  0.00  0.00    +0.005 A 
ATOM     35  C   UNL     1      -1.945   2.752  -5.112  0.00  0.00    +0.000 A 
ATOM     36  C   UNL     1      -2.110   2.142  -6.342  0.00  0.00    +0.000 A 
ATOM     37  C   UNL     1      -3.272   1.448  -6.619  0.00  0.00    +0.000 A 
ATOM     38  C   UNL     1      -4.269   1.360  -5.665  0.00  0.00    +0.005 A 
ENDBRANCH  32  33
ENDBRANCH   7  32
TORSDOF 5
