REMARK  Name = ZINC45923025
REMARK  8 active torsions:
REMARK  status: ('A' for Active; 'I' for Inactive)
REMARK    1  A    between atoms: C_1  and  C_2
REMARK    2  A    between atoms: C_5  and  C_8
REMARK    3  A    between atoms: C_8  and  N_9
REMARK    4  A    between atoms: C_10  and  C_12
REMARK    5  A    between atoms: C_12  and  S_13
REMARK    6  A    between atoms: S_13  and  C_14
REMARK    7  A    between atoms: N_27  and  C_28
REMARK    8  A    between atoms: C_28  and  C_29
REMARK                            x       y       z     vdW  Elec       q    Type
REMARK                         _______ _______ _______ _____ _____    ______ ____
ROOT
ATOM      1  C   UNL     1       4.876  -8.769  -0.073  0.00  0.00    +0.173 A 
ATOM      2  N   UNL     1       5.750  -7.797  -0.067  0.00  0.00    -0.222 NA
ATOM      3  C   UNL     1       7.091  -8.033  -0.075  0.00  0.00    +0.095 A 
ATOM      4  C   UNL     1       8.175  -7.035  -0.070  0.00  0.00    +0.034 A 
ATOM      5  C   UNL     1       8.053  -5.626  -0.054  0.00  0.00    +0.014 A 
ATOM      6  C   UNL     1       9.196  -4.858  -0.051  0.00  0.00    +0.020 A 
ATOM      7  C   UNL     1      10.444  -5.460  -0.062  0.00  0.00    +0.112 A 
ATOM      8  N   UNL     1      10.551  -6.775  -0.077  0.00  0.00    -0.248 NA
ATOM      9  C   UNL     1       9.486  -7.549  -0.080  0.00  0.00    +0.111 A 
ATOM     10  S   UNL     1       9.261  -9.311  -0.097  0.00  0.00    -0.062 S 
ATOM     11  C   UNL     1       7.489  -9.368  -0.090  0.00  0.00    +0.105 A 
ATOM     12  C   UNL     1       6.553 -10.407  -0.096  0.00  0.00    +0.269 A 
ATOM     13  O   UNL     1       6.912 -11.573  -0.110  0.00  0.00    -0.266 OA
ATOM     14  N   UNL     1       5.238 -10.085  -0.082  0.00  0.00    -0.282 N 
ENDROOT
BRANCH   1  15
ATOM     15  S   UNL     1       3.161  -8.365  -0.061  0.00  0.00    -0.078 S 
BRANCH  15  16
ATOM     16  C   UNL     1       3.137  -6.551  -0.051  0.00  0.00    +0.173 C 
BRANCH  16  18
ATOM     17  N   UNL     1       1.447  -4.746  -0.032  0.00  0.00    -0.311 N 
ATOM     18  C   UNL     1       1.710  -6.067  -0.040  0.00  0.00    +0.224 C 
ATOM     19  O   UNL     1       0.799  -6.867  -0.040  0.00  0.00    -0.275 OA
ATOM     20  H   UNL     1       2.176  -4.106  -0.032  0.00  0.00    +0.149 HD
BRANCH  17  21
ATOM     21  C   UNL     1       0.059  -4.275  -0.021  0.00  0.00    +0.139 C 
BRANCH  21  26
ATOM     22  C   UNL     1      -0.018   1.503   0.010  0.00  0.00    +0.044 C 
ATOM     23  C   UNL     1       0.002  -0.004   0.002  0.00  0.00    -0.050 A 
ATOM     24  C   UNL     1       0.006  -0.689  -1.199  0.00  0.00    +0.003 A 
ATOM     25  C   UNL     1       0.025  -2.071  -1.206  0.00  0.00    +0.005 A 
ATOM     26  C   UNL     1       0.040  -2.768  -0.013  0.00  0.00    -0.030 A 
ATOM     27  C   UNL     1       0.037  -2.084   1.188  0.00  0.00    +0.005 A 
ATOM     28  C   UNL     1       0.023  -0.702   1.195  0.00  0.00    +0.003 A 
ENDBRANCH  21  26
ENDBRANCH  17  21
ENDBRANCH  16  18
ENDBRANCH  15  16
ENDBRANCH   1  15
BRANCH  14  29
ATOM     29  C   UNL     1       4.218 -11.136  -0.082  0.00  0.00    +0.162 C 
BRANCH  29  30
ATOM     30  C   UNL     1       3.860 -11.488  -1.503  0.00  0.00    -0.027 A 
ATOM     31  C   UNL     1       2.841 -10.811  -2.146  0.00  0.00    +0.008 A 
ATOM     32  C   UNL     1       2.512 -11.133  -3.450  0.00  0.00    +0.038 A 
ATOM     33  C   UNL     1       3.203 -12.134  -4.110  0.00  0.00    +0.123 A 
ATOM     34  C   UNL     1       4.224 -12.812  -3.464  0.00  0.00    +0.038 A 
ATOM     35  C   UNL     1       4.554 -12.484  -2.163  0.00  0.00    +0.008 A 
ATOM     36  F   UNL     1       2.882 -12.450  -5.384  0.00  0.00    -0.205 F 
ENDBRANCH  29  30
ENDBRANCH  14  29
TORSDOF 7
