REMARK  Name = ZINC43697506
REMARK  4 active torsions:
REMARK  status: ('A' for Active; 'I' for Inactive)
REMARK    1  A    between atoms: C_1  and  C_2
REMARK    2  A    between atoms: C_15  and  C_17
REMARK    3  A    between atoms: C_17  and  C_18
REMARK    4  A    between atoms: C_17  and  C_19
REMARK                            x       y       z     vdW  Elec       q    Type
REMARK                         _______ _______ _______ _____ _____    ______ ____
ROOT
ATOM      1  C   UNL     1      -0.017   1.530   0.021  0.00  0.00    +0.009 C 
ATOM      2  C   UNL     1       0.004   0.000   0.007  0.00  0.00    +0.003 C 
ATOM      3  C   UNL     1      -1.431  -0.531   0.015  0.00  0.00    +0.006 C 
ATOM      4  C   UNL     1      -1.411  -2.061  -0.032  0.00  0.00    +0.019 C 
ATOM      5  C   UNL     1      -0.691  -2.596   1.210  0.00  0.00    +0.109 C 
ATOM      6  N   UNL     1       0.639  -1.977   1.288  0.00  0.00    -0.285 N 
ATOM      7  C   UNL     1       0.741  -0.512   1.249  0.00  0.00    +0.112 C 
ATOM      8  C   UNL     1       1.746  -2.740   1.395  0.00  0.00    +0.308 C 
ATOM      9  O   UNL     1       2.845  -2.222   1.363  0.00  0.00    -0.252 OA
ATOM     10  N   UNL     1       1.633  -4.075   1.536  0.00  0.00    -0.247 N 
ATOM     11  C   UNL     1       2.768  -4.850   1.751  0.00  0.00    +0.189 A 
ATOM     12  N   UNL     1       4.027  -4.471   1.851  0.00  0.00    -0.126 NA
ATOM     13  N   UNL     1       4.960  -5.300   2.049  0.00  0.00    -0.144 NA
ATOM     14  C   UNL     1       4.667  -6.580   2.158  0.00  0.00    +0.106 A 
ATOM     15  S   UNL     1       2.893  -6.519   1.956  0.00  0.00    -0.035 S 
ATOM     16  H   UNL     1       0.760  -4.496   1.489  0.00  0.00    +0.158 HD
ENDROOT
BRANCH  14  17
ATOM     17  C   UNL     1       5.573  -7.762   2.392  0.00  0.00    +0.040 C 
ATOM     18  C   UNL     1       6.590  -7.857   1.252  0.00  0.00    +0.014 C 
ATOM     19  C   UNL     1       6.311  -7.584   3.720  0.00  0.00    +0.014 C 
ENDBRANCH  14  17
TORSDOF 1
