REMARK  Name = ZINC08790751
REMARK  6 active torsions:
REMARK  status: ('A' for Active; 'I' for Inactive)
REMARK    1  A    between atoms: C_1  and  C_2
REMARK    2  A    between atoms: C_13  and  C_15
REMARK    3  A    between atoms: C_15  and  C_16
REMARK    4  A    between atoms: C_16  and  C_17
REMARK    5  A    between atoms: N_22  and  C_25
REMARK    6  A    between atoms: C_25  and  C_26
REMARK                            x       y       z     vdW  Elec       q    Type
REMARK                         _______ _______ _______ _____ _____    ______ ____
ROOT
ATOM      1  C   UNL     1       0.295   0.727  -6.692  0.00  0.00    +0.044 C 
ATOM      2  C   UNL     1       0.203   1.830  -5.670  0.00  0.00    -0.050 A 
ATOM      3  C   UNL     1      -0.015   3.134  -6.075  0.00  0.00    +0.005 A 
ATOM      4  C   UNL     1      -0.101   4.148  -5.143  0.00  0.00    +0.024 A 
ATOM      5  C   UNL     1       0.030   3.865  -3.785  0.00  0.00    +0.036 A 
ATOM      6  C   UNL     1       0.250   2.549  -3.390  0.00  0.00    -0.027 A 
ATOM      7  C   UNL     1       0.336   1.540  -4.323  0.00  0.00    +0.008 A 
ATOM      8  C   UNL     1       0.346   2.582  -1.891  0.00  0.00    +0.050 C 
ATOM      9  C   UNL     1      -0.717   1.688  -1.240  0.00  0.00    +0.088 C 
ATOM     10  C   UNL     1      -0.013   1.086   0.008  0.00  0.00    +0.073 C 
ATOM     11  C   UNL     1       1.403   1.701  -0.002  0.00  0.00    -0.057 C 
ATOM     12  C   UNL     1      -0.791   1.653   1.174  0.00  0.00    +0.224 C 
ATOM     13  O   UNL     1      -0.562   1.431   2.343  0.00  0.00    -0.275 OA
ATOM     14  N   UNL     1      -1.782   2.438   0.690  0.00  0.00    -0.237 N 
ATOM     15  C   UNL     1      -1.822   2.530  -0.645  0.00  0.00    +0.225 C 
ATOM     16  O   UNL     1      -2.620   3.187  -1.278  0.00  0.00    -0.275 OA
ATOM     17  C   UNL     1       0.155   4.026  -1.518  0.00  0.00    +0.211 C 
ATOM     18  O   UNL     1       0.158   4.491  -0.398  0.00  0.00    -0.277 OA
ATOM     19  N   UNL     1      -0.019   4.703  -2.669  0.00  0.00    -0.286 N 
ATOM     20  H   UNL     1      -0.162   5.661  -2.718  0.00  0.00    +0.155 HD
ATOM     21  N   UNL     1       1.616   2.074  -1.402  0.00  0.00    +0.394 N 
ATOM     22  H   UNL     1       2.338   2.802  -1.470  0.00  0.00    -0.083 HD
ATOM     23  H   UNL     1       1.905   1.254  -1.948  0.00  0.00    -0.083 HD
ENDROOT
BRANCH  11  24
ATOM     24  C   UNL     1       2.434   0.671   0.466  0.00  0.00    -0.006 C 
BRANCH  24  25
ATOM     25  C   UNL     1       3.808   1.336   0.568  0.00  0.00    +0.094 C 
BRANCH  25  26
ATOM     26  C   UNL     1       4.824   0.322   1.029  0.00  0.00    +0.210 C 
ATOM     27  O   UNL     1       4.481  -0.820   1.255  0.00  0.00    -0.276 OA
ATOM     28  N   UNL     1       6.112   0.684   1.191  0.00  0.00    -0.329 N 
ATOM     29  H   UNL     1       6.385   1.597   1.011  0.00  0.00    +0.145 HD
ATOM     30  H   UNL     1       6.765   0.031   1.488  0.00  0.00    +0.145 HD
ENDBRANCH  25  26
ENDBRANCH  24  25
ENDBRANCH  11  24
BRANCH  14  31
ATOM     31  C   UNL     1      -2.729   3.138   1.561  0.00  0.00    +0.151 C 
BRANCH  31  32
ATOM     32  C   UNL     1      -3.928   2.260   1.808  0.00  0.00    -0.026 A 
ATOM     33  C   UNL     1      -5.019   2.328   0.963  0.00  0.00    +0.009 A 
ATOM     34  C   UNL     1      -6.120   1.521   1.183  0.00  0.00    +0.050 A 
ATOM     35  C   UNL     1      -6.135   0.648   2.259  0.00  0.00    +0.166 A 
ATOM     36  C   UNL     1      -5.038   0.583   3.114  0.00  0.00    +0.167 A 
ATOM     37  C   UNL     1      -3.936   1.391   2.884  0.00  0.00    +0.054 A 
ATOM     38  O   UNL     1      -5.295  -0.342   4.084  0.00  0.00    -0.453 OA
ATOM     39  C   UNL     1      -6.387  -1.134   3.581  0.00  0.00    +0.466 C 
ATOM     40  O   UNL     1      -7.080  -0.236   2.694  0.00  0.00    -0.453 OA
ENDBRANCH  31  32
ENDBRANCH  14  31
TORSDOF 5
