REMARK  Name = ZINC09148109
REMARK  5 active torsions:
REMARK  status: ('A' for Active; 'I' for Inactive)
REMARK    1  A    between atoms: N_9  and  C_12
REMARK    2  A    between atoms: C_12  and  C_13
REMARK    3  A    between atoms: N_15  and  N_25
REMARK    4  A    between atoms: C_26  and  C_27
REMARK    5  A    between atoms: C_30  and  N_32
REMARK                            x       y       z     vdW  Elec       q    Type
REMARK                         _______ _______ _______ _____ _____    ______ ____
ROOT
ATOM      1  C   UNL     1      -0.665   1.509   1.218  0.00  0.00    +0.259 C 
ATOM      2  O   UNL     1      -1.637   2.205   1.045  0.00  0.00    -0.272 OA
ATOM      3  N   UNL     1      -0.240   1.244   2.469  0.00  0.00    -0.135 N 
ATOM      4  C   UNL     1      -0.913   1.767   3.549  0.00  0.00    +0.189 A 
ATOM      5  N   UNL     1      -0.595   1.714   4.827  0.00  0.00    -0.223 NA
ATOM      6  C   UNL     1      -1.345   2.270   5.782  0.00  0.00    +0.080 A 
ATOM      7  C   UNL     1      -1.115   2.283   7.184  0.00  0.00    +0.029 A 
ATOM      8  C   UNL     1      -1.984   2.900   8.024  0.00  0.00    +0.002 A 
ATOM      9  C   UNL     1      -3.127   3.539   7.556  0.00  0.00    +0.001 A 
ATOM     10  C   UNL     1      -3.391   3.551   6.199  0.00  0.00    +0.017 A 
ATOM     11  C   UNL     1      -2.521   2.932   5.336  0.00  0.00    +0.041 A 
ATOM     12  S   UNL     1      -2.438   2.700   3.577  0.00  0.00    -0.050 S 
ENDROOT
BRANCH   3  13
ATOM     13  N   UNL     1       0.797   0.500   2.655  0.00  0.00    -0.178 NA
ATOM     14  C   UNL     1       0.681  -0.656   3.309  0.00  0.00    +0.146 C 
BRANCH  14  15
ATOM     15  C   UNL     1       1.810  -1.404   3.601  0.00  0.00    +0.034 A 
ATOM     16  C   UNL     1       1.915  -2.695   4.307  0.00  0.00    +0.019 A 
ATOM     17  C   UNL     1       3.153  -3.183   4.442  0.00  0.00    +0.041 A 
ATOM     18  C   UNL     1       4.239  -2.469   3.927  0.00  0.00    +0.164 A 
ATOM     19  S   UNL     1       3.518  -1.061   3.216  0.00  0.00    -0.064 S 
BRANCH  18  20
ATOM     20  N   UNL     1       5.674  -2.833   3.971  0.00  0.00    +0.063 N 
ATOM     21  O   UNL     1       6.050  -3.954   4.552  0.00  0.00    -0.126 OA
ATOM     22  O   UNL     1       6.573  -2.037   3.431  0.00  0.00    -0.126 OA
ENDBRANCH  18  20
ENDBRANCH  14  15
ENDBRANCH   3  13
BRANCH   1  23
ATOM     23  C   UNL     1       0.072   0.935   0.035  0.00  0.00    +0.215 C 
BRANCH  23  32
ATOM     24  C   UNL     1      -2.221   3.271  -5.094  0.00  0.00    +0.001 A 
ATOM     25  C   UNL     1      -3.030   2.151  -5.056  0.00  0.00    +0.001 A 
ATOM     26  C   UNL     1      -2.908   1.230  -4.027  0.00  0.00    +0.014 A 
ATOM     27  C   UNL     1      -1.969   1.436  -3.029  0.00  0.00    +0.049 A 
ATOM     28  C   UNL     1      -1.144   2.578  -3.068  0.00  0.00    +0.049 A 
ATOM     29  C   UNL     1      -1.277   3.489  -4.103  0.00  0.00    +0.014 A 
ATOM     30  C   UNL     1      -0.273   2.488  -1.877  0.00  0.00    +0.254 C 
ATOM     31  O   UNL     1       0.580   3.293  -1.560  0.00  0.00    -0.270 OA
ATOM     32  N   UNL     1      -0.582   1.366  -1.203  0.00  0.00    -0.225 N 
ATOM     33  C   UNL     1      -1.568   0.688  -1.819  0.00  0.00    +0.254 C 
ATOM     34  O   UNL     1      -2.049  -0.361  -1.442  0.00  0.00    -0.270 OA
ENDBRANCH  23  32
ENDBRANCH   1  23
TORSDOF 5
