REMARK  Name = ZINC03312021
REMARK  13 active torsions:
REMARK  status: ('A' for Active; 'I' for Inactive)
REMARK    1  A    between atoms: C_1  and  C_2
REMARK    2  A    between atoms: C_4  and  C_18
REMARK    3  A    between atoms: C_5  and  C_17
REMARK    4  A    between atoms: N_6  and  C_7
REMARK    5  A    between atoms: C_10  and  O_13
REMARK    6  A    between atoms: O_13  and  C_14
REMARK    7  A    between atoms: C_18  and  C_20
REMARK    8  A    between atoms: C_20  and  C_22
REMARK    9  A    between atoms: C_20  and  S_23
REMARK   10  A    between atoms: S_23  and  C_24
REMARK   11  A    between atoms: C_27  and  C_30
REMARK   12  A    between atoms: N_28  and  N_29
REMARK   13  A    between atoms: C_30  and  C_31
REMARK                            x       y       z     vdW  Elec       q    Type
REMARK                         _______ _______ _______ _____ _____    ______ ____
ROOT
ATOM      1  C   UNL     1       4.518  -2.919   0.067  0.00  0.00    +0.178 C 
ATOM      2  O   UNL     1       4.018  -3.963  -0.299  0.00  0.00    -0.291 OA
ENDROOT
BRANCH   1   6
ATOM      3  C   UNL     1       8.931  -1.366   2.086  0.00  0.00    +0.064 C 
ATOM      4  C   UNL     1       7.822  -2.206   1.508  0.00  0.00    +0.022 A 
ATOM      5  C   UNL     1       6.629  -1.744   1.095  0.00  0.00    +0.034 A 
ATOM      6  C   UNL     1       5.876  -2.910   0.615  0.00  0.00    +0.040 A 
ATOM      7  C   UNL     1       6.714  -3.997   0.781  0.00  0.00    +0.031 A 
ATOM      8  N   UNL     1       7.870  -3.558   1.314  0.00  0.00    -0.317 N 
ATOM      9  C   UNL     1       6.391  -5.426   0.426  0.00  0.00    +0.064 C 
BRANCH   8  10
ATOM     10  C   UNL     1       8.968  -4.373   1.627  0.00  0.00    +0.047 A 
ATOM     11  C   UNL     1       8.857  -5.337   2.620  0.00  0.00    +0.030 A 
ATOM     12  C   UNL     1       9.937  -6.142   2.924  0.00  0.00    +0.048 A 
ATOM     13  C   UNL     1      11.136  -5.980   2.245  0.00  0.00    +0.127 A 
ATOM     14  C   UNL     1      11.249  -5.013   1.257  0.00  0.00    +0.048 A 
ATOM     15  C   UNL     1      10.168  -4.211   0.948  0.00  0.00    +0.030 A 
BRANCH  13  16
ATOM     16  O   UNL     1      12.201  -6.769   2.548  0.00  0.00    -0.434 OA
BRANCH  16  17
ATOM     17  C   UNL     1      12.013  -7.744   3.576  0.00  0.00    +0.541 C 
ATOM     18  F   UNL     1      11.669  -7.103   4.771  0.00  0.00    -0.166 F 
ATOM     19  F   UNL     1      10.989  -8.622   3.205  0.00  0.00    -0.166 F 
ENDBRANCH  16  17
ENDBRANCH  13  16
ENDBRANCH   8  10
ENDBRANCH   1   6
BRANCH   1  20
ATOM     20  C   UNL     1       3.742  -1.632  -0.042  0.00  0.00    +0.122 C 
ATOM     21  C   UNL     1       4.107  -0.926  -1.350  0.00  0.00    +0.028 C 
BRANCH  20  22
ATOM     22  S   UNL     1       1.968  -1.995  -0.027  0.00  0.00    -0.073 S 
BRANCH  22  23
ATOM     23  C   UNL     1       1.321  -0.356  -0.013  0.00  0.00    +0.209 A 
ATOM     24  N   UNL     1       2.016   0.758  -0.013  0.00  0.00    -0.121 NA
ATOM     25  N   UNL     1       1.222   1.768  -0.000  0.00  0.00    -0.132 NA
ATOM     26  C   UNL     1      -0.017   1.363   0.009  0.00  0.00    +0.155 A 
ATOM     27  N   UNL     1       0.002  -0.004   0.002  0.00  0.00    -0.228 N 
BRANCH  27  28
ATOM     28  N   UNL     1      -1.075  -0.844   0.007  0.00  0.00    -0.295 N 
ATOM     29  H   UNL     1      -1.369  -1.061  -0.933  0.00  0.00    +0.163 HD
ATOM     30  H   UNL     1      -0.876  -1.685   0.527  0.00  0.00    +0.163 HD
ENDBRANCH  27  28
BRANCH  26  31
ATOM     31  C   UNL     1      -1.242   2.240   0.020  0.00  0.00    +0.116 C 
BRANCH  31  32
ATOM     32  C   UNL     1      -1.644   2.524   1.445  0.00  0.00    -0.005 A 
ATOM     33  C   UNL     1      -1.302   3.728   2.032  0.00  0.00    +0.007 A 
ATOM     34  C   UNL     1      -1.671   3.989   3.338  0.00  0.00    +0.000 A 
ATOM     35  C   UNL     1      -2.382   3.047   4.059  0.00  0.00    +0.003 A 
ATOM     36  C   UNL     1      -2.725   1.843   3.474  0.00  0.00    +0.038 A 
ATOM     37  C   UNL     1      -2.360   1.582   2.164  0.00  0.00    +0.127 A 
ATOM     38  F   UNL     1      -2.699   0.408   1.589  0.00  0.00    -0.205 F 
ENDBRANCH  31  32
ENDBRANCH  26  31
ENDBRANCH  22  23
ENDBRANCH  20  22
ENDBRANCH   1  20
TORSDOF 10
