REMARK  Name = ZINC09779201
REMARK  9 active torsions:
REMARK  status: ('A' for Active; 'I' for Inactive)
REMARK    1  A    between atoms: C_1  and  C_2
REMARK    2  A    between atoms: C_3  and  C_7
REMARK    3  A    between atoms: C_10  and  S_18
REMARK    4  A    between atoms: N_11  and  C_12
REMARK    5  A    between atoms: S_18  and  C_19
REMARK    6  A    between atoms: C_19  and  C_21
REMARK    7  A    between atoms: C_19  and  C_22
REMARK    8  A    between atoms: C_34  and  C_35
REMARK    9  A    between atoms: C_34  and  C_36
REMARK                            x       y       z     vdW  Elec       q    Type
REMARK                         _______ _______ _______ _____ _____    ______ ____
ROOT
ATOM      1  S   UNL     1       0.124  -2.842   1.710  0.00  0.00    -0.073 S 
ENDROOT
BRANCH   1   5
ATOM      2  C   UNL     1       2.433  -3.886  -1.268  0.00  0.00    +0.173 A 
ATOM      3  N   UNL     1       2.169  -5.034  -0.688  0.00  0.00    -0.128 NA
ATOM      4  N   UNL     1       1.401  -4.849   0.326  0.00  0.00    -0.122 NA
ATOM      5  C   UNL     1       1.130  -3.571   0.461  0.00  0.00    +0.197 A 
ATOM      6  N   UNL     1       1.772  -2.911  -0.553  0.00  0.00    -0.270 N 
BRANCH   2   9
ATOM      7  C   UNL     1       3.944  -6.108  -2.882  0.00  0.00    +0.087 C 
ATOM      8  C   UNL     1       3.941  -4.630  -3.176  0.00  0.00    +0.112 A 
ATOM      9  C   UNL     1       3.279  -3.679  -2.463  0.00  0.00    +0.060 A 
ATOM     10  C   UNL     1       3.583  -2.403  -3.124  0.00  0.00    +0.053 A 
ATOM     11  C   UNL     1       4.383  -2.703  -4.160  0.00  0.00    +0.196 A 
ATOM     12  O   UNL     1       4.588  -4.029  -4.185  0.00  0.00    -0.467 OA
ENDBRANCH   2   9
BRANCH   6  13
ATOM     13  C   UNL     1       1.764  -1.533  -0.807  0.00  0.00    +0.051 A 
ATOM     14  C   UNL     1       0.584  -0.899  -1.171  0.00  0.00    +0.026 A 
ATOM     15  C   UNL     1       0.579   0.459  -1.420  0.00  0.00    +0.002 A 
ATOM     16  C   UNL     1       1.748   1.189  -1.306  0.00  0.00    +0.000 A 
ATOM     17  C   UNL     1       2.925   0.561  -0.943  0.00  0.00    +0.002 A 
ATOM     18  C   UNL     1       2.936  -0.798  -0.693  0.00  0.00    +0.026 A 
ENDBRANCH   6  13
ENDBRANCH   1   5
BRANCH   1  19
ATOM     19  C   UNL     1      -0.344  -4.323   2.641  0.00  0.00    +0.137 C 
ATOM     20  C   UNL     1       0.902  -4.938   3.281  0.00  0.00    +0.029 C 
BRANCH  19  21
ATOM     21  C   UNL     1      -1.330  -3.949   3.717  0.00  0.00    +0.234 C 
ATOM     22  O   UNL     1      -1.588  -2.782   3.925  0.00  0.00    -0.274 OA
ATOM     23  N   UNL     1      -1.924  -4.911   4.451  0.00  0.00    -0.255 N 
ATOM     24  C   UNL     1      -2.674  -4.591   5.594  0.00  0.00    +0.059 A 
ATOM     25  C   UNL     1      -2.376  -3.475   6.354  0.00  0.00    +0.025 A 
ATOM     26  C   UNL     1      -3.130  -3.189   7.478  0.00  0.00    +0.002 A 
ATOM     27  C   UNL     1      -4.178  -4.016   7.841  0.00  0.00    +0.002 A 
ATOM     28  C   UNL     1      -4.490  -5.135   7.077  0.00  0.00    +0.025 A 
ATOM     29  C   UNL     1      -3.736  -5.428   5.951  0.00  0.00    +0.055 A 
ATOM     30  N   UNL     1      -4.024  -6.552   5.170  0.00  0.00    -0.282 N 
ATOM     31  C   UNL     1      -3.144  -6.997   4.253  0.00  0.00    +0.241 C 
ATOM     32  O   UNL     1      -3.433  -7.948   3.557  0.00  0.00    -0.273 OA
ATOM     33  C   UNL     1      -1.803  -6.329   4.082  0.00  0.00    +0.113 C 
ATOM     34  C   UNL     1      -1.358  -6.443   2.623  0.00  0.00    +0.042 C 
ATOM     35  C   UNL     1      -0.774  -7.008   4.988  0.00  0.00    +0.042 C 
ATOM     36  H   UNL     1      -4.867  -7.016   5.290  0.00  0.00    +0.155 HD
ENDBRANCH  19  21
ENDBRANCH   1  19
TORSDOF 5
