REMARK  Name = ZINC31783280
REMARK  6 active torsions:
REMARK  status: ('A' for Active; 'I' for Inactive)
REMARK    1  A    between atoms: C_1  and  C_2
REMARK    2  A    between atoms: N_13  and  C_16
REMARK    3  A    between atoms: C_16  and  C_18
REMARK    4  A    between atoms: C_16  and  C_19
REMARK    5  A    between atoms: N_21  and  N_22
REMARK    6  A    between atoms: C_23  and  C_24
REMARK                            x       y       z     vdW  Elec       q    Type
REMARK                         _______ _______ _______ _____ _____    ______ ____
ROOT
ATOM      1  C   UNL     1       8.797   5.742  -5.775  0.00  0.00    +0.008 C 
ATOM      2  C   UNL     1       7.660   5.306  -4.850  0.00  0.00    -0.009 C 
ATOM      3  C   UNL     1       7.219   3.884  -5.212  0.00  0.00    +0.008 C 
ATOM      4  C   UNL     1       5.930   3.534  -4.467  0.00  0.00    +0.037 C 
ATOM      5  C   UNL     1       6.133   3.802  -2.978  0.00  0.00    -0.023 A 
ATOM      6  C   UNL     1       7.135   4.601  -2.552  0.00  0.00    -0.004 A 
ATOM      7  S   UNL     1       6.987   4.621  -0.786  0.00  0.00    -0.073 S 
ATOM      8  C   UNL     1       5.577   3.555  -0.625  0.00  0.00    +0.116 A 
ATOM      9  C   UNL     1       5.269   3.218  -1.953  0.00  0.00    +0.076 A 
ATOM     10  C   UNL     1       4.146   2.345  -2.127  0.00  0.00    +0.263 A 
ATOM     11  O   UNL     1       3.800   1.995  -3.242  0.00  0.00    -0.267 OA
ATOM     12  N   UNL     1       3.479   1.918  -1.038  0.00  0.00    -0.287 N 
ATOM     13  C   UNL     1       3.847   2.302   0.211  0.00  0.00    +0.204 A 
ATOM     14  N   UNL     1       4.870   3.092   0.402  0.00  0.00    -0.230 NA
ATOM     15  C   UNL     1       8.148   5.314  -3.394  0.00  0.00    +0.046 C 
ENDROOT
BRANCH  12  16
ATOM     16  C   UNL     1       2.329   1.026  -1.205  0.00  0.00    +0.176 C 
ATOM     17  C   UNL     1       2.594  -0.290  -0.473  0.00  0.00    +0.041 C 
BRANCH  16  18
ATOM     18  C   UNL     1       1.098   1.681  -0.633  0.00  0.00    +0.255 C 
ATOM     19  O   UNL     1       1.174   2.784  -0.134  0.00  0.00    -0.272 OA
ATOM     20  N   UNL     1      -0.087   1.040  -0.674  0.00  0.00    -0.205 N 
ATOM     21  H   UNL     1      -0.155   0.038  -1.123  0.00  0.00    +0.177 HD
BRANCH  20  22
ATOM     22  N   UNL     1      -1.232   1.651  -0.147  0.00  0.00    -0.188 NA
ATOM     23  C   UNL     1      -2.347   0.990  -0.079  0.00  0.00    +0.138 C 
BRANCH  23  24
ATOM     24  C   UNL     1      -2.332  -0.485  -0.088  0.00  0.00    -0.005 A 
ATOM     25  C   UNL     1      -1.133  -1.175   0.107  0.00  0.00    +0.010 A 
ATOM     26  C   UNL     1      -1.127  -2.554   0.102  0.00  0.00    +0.016 A 
ATOM     27  C   UNL     1      -2.303  -3.254  -0.105  0.00  0.00    +0.018 A 
ATOM     28  C   UNL     1      -3.494  -2.576  -0.303  0.00  0.00    +0.016 A 
ATOM     29  C   UNL     1      -3.515  -1.197  -0.296  0.00  0.00    +0.010 A 
ATOM     30 BR   UNL     1      -2.284  -5.145  -0.116  0.00  0.00    -0.050 Br
ENDBRANCH  23  24
ENDBRANCH  20  22
ENDBRANCH  16  18
ENDBRANCH  12  16
TORSDOF 4
