REMARK  Name = ZINC08938013
REMARK  9 active torsions:
REMARK  status: ('A' for Active; 'I' for Inactive)
REMARK    1  A    between atoms: C_1  and  C_2
REMARK    2  A    between atoms: C_3  and  C_30
REMARK    3  A    between atoms: C_7  and  N_20
REMARK    4  A    between atoms: C_9  and  C_11
REMARK    5  A    between atoms: C_11  and  S_12
REMARK    6  A    between atoms: S_12  and  C_13
REMARK    7  A    between atoms: N_20  and  C_21
REMARK    8  A    between atoms: C_26  and  C_27
REMARK    9  A    between atoms: C_26  and  N_57
REMARK                            x       y       z     vdW  Elec       q    Type
REMARK                         _______ _______ _______ _____ _____    ______ ____
ROOT
ATOM      1  C   UNL     1       5.501   3.863  -1.426  0.00  0.00    +0.045 C 
ATOM      2  C   UNL     1       4.842   3.552  -0.107  0.00  0.00    -0.028 A 
ATOM      3  C   UNL     1       5.521   3.692   1.041  0.00  0.00    -0.008 A 
ATOM      4  S   UNL     1       4.338   3.214   2.287  0.00  0.00    -0.074 S 
ATOM      5  C   UNL     1       2.963   2.840   1.232  0.00  0.00    +0.114 A 
ATOM      6  C   UNL     1       3.463   3.097  -0.064  0.00  0.00    +0.051 A 
ATOM      7  C   UNL     1       2.546   2.873  -1.127  0.00  0.00    +0.131 A 
ATOM      8  N   UNL     1       1.323   2.453  -0.846  0.00  0.00    -0.216 NA
ATOM      9  C   UNL     1       0.922   2.232   0.393  0.00  0.00    +0.142 A 
ATOM     10  N   UNL     1       1.726   2.427   1.421  0.00  0.00    -0.224 NA
ATOM     11  C   UNL     1       6.946   4.144   1.232  0.00  0.00    +0.052 C 
ENDROOT
BRANCH   7  12
ATOM     12  N   UNL     1       2.927   3.093  -2.438  0.00  0.00    -0.326 N 
ATOM     13  H   UNL     1       3.794   3.482  -2.633  0.00  0.00    +0.148 HD
BRANCH  12  14
ATOM     14  C   UNL     1       2.021   2.738  -3.533  0.00  0.00    +0.068 C 
ATOM     15  C   UNL     1       2.200   1.259  -3.887  0.00  0.00    +0.003 C 
ATOM     16  C   UNL     1       1.297   0.910  -5.072  0.00  0.00    -0.076 C 
ATOM     17  C   UNL     1       1.435   3.175  -5.921  0.00  0.00    -0.076 C 
ATOM     18  C   UNL     1       2.344   3.593  -4.762  0.00  0.00    +0.003 C 
ATOM     19  N   UNL     1       1.675   1.749  -6.229  0.00  0.00    +0.385 N 
ATOM     20  H   UNL     1       2.673   1.614  -6.426  0.00  0.00    -0.081 HD
BRANCH  19  21
ATOM     21  C   UNL     1       0.893   1.352  -7.418  0.00  0.00    +0.018 C 
BRANCH  21  22
ATOM     22  C   UNL     1       1.455   2.056  -8.626  0.00  0.00    +0.194 C 
ATOM     23  O   UNL     1       2.453   2.738  -8.521  0.00  0.00    -0.278 OA
ATOM     24  N   UNL     1       0.850   1.927  -9.823  0.00  0.00    -0.331 N 
ATOM     25  H   UNL     1       0.052   1.382  -9.907  0.00  0.00    +0.145 HD
ATOM     26  H   UNL     1       1.212   2.380 -10.601  0.00  0.00    +0.145 HD
ENDBRANCH  21  22
ENDBRANCH  19  21
ENDBRANCH  12  14
ENDBRANCH   7  12
BRANCH   9  27
ATOM     27  C   UNL     1      -0.486   1.754   0.638  0.00  0.00    +0.150 C 
BRANCH  27  28
ATOM     28  S   UNL     1      -0.520  -0.059   0.620  0.00  0.00    -0.117 S 
BRANCH  28  29
ATOM     29  C   UNL     1      -2.211  -0.457   0.917  0.00  0.00    +0.008 A 
ATOM     30  C   UNL     1      -3.142   0.557   1.103  0.00  0.00    +0.016 A 
ATOM     31  C   UNL     1      -4.467   0.243   1.330  0.00  0.00    +0.021 A 
ATOM     32  C   UNL     1      -4.866  -1.081   1.383  0.00  0.00    +0.041 A 
ATOM     33  C   UNL     1      -3.940  -2.094   1.204  0.00  0.00    +0.021 A 
ATOM     34  C   UNL     1      -2.614  -1.786   0.971  0.00  0.00    +0.016 A 
ATOM     35 CL   UNL     1      -6.532  -1.473   1.675  0.00  0.00    -0.084 Cl
ENDBRANCH  28  29
ENDBRANCH  27  28
ENDBRANCH   9  27
TORSDOF 7
