REMARK  Name = ZINC08789783
REMARK  7 active torsions:
REMARK  status: ('A' for Active; 'I' for Inactive)
REMARK    1  A    between atoms: C_1  and  C_2
REMARK    2  A    between atoms: C_2  and  C_3
REMARK    3  A    between atoms: C_3  and  C_4
REMARK    4  A    between atoms: C_4  and  C_5
REMARK    5  A    between atoms: C_8  and  N_11
REMARK    6  A    between atoms: C_16  and  C_33
REMARK    7  A    between atoms: C_33  and  C_34
REMARK                            x       y       z     vdW  Elec       q    Type
REMARK                         _______ _______ _______ _____ _____    ______ ____
ROOT
ATOM      1  N   UNL     1       1.211  -0.638  -2.275  0.00  0.00    -0.210 N 
ATOM      2  C   UNL     1       1.894  -1.599  -1.643  0.00  0.00    +0.228 C 
ATOM      3  O   UNL     1       1.654  -2.786  -1.707  0.00  0.00    -0.275 OA
ATOM      4  C   UNL     1       3.010  -0.976  -0.836  0.00  0.00    +0.074 C 
ATOM      5  C   UNL     1       2.695  -1.130   0.667  0.00  0.00    -0.049 C 
ATOM      6  C   UNL     1       2.483   1.156   0.234  0.00  0.00    +0.050 C 
ATOM      7  C   UNL     1       2.853   0.544  -1.122  0.00  0.00    +0.088 C 
ATOM      8  C   UNL     1       1.663   0.602  -2.052  0.00  0.00    +0.229 C 
ATOM      9  O   UNL     1       1.191   1.615  -2.523  0.00  0.00    -0.275 OA
ATOM     10  C   UNL     1       1.002   1.380   0.354  0.00  0.00    -0.026 A 
ATOM     11  C   UNL     1      -0.091   0.545   0.284  0.00  0.00    +0.024 A 
ATOM     12  C   UNL     1      -1.367   1.061   0.435  0.00  0.00    +0.041 A 
ATOM     13  C   UNL     1      -1.539   2.414   0.667  0.00  0.00    +0.022 A 
ATOM     14  C   UNL     1      -0.447   3.253   0.736  0.00  0.00    +0.025 A 
ATOM     15  C   UNL     1       0.840   2.743   0.580  0.00  0.00    +0.036 A 
ATOM     16  N   UNL     1       2.083   3.380   0.606  0.00  0.00    -0.286 N 
ATOM     17  C   UNL     1       3.099   2.517   0.410  0.00  0.00    +0.211 C 
ATOM     18  O   UNL     1       4.282   2.785   0.382  0.00  0.00    -0.277 OA
ATOM     19 CL   UNL     1      -2.747   0.011   0.342  0.00  0.00    -0.084 Cl
ATOM     20  H   UNL     1       2.202   4.332   0.749  0.00  0.00    +0.155 HD
ATOM     21  N   UNL     1       2.955   0.201   1.221  0.00  0.00    +0.394 N 
ATOM     22  H   UNL     1       3.961   0.327   1.384  0.00  0.00    -0.083 HD
ATOM     23  H   UNL     1       2.447   0.323   2.105  0.00  0.00    -0.083 HD
ENDROOT
BRANCH   1  27
ATOM     24  C   UNL     1      -2.054  -1.439  -4.739  0.00  0.00    -0.047 A 
ATOM     25  C   UNL     1      -0.890  -0.928  -5.281  0.00  0.00    +0.005 A 
ATOM     26  C   UNL     1       0.194  -0.662  -4.468  0.00  0.00    +0.024 A 
ATOM     27  C   UNL     1       0.113  -0.907  -3.103  0.00  0.00    +0.044 A 
ATOM     28  C   UNL     1      -1.056  -1.425  -2.562  0.00  0.00    +0.024 A 
ATOM     29  C   UNL     1      -2.138  -1.685  -3.380  0.00  0.00    +0.005 A 
BRANCH  24  30
ATOM     30  C   UNL     1      -3.235  -1.730  -5.629  0.00  0.00    +0.035 C 
BRANCH  30  31
ATOM     31  C   UNL     1      -3.145  -3.168  -6.142  0.00  0.00    +0.004 C 
BRANCH  31  33
ATOM     32  C   UNL     1      -4.254  -4.902  -7.559  0.00  0.00    +0.004 C 
ATOM     33  C   UNL     1      -4.343  -3.463  -7.046  0.00  0.00    -0.003 C 
ENDBRANCH  31  33
ENDBRANCH  30  31
ENDBRANCH  24  30
ENDBRANCH   1  27
BRANCH   5  34
ATOM     34  C   UNL     1       3.607  -2.184   1.297  0.00  0.00    +0.080 C 
BRANCH  34  35
ATOM     35  C   UNL     1       3.252  -2.352   2.752  0.00  0.00    +0.209 C 
ATOM     36  O   UNL     1       2.358  -1.692   3.238  0.00  0.00    -0.276 OA
ATOM     37  N   UNL     1       3.929  -3.234   3.514  0.00  0.00    -0.329 N 
ATOM     38  H   UNL     1       4.644  -3.761   3.126  0.00  0.00    +0.145 HD
ATOM     39  H   UNL     1       3.700  -3.341   4.451  0.00  0.00    +0.145 HD
ENDBRANCH  34  35
ENDBRANCH   5  34
TORSDOF 6
