REMARK  Name = ZINC62775623
REMARK  2 active torsions:
REMARK  status: ('A' for Active; 'I' for Inactive)
REMARK    1  A    between atoms: C_6  and  C_7
REMARK    2  A    between atoms: C_7  and  C_9
REMARK                            x       y       z     vdW  Elec       q    Type
REMARK                         _______ _______ _______ _____ _____    ______ ____
ROOT
ATOM      1  C   UNL     1      -0.991  -2.356  -0.112  0.00  0.00    +0.041 A 
ATOM      2  C   UNL     1       0.298  -2.903  -0.122  0.00  0.00    +0.062 A 
ATOM      3  C   UNL     1       0.458  -4.268  -0.235  0.00  0.00    +0.163 A 
ATOM      4  C   UNL     1      -0.655  -5.098  -0.339  0.00  0.00    +0.163 A 
ATOM      5  C   UNL     1      -1.933  -4.560  -0.329  0.00  0.00    +0.065 A 
ATOM      6  C   UNL     1      -2.105  -3.196  -0.210  0.00  0.00    +0.032 A 
ATOM      7 BR   UNL     1      -3.847  -2.461  -0.189  0.00  0.00    -0.049 Br
ATOM      8  O   UNL     1      -0.480  -6.445  -0.449  0.00  0.00    -0.488 OA
ATOM      9  C   UNL     1       0.106  -6.902  -1.669  0.00  0.00    +0.232 C 
ATOM     10  C   UNL     1       1.623  -6.826  -1.601  0.00  0.00    +0.082 C 
ATOM     11  C   UNL     1       2.127  -5.396  -1.481  0.00  0.00    +0.232 C 
ATOM     12  O   UNL     1       1.709  -4.814  -0.245  0.00  0.00    -0.488 OA
ENDROOT
BRANCH   1  13
ATOM     13  C   UNL     1      -1.173  -0.898   0.009  0.00  0.00    +0.214 C 
ATOM     14  O   UNL     1      -2.291  -0.432   0.124  0.00  0.00    -0.285 OA
BRANCH  13  20
ATOM     15  C   UNL     1      -0.020   1.412  -0.004  0.00  0.00    +0.052 A 
ATOM     16  C   UNL     1       1.279   1.794  -0.025  0.00  0.00    +0.105 A 
ATOM     17  N   UNL     1       2.028   0.664  -0.042  0.00  0.00    -0.284 N 
ATOM     18  H   UNL     1       2.997   0.640  -0.058  0.00  0.00    +0.188 HD
ATOM     19  N   UNL     1       1.267  -0.371  -0.032  0.00  0.00    -0.171 NA
ATOM     20  C   UNL     1       0.001  -0.003  -0.009  0.00  0.00    +0.132 A 
ENDBRANCH  13  20
ENDBRANCH   1  13
TORSDOF 2
