REMARK  Name = ZINC04097450
REMARK  12 active torsions:
REMARK  status: ('A' for Active; 'I' for Inactive)
REMARK    1  A    between atoms: C_1  and  C_2
REMARK    2  A    between atoms: C_2  and  C_3
REMARK    3  A    between atoms: C_2  and  C_4
REMARK    4  A    between atoms: C_2  and  C_5
REMARK    5  A    between atoms: C_5  and  C_6
REMARK    6  A    between atoms: C_5  and  C_7
REMARK    7  A    between atoms: C_5  and  O_36
REMARK    8  A    between atoms: C_13  and  O_34
REMARK    9  A    between atoms: C_25  and  O_28
REMARK   10  A    between atoms: C_30  and  C_31
REMARK   11  A    between atoms: C_30  and  N_75
REMARK   12  A    between atoms: O_34  and  C_35
REMARK                            x       y       z     vdW  Elec       q    Type
REMARK                         _______ _______ _______ _____ _____    ______ ____
ROOT
ATOM      1  C   UNL     1       4.052   3.582   1.580  0.00  0.00    +0.057 C 
ATOM      2  C   UNL     1       4.726   2.378   0.909  0.00  0.00    +0.015 C 
ATOM      3  C   UNL     1       3.653   1.416   0.425  0.00  0.00    -0.027 C 
ATOM      4  C   UNL     1       2.818   0.944   1.624  0.00  0.00    +0.009 C 
ATOM      5  C   UNL     1       2.134   2.145   2.277  0.00  0.00    +0.039 C 
ATOM      6  C   UNL     1       2.526   3.433   1.553  0.00  0.00    +0.112 C 
ATOM      7  C   UNL     1       2.050   3.373   0.100  0.00  0.00    +0.217 C 
ATOM      8  C   UNL     1       2.720   2.157  -0.545  0.00  0.00    +0.042 C 
ATOM      9  C   UNL     1       3.390   2.494  -1.851  0.00  0.00    -0.003 C 
ATOM     10  C   UNL     1       4.099   1.281  -2.454  0.00  0.00    -0.077 C 
ATOM     11  C   UNL     1       4.201   0.200  -0.313  0.00  0.00    -0.057 C 
ATOM     12  C   UNL     1       3.132  -0.720  -0.905  0.00  0.00    +0.021 C 
ATOM     13  C   UNL     1       1.746  -0.169  -0.891  0.00  0.00    -0.041 A 
ATOM     14  C   UNL     1       1.585   1.181  -0.656  0.00  0.00    +0.011 A 
ATOM     15  C   UNL     1       0.402   1.839  -0.392  0.00  0.00    +0.166 A 
ATOM     16  C   UNL     1      -0.782   1.107  -0.560  0.00  0.00    +0.159 A 
ATOM     17  C   UNL     1      -0.649  -0.242  -0.882  0.00  0.00    +0.049 A 
ATOM     18  C   UNL     1       0.573  -0.884  -1.025  0.00  0.00    +0.007 A 
ATOM     19  O   UNL     1       0.640   3.102   0.010  0.00  0.00    -0.481 OA
ATOM     20  N   UNL     1       5.005   0.715  -1.440  0.00  0.00    +0.382 N 
ATOM     21  H   UNL     1       5.635   1.450  -1.099  0.00  0.00    -0.081 HD
ENDROOT
BRANCH   1  22
ATOM     22  C   UNL     1       4.524   3.679   3.032  0.00  0.00    +0.074 C 
ATOM     23  C   UNL     1       3.682   4.720   3.773  0.00  0.00    +0.042 C 
BRANCH  22  25
ATOM     24  C   UNL     1       6.184   5.363   2.225  0.00  0.00    +0.013 C 
ATOM     25  C   UNL     1       5.995   4.097   3.063  0.00  0.00    -0.009 C 
ATOM     26  C   UNL     1       6.417   4.373   4.507  0.00  0.00    +0.013 C 
ATOM     27  C   UNL     1       6.857   2.971   2.487  0.00  0.00    +0.013 C 
ENDBRANCH  22  25
BRANCH  22  28
ATOM     28  O   UNL     1       4.376   2.408   3.667  0.00  0.00    -0.388 OA
ATOM     29  H   UNL     1       4.883   1.698   3.249  0.00  0.00    +0.210 HD
ENDBRANCH  22  28
ENDBRANCH   1  22
BRANCH  16  30
ATOM     30  O   UNL     1      -2.004   1.686  -0.415  0.00  0.00    -0.503 OA
ATOM     31  H   UNL     1      -2.363   2.059  -1.232  0.00  0.00    +0.292 HD
ENDBRANCH  16  30
BRANCH   6  32
ATOM     32  O   UNL     1       1.927   4.552   2.210  0.00  0.00    -0.373 OA
ATOM     33  C   UNL     1       0.498   4.510   2.241  0.00  0.00    +0.194 C 
ENDBRANCH   6  32
BRANCH  20  34
ATOM     34  C   UNL     1       5.815  -0.381  -2.038  0.00  0.00    -0.075 C 
BRANCH  34  35
ATOM     35  C   UNL     1       6.751   0.201  -3.099  0.00  0.00    -0.028 C 
ATOM     36  C   UNL     1       6.570  -0.279  -4.540  0.00  0.00    +0.002 C 
ATOM     37  C   UNL     1       7.780  -0.742  -3.726  0.00  0.00    +0.002 C 
ENDBRANCH  34  35
ENDBRANCH  20  34
TORSDOF 7
