REMARK  Name = ZINC36264148
REMARK  4 active torsions:
REMARK  status: ('A' for Active; 'I' for Inactive)
REMARK    1  A    between atoms: C_2  and  S_8
REMARK    2  A    between atoms: S_8  and  N_11
REMARK    3  A    between atoms: N_11  and  C_12
REMARK    4  A    between atoms: C_15  and  N_17
REMARK                            x       y       z     vdW  Elec       q    Type
REMARK                         _______ _______ _______ _____ _____    ______ ____
ROOT
ATOM      1  S   UNL     1       1.236   3.915  -0.032  0.00  0.00    +0.060 S 
ATOM      2  O   UNL     1       2.142   4.534  -0.935  0.00  0.00    -0.153 OA
ATOM      3  O   UNL     1      -0.160   4.184  -0.049  0.00  0.00    -0.153 OA
ENDROOT
BRANCH   1   5
ATOM      4  C   UNL     1       2.292   1.675  -1.195  0.00  0.00    +0.052 A 
ATOM      5  C   UNL     1       1.416   2.176  -0.250  0.00  0.00    +0.127 A 
ATOM      6  C   UNL     1       0.699   1.310   0.506  0.00  0.00    +0.082 A 
ATOM      7  S   UNL     1       1.256  -0.270  -0.112  0.00  0.00    -0.073 S 
ATOM      8  C   UNL     1       2.407   0.331  -1.337  0.00  0.00    +0.058 A 
ATOM      9 BR   UNL     1       3.503  -0.652  -2.525  0.00  0.00    -0.042 Br
ATOM     10 BR   UNL     1      -0.565   1.678   1.865  0.00  0.00    -0.041 Br
ENDBRANCH   1   5
BRANCH   1  11
ATOM     11  N   UNL     1       1.768   4.275   1.494  0.00  0.00    -0.188 NA
ATOM     12  H   UNL     1       1.150   4.630   2.152  0.00  0.00    +0.148 HD
BRANCH  11  13
ATOM     13  C   UNL     1       3.172   4.057   1.850  0.00  0.00    +0.061 C 
ATOM     14  C   UNL     1       3.810   5.034   2.841  0.00  0.00    +0.004 C 
ATOM     15  C   UNL     1       3.477   3.606   3.280  0.00  0.00    -0.055 C 
BRANCH  15  16
ATOM     16  N   UNL     1       4.598   2.677   3.474  0.00  0.00    +0.381 N 
ATOM     17  H   UNL     1       5.450   3.104   3.142  0.00  0.00    -0.090 HD
ATOM     18  H   UNL     1       4.690   2.461   4.455  0.00  0.00    -0.090 HD
ATOM     19  H   UNL     1       4.425   1.828   2.957  0.00  0.00    -0.090 HD
ENDBRANCH  15  16
ENDBRANCH  11  13
ENDBRANCH   1  11
TORSDOF 4
