REMARK  Name = ZINC39851599
REMARK  13 active torsions:
REMARK  status: ('A' for Active; 'I' for Inactive)
REMARK    1  A    between atoms: C_1  and  C_2
REMARK    2  A    between atoms: C_2  and  C_3
REMARK    3  A    between atoms: C_3  and  C_4
REMARK    4  A    between atoms: C_4  and  C_5
REMARK    5  A    between atoms: C_5  and  C_6
REMARK    6  A    between atoms: C_6  and  N_7
REMARK    7  A    between atoms: C_11  and  C_12
REMARK    8  A    between atoms: C_13  and  C_31
REMARK    9  A    between atoms: C_14  and  C_29
REMARK   10  A    between atoms: N_17  and  C_28
REMARK   11  A    between atoms: C_18  and  N_19
REMARK   12  A    between atoms: N_19  and  C_20
REMARK   13  A    between atoms: C_20  and  C_21
REMARK                            x       y       z     vdW  Elec       q    Type
REMARK                         _______ _______ _______ _____ _____    ______ ____
ROOT
ATOM      1  C   UNL     1      -6.281  -5.692   3.546  0.00  0.00    +0.019 A 
ATOM      2  C   UNL     1      -4.960  -5.261   3.754  0.00  0.00    -0.017 A 
ATOM      3  C   UNL     1      -4.497  -5.116   5.059  0.00  0.00    +0.120 A 
ATOM      4  C   UNL     1      -5.366  -5.405   6.143  0.00  0.00    +0.270 A 
ATOM      5  O   UNL     1      -4.967  -5.279   7.287  0.00  0.00    -0.266 OA
ATOM      6  N   UNL     1      -6.626  -5.817   5.917  0.00  0.00    -0.298 N 
ATOM      7  C   UNL     1      -7.102  -5.961   4.653  0.00  0.00    +0.109 A 
ATOM      8  C   UNL     1      -7.502  -6.109   7.053  0.00  0.00    +0.154 C 
ATOM      9  C   UNL     1      -4.058  -4.961   2.585  0.00  0.00    +0.046 C 
ENDROOT
BRANCH   1  14
ATOM     10  N   UNL     1      -7.107  -2.497   0.759  0.00  0.00    -0.255 N 
ATOM     11  C   UNL     1      -6.875  -3.377   1.717  0.00  0.00    +0.258 C 
ATOM     12  O   UNL     1      -6.580  -3.017   2.842  0.00  0.00    -0.269 OA
ATOM     13  C   UNL     1      -6.983  -4.764   1.393  0.00  0.00    +0.077 C 
ATOM     14  C   UNL     1      -6.798  -5.855   2.186  0.00  0.00    +0.032 C 
ATOM     15  S   UNL     1      -7.426  -4.677  -0.336  0.00  0.00    -0.061 S 
ATOM     16  C   UNL     1      -7.440  -2.897  -0.488  0.00  0.00    +0.121 C 
ATOM     17  S   UNL     1      -7.786  -1.941  -1.865  0.00  0.00    -0.027 S 
BRANCH  10  18
ATOM     18  C   UNL     1      -7.006  -1.065   1.054  0.00  0.00    +0.115 C 
BRANCH  18  19
ATOM     19  C   UNL     1      -8.366  -0.544   1.523  0.00  0.00    +0.019 C 
BRANCH  19  20
ATOM     20  C   UNL     1      -8.261   0.951   1.831  0.00  0.00    +0.002 C 
BRANCH  20  21
ATOM     21  C   UNL     1      -9.621   1.472   2.299  0.00  0.00    -0.000 C 
BRANCH  21  23
ATOM     22  C   UNL     1     -10.875   3.488   3.076  0.00  0.00    +0.004 C 
ATOM     23  C   UNL     1      -9.515   2.967   2.608  0.00  0.00    -0.003 C 
ENDBRANCH  21  23
ENDBRANCH  20  21
ENDBRANCH  19  20
ENDBRANCH  18  19
ENDBRANCH  10  18
ENDBRANCH   1  14
BRANCH   7  24
ATOM     24  N   UNL     1      -8.387  -6.375   4.457  0.00  0.00    -0.326 N 
ATOM     25  H   UNL     1      -8.974  -6.512   5.218  0.00  0.00    +0.148 HD
BRANCH  24  26
ATOM     26  C   UNL     1      -8.882  -6.612   3.099  0.00  0.00    +0.139 C 
BRANCH  26  27
ATOM     27  C   UNL     1     -10.327  -7.036   3.157  0.00  0.00    -0.012 A 
ATOM     28  C   UNL     1     -10.659  -8.374   3.057  0.00  0.00    +0.006 A 
ATOM     29  C   UNL     1     -11.984  -8.764   3.110  0.00  0.00    +0.000 A 
ATOM     30  C   UNL     1     -12.978  -7.815   3.263  0.00  0.00    +0.001 A 
ATOM     31  C   UNL     1     -12.647  -6.477   3.364  0.00  0.00    +0.020 A 
ATOM     32  C   UNL     1     -11.321  -6.087   3.316  0.00  0.00    +0.046 A 
ATOM     33 CL   UNL     1     -10.904  -4.407   3.448  0.00  0.00    -0.083 Cl
ENDBRANCH  26  27
ENDBRANCH  24  26
ENDBRANCH   7  24
BRANCH   3  34
ATOM     34  C   UNL     1      -3.156  -4.678   5.306  0.00  0.00    +0.105 C 
ATOM     35  N   UNL     1      -2.092  -4.331   5.501  0.00  0.00    -0.191 NA
ENDBRANCH   3  34
TORSDOF 10
