REMARK  Name = ZINC63089121
REMARK  12 active torsions:
REMARK  status: ('A' for Active; 'I' for Inactive)
REMARK    1  A    between atoms: C_1  and  C_2
REMARK    2  A    between atoms: C_2  and  C_19
REMARK    3  A    between atoms: C_5  and  C_10
REMARK    4  A    between atoms: C_7  and  C_8
REMARK    5  A    between atoms: C_7  and  C_9
REMARK    6  A    between atoms: N_21  and  N_22
REMARK    7  A    between atoms: C_23  and  C_24
REMARK    8  A    between atoms: C_27  and  O_35
REMARK    9  A    between atoms: C_28  and  O_33
REMARK   10  A    between atoms: C_29  and  C_30
REMARK   11  A    between atoms: O_33  and  C_34
REMARK   12  A    between atoms: O_35  and  C_36
REMARK                            x       y       z     vdW  Elec       q    Type
REMARK                         _______ _______ _______ _____ _____    ______ ____
ROOT
ATOM      1  C   UNL     1       0.018   1.594  -0.019  0.00  0.00    +0.021 C 
ATOM      2  C   UNL     1      -0.063   0.066  -0.062  0.00  0.00    +0.051 C 
ATOM      3  C   UNL     1      -1.538  -0.386  -0.023  0.00  0.00    +0.017 C 
ATOM      4  C   UNL     1      -1.519  -1.668   0.845  0.00  0.00    +0.009 C 
ATOM      5  C   UNL     1      -0.474  -1.327   1.936  0.00  0.00    +0.038 C 
ATOM      6  C   UNL     1       0.613  -0.532   1.183  0.00  0.00    -0.015 C 
ATOM      7  C   UNL     1       1.155   0.587   2.075  0.00  0.00    +0.012 C 
ATOM      8  C   UNL     1       1.750  -1.467   0.765  0.00  0.00    +0.012 C 
ENDROOT
BRANCH   5   9
ATOM      9  C   UNL     1       0.112  -2.608   2.534  0.00  0.00    +0.178 C 
ATOM     10  N   UNL     1      -0.935  -3.363   3.234  0.00  0.00    -0.363 N 
ATOM     11  C   UNL     1      -0.580  -3.457   4.483  0.00  0.00    +0.060 A 
ATOM     12  C   UNL     1      -1.206  -4.086   5.654  0.00  0.00    +0.027 A 
ATOM     13  C   UNL     1      -0.590  -4.022   6.852  0.00  0.00    +0.002 A 
ATOM     14  C   UNL     1       0.642  -3.370   7.036  0.00  0.00    +0.002 A 
ATOM     15  C   UNL     1       1.301  -2.761   6.030  0.00  0.00    +0.027 A 
ATOM     16  C   UNL     1       0.725  -2.768   4.678  0.00  0.00    +0.060 A 
ATOM     17  N   UNL     1       1.126  -2.274   3.543  0.00  0.00    -0.363 N 
ATOM     18  H   UNL     1      -1.743  -3.724   2.838  0.00  0.00    +0.162 HD
ATOM     19  H   UNL     1       1.945  -1.777   3.390  0.00  0.00    +0.162 HD
ENDBRANCH   5   9
BRANCH   2  20
ATOM     20  C   UNL     1       0.604  -0.451  -1.311  0.00  0.00    +0.239 C 
ATOM     21  O   UNL     1       0.011  -1.215  -2.043  0.00  0.00    -0.273 OA
ATOM     22  N   UNL     1       1.859  -0.065  -1.613  0.00  0.00    -0.207 N 
ATOM     23  H   UNL     1       2.360   0.487  -0.993  0.00  0.00    +0.177 HD
BRANCH  22  24
ATOM     24  N   UNL     1       2.441  -0.462  -2.825  0.00  0.00    -0.188 NA
ATOM     25  C   UNL     1       3.651  -0.090  -3.116  0.00  0.00    +0.139 C 
BRANCH  25  26
ATOM     26  C   UNL     1       4.262  -0.506  -4.388  0.00  0.00    +0.012 A 
ATOM     27  C   UNL     1       3.596  -1.399  -5.226  0.00  0.00    +0.014 A 
ATOM     28  C   UNL     1       4.168  -1.790  -6.420  0.00  0.00    +0.050 A 
ATOM     29  C   UNL     1       5.410  -1.303  -6.800  0.00  0.00    +0.162 A 
ATOM     30  C   UNL     1       6.095  -0.410  -5.981  0.00  0.00    +0.176 A 
ATOM     31  C   UNL     1       5.525   0.001  -4.770  0.00  0.00    +0.117 A 
BRANCH  31  32
ATOM     32  C   UNL     1       6.236   0.947  -3.900  0.00  0.00    +0.391 C 
ATOM     33  O   UNL     1       5.785   1.220  -2.795  0.00  0.00    -0.240 OA
ATOM     34  O   UNL     1       7.279   1.462  -4.280  0.00  0.00    -0.240 OA
ENDBRANCH  31  32
BRANCH  30  35
ATOM     35  O   UNL     1       7.310   0.064  -6.357  0.00  0.00    -0.491 OA
ATOM     36  C   UNL     1       7.326   1.267  -7.128  0.00  0.00    +0.277 C 
ENDBRANCH  30  35
BRANCH  29  37
ATOM     37  O   UNL     1       5.960  -1.699  -7.978  0.00  0.00    -0.491 OA
ATOM     38  C   UNL     1       5.205  -2.616  -8.771  0.00  0.00    +0.277 C 
ENDBRANCH  29  37
ENDBRANCH  25  26
ENDBRANCH  22  24
ENDBRANCH   2  20
TORSDOF 7
