REMARK  Name = ZINC01818664
REMARK  5 active torsions:
REMARK  status: ('A' for Active; 'I' for Inactive)
REMARK    1  A    between atoms: C_1  and  O_2
REMARK    2  A    between atoms: O_2  and  C_3
REMARK    3  A    between atoms: N_13  and  C_16
REMARK    4  A    between atoms: C_16  and  C_17
REMARK    5  A    between atoms: C_27  and  C_29
REMARK                            x       y       z     vdW  Elec       q    Type
REMARK                         _______ _______ _______ _____ _____    ______ ____
ROOT
ATOM      1  C   UNL     1      -1.201  -0.638   0.010  0.00  0.00    +0.162 A 
ATOM      2  C   UNL     1      -2.373   0.101   0.019  0.00  0.00    +0.049 A 
ATOM      3  C   UNL     1      -3.602  -0.533   0.026  0.00  0.00    +0.004 A 
ATOM      4  C   UNL     1      -3.665  -1.917   0.015  0.00  0.00    +0.009 A 
ATOM      5  C   UNL     1      -2.507  -2.650   0.001  0.00  0.00    +0.021 A 
ATOM      6  C   UNL     1      -1.255  -2.027   0.003  0.00  0.00    +0.170 A 
ATOM      7  O   UNL     1      -0.121  -2.769   0.029  0.00  0.00    -0.466 OA
ATOM      8  C   UNL     1      -0.098  -4.109  -0.486  0.00  0.00    +0.177 C 
ATOM      9  C   UNL     1       0.990  -4.203  -1.562  0.00  0.00    +0.048 C 
ATOM     10  C   UNL     1       2.346  -3.874  -0.936  0.00  0.00    -0.073 C 
ATOM     11  N   UNL     1       2.640  -4.832   0.137  0.00  0.00    +0.383 N 
ATOM     12  C   UNL     1       1.640  -4.707   1.204  0.00  0.00    -0.073 C 
ATOM     13  C   UNL     1       0.257  -5.068   0.657  0.00  0.00    +0.048 C 
ATOM     14  N   UNL     1      -1.388  -4.437  -1.040  0.00  0.00    -0.177 NA
ATOM     15  C   UNL     1      -2.467  -4.149  -0.034  0.00  0.00    +0.138 C 
ATOM     16  C   UNL     1      -3.643  -4.815  -0.692  0.00  0.00    +0.023 C 
ATOM     17  C   UNL     1      -3.113  -5.703  -1.556  0.00  0.00    +0.047 C 
ATOM     18  N   UNL     1      -1.709  -5.656  -1.504  0.00  0.00    -0.273 N 
ATOM     19  H   UNL     1      -1.095  -6.367  -1.744  0.00  0.00    +0.167 HD
ATOM     20  H   UNL     1       2.618  -5.769  -0.235  0.00  0.00    -0.081 HD
ENDROOT
BRANCH  17  21
ATOM     21  C   UNL     1      -3.894  -6.591  -2.448  0.00  0.00    +0.000 A 
ATOM     22  C   UNL     1      -5.287  -6.542  -2.438  0.00  0.00    +0.013 A 
ATOM     23  C   UNL     1      -6.012  -7.370  -3.269  0.00  0.00    +0.050 A 
ATOM     24  C   UNL     1      -5.359  -8.254  -4.118  0.00  0.00    +0.162 A 
ATOM     25  C   UNL     1      -3.969  -8.306  -4.134  0.00  0.00    +0.163 A 
ATOM     26  C   UNL     1      -3.237  -7.474  -3.304  0.00  0.00    +0.059 A 
ATOM     27  O   UNL     1      -3.313  -9.161  -4.966  0.00  0.00    -0.485 OA
ATOM     28  C   UNL     1      -4.079 -10.237  -5.518  0.00  0.00    +0.270 C 
ATOM     29  C   UNL     1      -5.409  -9.666  -6.031  0.00  0.00    +0.270 C 
ATOM     30  O   UNL     1      -6.094  -9.065  -4.927  0.00  0.00    -0.485 OA
ENDBRANCH  17  21
BRANCH   1  32
ATOM     31  C   UNL     1      -0.017   1.425   0.010  0.00  0.00    +0.277 C 
ATOM     32  O   UNL     1       0.002  -0.004   0.002  0.00  0.00    -0.491 OA
ENDBRANCH   1  32
BRANCH  11  33
ATOM     33  C   UNL     1       3.975  -4.557   0.685  0.00  0.00    -0.043 C 
BRANCH  33  34
ATOM     34  C   UNL     1       4.328  -5.613   1.700  0.00  0.00    -0.064 A 
ATOM     35  C   UNL     1       3.993  -5.433   3.029  0.00  0.00    +0.002 A 
ATOM     36  C   UNL     1       4.317  -6.402   3.961  0.00  0.00    +0.000 A 
ATOM     37  C   UNL     1       4.976  -7.550   3.563  0.00  0.00    +0.000 A 
ATOM     38  C   UNL     1       5.310  -7.730   2.234  0.00  0.00    +0.000 A 
ATOM     39  C   UNL     1       4.982  -6.764   1.302  0.00  0.00    +0.002 A 
ENDBRANCH  33  34
ENDBRANCH  11  33
TORSDOF 4
