REMARK  Name = ZINC49508680
REMARK  9 active torsions:
REMARK  status: ('A' for Active; 'I' for Inactive)
REMARK    1  A    between atoms: C_1  and  C_2
REMARK    2  A    between atoms: C_5  and  N_14
REMARK    3  A    between atoms: C_7  and  N_8
REMARK    4  A    between atoms: C_15  and  C_17
REMARK    5  A    between atoms: N_19  and  C_20
REMARK    6  A    between atoms: C_20  and  C_21
REMARK    7  A    between atoms: C_21  and  C_23
REMARK    8  A    between atoms: C_21  and  N_34
REMARK    9  A    between atoms: N_32  and  C_33
REMARK                            x       y       z     vdW  Elec       q    Type
REMARK                         _______ _______ _______ _____ _____    ______ ____
ROOT
ATOM      1  C   UNL     1       1.736  -8.299  -0.523  0.00  0.00    +0.299 C 
ATOM      2  O   UNL     1       0.921  -7.644   0.094  0.00  0.00    -0.265 OA
ATOM      3  N   UNL     1       1.538  -8.562  -1.830  0.00  0.00    -0.309 N 
ATOM      4  H   UNL     1       2.189  -9.085  -2.323  0.00  0.00    +0.149 HD
ENDROOT
BRANCH   1   6
ATOM      5  N   UNL     1       3.154  -8.551   1.473  0.00  0.00    -0.278 N 
ATOM      6  C   UNL     1       2.957  -8.814   0.166  0.00  0.00    +0.303 C 
ATOM      7  O   UNL     1       3.771  -9.469  -0.451  0.00  0.00    -0.265 OA
ATOM      8  H   UNL     1       2.472  -8.088   1.983  0.00  0.00    +0.155 HD
BRANCH   5  13
ATOM      9  C   UNL     1       7.978 -10.148   4.003  0.00  0.00    +0.045 C 
ATOM     10  C   UNL     1       6.697  -9.725   3.330  0.00  0.00    -0.029 A 
ATOM     11  C   UNL     1       6.083  -8.542   3.696  0.00  0.00    +0.007 A 
ATOM     12  C   UNL     1       4.909  -8.151   3.082  0.00  0.00    +0.024 A 
ATOM     13  C   UNL     1       4.342  -8.947   2.094  0.00  0.00    +0.036 A 
ATOM     14  C   UNL     1       4.957 -10.135   1.724  0.00  0.00    +0.047 A 
ATOM     15  C   UNL     1       6.139 -10.522   2.339  0.00  0.00    +0.041 A 
BRANCH  15  16
ATOM     16  N   UNL     1       6.764 -11.716   1.966  0.00  0.00    -0.271 N 
ATOM     17  C   UNL     1       6.492 -13.021   2.580  0.00  0.00    +0.114 C 
ATOM     18  C   UNL     1       7.053 -14.067   1.591  0.00  0.00    +0.029 C 
ATOM     19  C   UNL     1       8.143 -13.254   0.856  0.00  0.00    +0.098 C 
ATOM     20  C   UNL     1       7.688 -11.818   0.994  0.00  0.00    +0.220 C 
ATOM     21  O   UNL     1       8.098 -10.892   0.326  0.00  0.00    -0.275 OA
ENDBRANCH  15  16
ENDBRANCH   5  13
ENDBRANCH   1   6
BRANCH   3  22
ATOM     22  C   UNL     1       0.341  -8.057  -2.506  0.00  0.00    +0.094 C 
BRANCH  22  23
ATOM     23  C   UNL     1       0.295  -8.599  -3.936  0.00  0.00    -0.020 C 
BRANCH  23  24
ATOM     24  C   UNL     1       0.161 -10.099  -3.900  0.00  0.00    -0.059 A 
ATOM     25  C   UNL     1      -1.078 -10.676  -3.684  0.00  0.00    +0.004 A 
ATOM     26  C   UNL     1      -1.200 -12.050  -3.651  0.00  0.00    +0.023 A 
ATOM     27  C   UNL     1      -0.080 -12.854  -3.834  0.00  0.00    +0.033 A 
ATOM     28  C   UNL     1       1.160 -12.275  -4.054  0.00  0.00    -0.026 A 
ATOM     29  C   UNL     1       1.273 -10.895  -4.090  0.00  0.00    +0.007 A 
ATOM     30  C   UNL     1       2.393 -13.114  -4.268  0.00  0.00    +0.038 C 
ATOM     31  C   UNL     1       2.184 -14.522  -3.713  0.00  0.00    +0.024 C 
ATOM     32  C   UNL     1       0.875 -15.089  -4.277  0.00  0.00    +0.105 C 
ATOM     33  N   UNL     1      -0.226 -14.245  -3.792  0.00  0.00    -0.333 N 
ATOM     34  C   UNL     1      -1.454 -14.850  -3.271  0.00  0.00    +0.129 C 
ENDBRANCH  23  24
BRANCH  23  35
ATOM     35  N   UNL     1      -0.856  -8.020  -4.642  0.00  0.00    +0.385 N 
ATOM     36  C   UNL     1      -0.950  -8.607  -5.984  0.00  0.00    -0.078 C 
ATOM     37  C   UNL     1      -2.193  -8.069  -6.695  0.00  0.00    -0.019 C 
ATOM     38  C   UNL     1      -2.090  -6.545  -6.809  0.00  0.00    -0.004 C 
ATOM     39  C   UNL     1      -1.918  -5.949  -5.409  0.00  0.00    -0.019 C 
ATOM     40  C   UNL     1      -0.684  -6.566  -4.746  0.00  0.00    -0.078 C 
ATOM     41  H   UNL     1      -1.700  -8.223  -4.129  0.00  0.00    -0.081 HD
ENDBRANCH  23  35
ENDBRANCH  22  23
ENDBRANCH   3  22
TORSDOF 7
