REMARK  Name = ZINC16599439
REMARK  13 active torsions:
REMARK  status: ('A' for Active; 'I' for Inactive)
REMARK    1  A    between atoms: C_1  and  C_2
REMARK    2  A    between atoms: C_2  and  N_3
REMARK    3  A    between atoms: N_3  and  C_4
REMARK    4  A    between atoms: N_3  and  S_6
REMARK    5  A    between atoms: C_4  and  C_5
REMARK    6  A    between atoms: S_6  and  C_9
REMARK    7  A    between atoms: C_15  and  C_20
REMARK    8  A    between atoms: N_22  and  C_23
REMARK    9  A    between atoms: C_23  and  C_24
REMARK   10  A    between atoms: C_24  and  C_26
REMARK   11  A    between atoms: C_24  and  N_32
REMARK   12  A    between atoms: N_32  and  C_33
REMARK   13  A    between atoms: N_32  and  C_34
REMARK                            x       y       z     vdW  Elec       q    Type
REMARK                         _______ _______ _______ _____ _____    ______ ____
ROOT
ATOM      1  C   UNL     1       3.448  -0.333  -1.534  0.00  0.00    +0.106 A 
ATOM      2  C   UNL     1       4.114   0.433  -2.488  0.00  0.00    +0.030 A 
ATOM      3  C   UNL     1       5.161  -0.077  -3.192  0.00  0.00    +0.028 A 
ATOM      4  C   UNL     1       5.575  -1.403  -2.965  0.00  0.00    +0.050 A 
ATOM      5  C   UNL     1       4.891  -2.180  -1.999  0.00  0.00    +0.012 A 
ATOM      6  C   UNL     1       3.821  -1.621  -1.289  0.00  0.00    +0.039 A 
ATOM      7  C   UNL     1       5.308  -3.517  -1.770  0.00  0.00    +0.051 A 
ATOM      8  C   UNL     1       6.375  -3.999  -2.512  0.00  0.00    +0.083 A 
ATOM      9  C   UNL     1       6.998  -3.164  -3.449  0.00  0.00    +0.250 A 
ATOM     10  N   UNL     1       6.597  -1.929  -3.647  0.00  0.00    -0.322 N 
ATOM     11  O   UNL     1       8.041  -3.643  -4.170  0.00  0.00    -0.268 OA
ATOM     12  H   UNL     1       7.127  -1.323  -4.397  0.00  0.00    +0.169 HD
ENDROOT
BRANCH   7  13
ATOM     13  C   UNL     1       4.626  -4.370  -0.772  0.00  0.00    +0.245 C 
ATOM     14  O   UNL     1       3.778  -3.893  -0.044  0.00  0.00    -0.270 OA
ATOM     15  N   UNL     1       4.946  -5.675  -0.669  0.00  0.00    -0.313 N 
ATOM     16  H   UNL     1       5.714  -6.106  -1.328  0.00  0.00    +0.149 HD
BRANCH  15  17
ATOM     17  C   UNL     1       4.271  -6.519   0.320  0.00  0.00    +0.094 C 
BRANCH  17  18
ATOM     18  C   UNL     1       4.815  -7.946   0.228  0.00  0.00    -0.021 C 
BRANCH  18  19
ATOM     19  C   UNL     1       4.036  -8.841   1.158  0.00  0.00    -0.059 A 
ATOM     20  C   UNL     1       4.704  -9.670   2.040  0.00  0.00    +0.002 A 
ATOM     21  C   UNL     1       3.990 -10.487   2.896  0.00  0.00    +0.000 A 
ATOM     22  C   UNL     1       2.608 -10.483   2.864  0.00  0.00    +0.000 A 
ATOM     23  C   UNL     1       1.940  -9.657   1.978  0.00  0.00    +0.000 A 
ATOM     24  C   UNL     1       2.654  -8.836   1.125  0.00  0.00    +0.002 A 
ENDBRANCH  18  19
BRANCH  18  25
ATOM     25  N   UNL     1       4.678  -8.435  -1.150  0.00  0.00    +0.382 N 
ATOM     26  C   UNL     1       5.382  -9.712  -1.328  0.00  0.00    -0.096 C 
ATOM     27  C   UNL     1       3.264  -8.556  -1.528  0.00  0.00    -0.096 C 
ATOM     28  H   UNL     1       5.144  -7.696  -1.819  0.00  0.00    -0.082 HD
ENDBRANCH  18  25
ENDBRANCH  17  18
ENDBRANCH  15  17
ENDBRANCH   7  13
BRANCH   1  29
ATOM     29  S   UNL     1       2.101   0.368  -0.640  0.00  0.00    +0.061 S 
ATOM     30  O   UNL     1       1.293  -0.717  -0.205  0.00  0.00    -0.153 OA
ATOM     31  O   UNL     1       1.590   1.426  -1.439  0.00  0.00    -0.153 OA
BRANCH  29  32
ATOM     32  N   UNL     1       2.730   1.066   0.724  0.00  0.00    -0.177 NA
BRANCH  32  34
ATOM     33  C   UNL     1       4.661   2.535   0.413  0.00  0.00    +0.022 C 
ATOM     34  C   UNL     1       3.160   2.467   0.698  0.00  0.00    +0.106 C 
ENDBRANCH  32  34
BRANCH  32  35
ATOM     35  C   UNL     1       2.857   0.283   1.956  0.00  0.00    +0.106 C 
ATOM     36  C   UNL     1       1.632   0.522   2.840  0.00  0.00    +0.022 C 
ENDBRANCH  32  35
ENDBRANCH  29  32
ENDBRANCH   1  29
TORSDOF 9
