REMARK  Name = ZINC62957782
REMARK  5 active torsions:
REMARK  status: ('A' for Active; 'I' for Inactive)
REMARK    1  A    between atoms: C_1  and  C_2
REMARK    2  A    between atoms: C_2  and  C_3
REMARK    3  A    between atoms: C_3  and  C_18
REMARK    4  A    between atoms: C_9  and  C_11
REMARK    5  A    between atoms: C_12  and  C_17
REMARK                            x       y       z     vdW  Elec       q    Type
REMARK                         _______ _______ _______ _____ _____    ______ ____
ROOT
ATOM      1  C   UNL     1      -0.225  -2.129   1.449  0.00  0.00    -0.029 C 
ATOM      2  C   UNL     1      -0.991  -1.600   2.664  0.00  0.00    +0.025 C 
ATOM      3  C   UNL     1      -2.404  -1.194   2.235  0.00  0.00    +0.108 C 
ATOM      4  N   UNL     1      -3.043  -2.338   1.570  0.00  0.00    -0.297 N 
ATOM      5  C   UNL     1      -2.348  -2.980   0.446  0.00  0.00    +0.108 C 
ATOM      6  C   UNL     1      -0.935  -3.366   0.895  0.00  0.00    +0.025 C 
ATOM      7  C   UNL     1      -4.244  -2.790   1.984  0.00  0.00    +0.255 C 
ATOM      8  O   UNL     1      -4.798  -3.689   1.377  0.00  0.00    -0.269 OA
ATOM      9  C   UNL     1      -0.172  -1.046   0.369  0.00  0.00    +0.011 C 
ENDROOT
BRANCH   7  10
ATOM     10  C   UNL     1      -4.880  -2.201   3.161  0.00  0.00    +0.098 A 
ATOM     11  C   UNL     1      -5.513  -2.820   4.229  0.00  0.00    +0.060 A 
ATOM     12  N   UNL     1      -5.998  -2.031   5.155  0.00  0.00    -0.230 NA
ATOM     13  C   UNL     1      -5.888  -0.717   5.069  0.00  0.00    +0.156 A 
ATOM     14  S   UNL     1      -5.053  -0.485   3.626  0.00  0.00    -0.048 S 
ATOM     15  N   UNL     1      -6.343   0.237   5.953  0.00  0.00    -0.337 N 
ATOM     16  C   UNL     1      -5.635  -4.319   4.320  0.00  0.00    +0.067 C 
ATOM     17  H   UNL     1      -6.811  -0.033   6.759  0.00  0.00    +0.144 HD
ATOM     18  H   UNL     1      -6.196   1.178   5.770  0.00  0.00    +0.144 HD
ENDBRANCH   7  10
BRANCH   1  20
ATOM     19  C   UNL     1       1.909  -1.266   2.420  0.00  0.00    +0.004 C 
ATOM     20  C   UNL     1       1.199  -2.502   1.866  0.00  0.00    +0.003 C 
ENDBRANCH   1  20
TORSDOF 2
