REMARK  Name = ZINC62779129
REMARK  2 active torsions:
REMARK  status: ('A' for Active; 'I' for Inactive)
REMARK    1  A    between atoms: C_6  and  C_7
REMARK    2  A    between atoms: C_7  and  C_9
REMARK                            x       y       z     vdW  Elec       q    Type
REMARK                         _______ _______ _______ _____ _____    ______ ____
ROOT
ATOM      1  C   UNL     1      -0.017   1.379   0.010  0.00  0.00    +0.012 A 
ATOM      2  C   UNL     1       1.167   2.083   0.002  0.00  0.00    -0.017 A 
ATOM      3  C   UNL     1       2.388   1.421  -0.013  0.00  0.00    +0.038 A 
ATOM      4  C   UNL     1       2.400   0.027  -0.021  0.00  0.00    +0.044 A 
ATOM      5  C   UNL     1       1.212  -0.676  -0.015  0.00  0.00    +0.048 A 
ATOM      6  C   UNL     1       0.002  -0.004   0.002  0.00  0.00    -0.007 A 
ATOM      7 CL   UNL     1       1.236  -2.412  -0.026  0.00  0.00    -0.083 Cl
ATOM      8  N   UNL     1       3.436   2.342  -0.018  0.00  0.00    -0.285 N 
ATOM      9  C   UNL     1       2.998   3.612  -0.006  0.00  0.00    +0.222 C 
ATOM     10  O   UNL     1       3.684   4.611  -0.007  0.00  0.00    -0.275 OA
ATOM     11  C   UNL     1       1.485   3.560   0.007  0.00  0.00    +0.133 C 
ATOM     12  H   UNL     1       4.374   2.094  -0.028  0.00  0.00    +0.155 HD
ENDROOT
BRANCH   6  13
ATOM     13  C   UNL     1      -1.291  -0.777   0.011  0.00  0.00    +0.145 C 
ATOM     14 CL   UNL     1      -2.591   0.233   0.747  0.00  0.00    -0.111 Cl
BRANCH  13  15
ATOM     15  C   UNL     1      -1.673  -1.134  -1.403  0.00  0.00    +0.012 A 
ATOM     16  C   UNL     1      -1.752  -2.384  -1.915  0.00  0.00    +0.110 A 
ATOM     17  N   UNL     1      -2.123  -2.276  -3.208  0.00  0.00    -0.284 N 
ATOM     18  H   UNL     1      -2.260  -3.011  -3.826  0.00  0.00    +0.188 HD
ATOM     19  N   UNL     1      -2.278  -0.914  -3.500  0.00  0.00    -0.182 NA
ATOM     20  C   UNL     1      -2.014  -0.231  -2.416  0.00  0.00    +0.139 A 
ENDBRANCH  13  15
ENDBRANCH   6  13
TORSDOF 2
