REMARK  Name = ZINC39677824
REMARK  8 active torsions:
REMARK  status: ('A' for Active; 'I' for Inactive)
REMARK    1  A    between atoms: C_4  and  C_7
REMARK    2  A    between atoms: C_7  and  N_8
REMARK    3  A    between atoms: C_12  and  C_15
REMARK    4  A    between atoms: C_15  and  N_16
REMARK    5  A    between atoms: C_17  and  C_19
REMARK    6  A    between atoms: C_30  and  C_32
REMARK    7  A    between atoms: C_32  and  C_33
REMARK    8  A    between atoms: C_33  and  C_34
REMARK                            x       y       z     vdW  Elec       q    Type
REMARK                         _______ _______ _______ _____ _____    ______ ____
ROOT
ATOM      1  C   UNL     1       8.614  -4.540   5.957  0.00  0.00    +0.100 C 
ATOM      2  C   UNL     1       9.072  -3.292   6.746  0.00  0.00    +0.121 C 
ATOM      3  N   UNL     1      10.135  -3.790   7.650  0.00  0.00    -0.300 N 
ATOM      4  C   UNL     1      10.891  -4.765   6.828  0.00  0.00    +0.115 C 
ATOM      5  C   UNL     1       9.811  -5.503   6.013  0.00  0.00    -0.004 C 
ATOM      6  C   UNL     1      10.320  -5.795   4.605  0.00  0.00    -0.010 C 
ATOM      7  C   UNL     1      11.473  -6.800   4.682  0.00  0.00    -0.082 C 
ATOM      8  N   UNL     1      11.005  -8.036   5.320  0.00  0.00    +0.379 N 
ATOM      9  C   UNL     1      10.604  -7.763   6.706  0.00  0.00    -0.082 C 
ATOM     10  C   UNL     1       9.414  -6.799   6.714  0.00  0.00    -0.010 C 
ATOM     11  C   UNL     1      10.363  -3.436   8.930  0.00  0.00    +0.216 C 
ATOM     12  O   UNL     1      11.281  -3.937   9.543  0.00  0.00    -0.276 OA
ATOM     13  H   UNL     1      10.215  -8.399   4.808  0.00  0.00    -0.086 HD
ATOM     14  H   UNL     1      11.748  -8.719   5.315  0.00  0.00    -0.086 HD
ENDROOT
BRANCH   1  16
ATOM     15  N   UNL     1       7.388  -4.881   3.836  0.00  0.00    -0.313 N 
ATOM     16  C   UNL     1       8.301  -4.173   4.530  0.00  0.00    +0.218 C 
ATOM     17  O   UNL     1       8.872  -3.240   4.004  0.00  0.00    -0.275 OA
ATOM     18  H   UNL     1       6.931  -5.627   4.256  0.00  0.00    +0.149 HD
BRANCH  15  19
ATOM     19  C   UNL     1       7.084  -4.524   2.448  0.00  0.00    +0.137 C 
BRANCH  19  24
ATOM     20  N   UNL     1       4.715  -6.051  -0.091  0.00  0.00    -0.293 NA
ATOM     21  C   UNL     1       3.474  -5.835   0.665  0.00  0.00    +0.113 C 
ATOM     22  C   UNL     1       3.729  -6.122   2.147  0.00  0.00    +0.175 C 
ATOM     23  O   UNL     1       4.797  -5.293   2.612  0.00  0.00    -0.372 OA
ATOM     24  C   UNL     1       6.022  -5.478   1.897  0.00  0.00    +0.149 C 
ATOM     25  C   UNL     1       5.790  -5.184   0.413  0.00  0.00    +0.118 C 
BRANCH  20  26
ATOM     26  C   UNL     1       4.499  -5.840  -1.529  0.00  0.00    +0.119 C 
BRANCH  26  30
ATOM     27  C   UNL     1       1.877  -8.858  -3.034  0.00  0.00    +0.000 A 
ATOM     28  C   UNL     1       1.359  -7.673  -2.546  0.00  0.00    +0.000 A 
ATOM     29  C   UNL     1       2.208  -6.696  -2.059  0.00  0.00    +0.005 A 
ATOM     30  C   UNL     1       3.574  -6.905  -2.059  0.00  0.00    -0.033 A 
ATOM     31  C   UNL     1       4.092  -8.091  -2.547  0.00  0.00    +0.005 A 
ATOM     32  C   UNL     1       3.244  -9.066  -3.035  0.00  0.00    +0.000 A 
ENDBRANCH  26  30
ENDBRANCH  20  26
ENDBRANCH  19  24
ENDBRANCH  15  19
ENDBRANCH   1  16
BRANCH  11  33
ATOM     33  C   UNL     1       9.475  -2.419   9.601  0.00  0.00    +0.096 C 
BRANCH  33  34
ATOM     34  C   UNL     1       9.947  -2.200  11.040  0.00  0.00    +0.013 C 
BRANCH  34  35
ATOM     35  C   UNL     1       9.046  -1.167  11.720  0.00  0.00    -0.011 C 
ATOM     36  C   UNL     1       9.256   0.220  11.079  0.00  0.00    +0.003 C 
ATOM     37  C   UNL     1       9.154   1.207  12.269  0.00  0.00    +0.000 C 
ATOM     38  C   UNL     1       9.860   0.438  13.413  0.00  0.00    +0.000 C 
ATOM     39  C   UNL     1       9.430  -1.029  13.204  0.00  0.00    +0.003 C 
ENDBRANCH  34  35
ENDBRANCH  33  34
ENDBRANCH  11  33
TORSDOF 8
