REMARK  Name = ZINC25108294
REMARK  10 active torsions:
REMARK  status: ('A' for Active; 'I' for Inactive)
REMARK    1  A    between atoms: C_1  and  C_2
REMARK    2  A    between atoms: C_2  and  C_36
REMARK    3  A    between atoms: C_4  and  N_10
REMARK    4  A    between atoms: C_6  and  C_8
REMARK    5  A    between atoms: C_6  and  C_9
REMARK    6  A    between atoms: C_11  and  C_13
REMARK    7  A    between atoms: C_13  and  C_15
REMARK    8  A    between atoms: C_13  and  N_22
REMARK    9  A    between atoms: C_15  and  C_16
REMARK   10  A    between atoms: C_27  and  O_35
REMARK                            x       y       z     vdW  Elec       q    Type
REMARK                         _______ _______ _______ _____ _____    ______ ____
ROOT
ATOM      1  C   UNL     1      -1.290   1.681   0.017  0.00  0.00    +0.165 C 
ENDROOT
BRANCH   1   2
ATOM      2  N   UNL     1      -0.011   0.966   0.007  0.00  0.00    -0.287 N 
ATOM      3  C   UNL     1       1.147   1.655   0.000  0.00  0.00    +0.308 C 
ATOM      4  O   UNL     1       1.130   2.871   0.007  0.00  0.00    -0.252 OA
ATOM      5  N   UNL     1       2.323   0.998  -0.015  0.00  0.00    -0.245 N 
ATOM      6  C   UNL     1       2.380  -0.473  -0.023  0.00  0.00    +0.210 C 
ATOM      7  C   UNL     1       3.494  -0.925   0.885  0.00  0.00    +0.206 C 
ATOM      8  N   UNL     1       4.528  -0.181   1.114  0.00  0.00    -0.214 NA
ATOM      9  C   UNL     1       4.662   1.062   0.556  0.00  0.00    +0.089 A 
ATOM     10  C   UNL     1       3.546   1.685  -0.029  0.00  0.00    +0.064 A 
ATOM     11  C   UNL     1       3.662   2.939  -0.595  0.00  0.00    +0.026 A 
ATOM     12  C   UNL     1       4.888   3.582  -0.594  0.00  0.00    +0.002 A 
ATOM     13  C   UNL     1       5.995   2.974  -0.029  0.00  0.00    +0.002 A 
ATOM     14  C   UNL     1       5.890   1.718   0.554  0.00  0.00    +0.030 A 
ATOM     15  H   UNL     1       0.004  -0.134   0.006  0.00  0.00    +0.151 HD
BRANCH   7  16
ATOM     16  O   UNL     1       3.412  -2.137   1.474  0.00  0.00    -0.494 OA
ATOM     17  H   UNL     1       4.217  -2.481   2.139  0.00  0.00    +0.293 HD
ENDBRANCH   7  16
ENDBRANCH   1   2
BRANCH   1  19
ATOM     18  N   UNL     1      -3.625   1.258  -0.678  0.00  0.00    -0.311 N 
ATOM     19  C   UNL     1      -2.360   0.806  -0.583  0.00  0.00    +0.234 C 
ATOM     20  O   UNL     1      -2.081  -0.306  -0.980  0.00  0.00    -0.274 OA
ATOM     21  H   UNL     1      -3.878   2.267  -0.318  0.00  0.00    +0.149 HD
BRANCH  18  25
ATOM     22  C   UNL     1      -7.128  -1.414  -0.679  0.00  0.00    -0.010 C 
ATOM     23  C   UNL     1      -7.138  -0.025  -1.327  0.00  0.00    -0.072 C 
ATOM     24  C   UNL     1      -6.031   0.831  -0.718  0.00  0.00    +0.009 C 
ATOM     25  C   UNL     1      -4.668   0.406  -1.263  0.00  0.00    +0.070 C 
ATOM     26  C   UNL     1      -4.674   0.587  -2.781  0.00  0.00    +0.009 C 
ATOM     27  C   UNL     1      -5.764  -0.274  -3.414  0.00  0.00    -0.072 C 
ATOM     28  N   UNL     1      -7.051  -0.120  -2.770  0.00  0.00    +0.386 N 
ATOM     29  C   UNL     1      -5.319  -1.742  -3.420  0.00  0.00    -0.010 C 
ATOM     30  C   UNL     1      -5.907   0.166  -4.888  0.00  0.00    -0.010 C 
ATOM     31  C   UNL     1      -8.488   0.636  -0.969  0.00  0.00    -0.010 C 
ATOM     32  H   UNL     1      -7.624  -0.993  -3.115  0.00  0.00    -0.084 HD
ATOM     33  H   UNL     1      -7.465   0.793  -3.223  0.00  0.00    -0.084 HD
ENDBRANCH  18  25
ENDBRANCH   1  19
BRANCH   1  34
ATOM     34  C   UNL     1      -1.667   2.032   1.458  0.00  0.00    +0.067 C 
BRANCH  34  35
ATOM     35  C   UNL     1      -0.661   3.005   2.018  0.00  0.00    -0.045 A 
ATOM     36  C   UNL     1       0.461   2.538   2.675  0.00  0.00    +0.004 A 
ATOM     37  C   UNL     1       1.386   3.430   3.184  0.00  0.00    +0.000 A 
ATOM     38  C   UNL     1       1.183   4.790   3.045  0.00  0.00    +0.000 A 
ATOM     39  C   UNL     1       0.058   5.258   2.392  0.00  0.00    +0.000 A 
ATOM     40  C   UNL     1      -0.864   4.365   1.878  0.00  0.00    +0.004 A 
ENDBRANCH  34  35
ENDBRANCH   1  34
TORSDOF 6
