REMARK  Name = ZINC13977048
REMARK  9 active torsions:
REMARK  status: ('A' for Active; 'I' for Inactive)
REMARK    1  A    between atoms: C_1  and  C_2
REMARK    2  A    between atoms: C_2  and  C_3
REMARK    3  A    between atoms: C_2  and  C_4
REMARK    4  A    between atoms: C_2  and  C_5
REMARK    5  A    between atoms: C_8  and  C_12
REMARK    6  A    between atoms: N_14  and  C_15
REMARK    7  A    between atoms: C_15  and  N_17
REMARK    8  A    between atoms: N_17  and  N_18
REMARK    9  A    between atoms: C_19  and  C_21
REMARK                            x       y       z     vdW  Elec       q    Type
REMARK                         _______ _______ _______ _____ _____    ______ ____
ROOT
ATOM      1  C   UNL     1      -4.974   3.515   0.009  0.00  0.00    +0.153 C 
ATOM      2  S   UNL     1      -5.072   5.215  -0.166  0.00  0.00    -0.017 S 
ENDROOT
BRANCH   1   5
ATOM      3  C   UNL     1      -2.646   3.638  -0.093  0.00  0.00    +0.250 C 
ATOM      4  O   UNL     1      -2.715   4.845  -0.217  0.00  0.00    -0.270 OA
ATOM      5  N   UNL     1      -3.772   2.907   0.027  0.00  0.00    -0.263 N 
ATOM      6  H   UNL     1      -3.716   1.944   0.126  0.00  0.00    +0.157 HD
BRANCH   3  10
ATOM      7  C   UNL     1       1.145   1.722  -0.036  0.00  0.00    -0.028 A 
ATOM      8  C   UNL     1      -0.010   0.969   0.087  0.00  0.00    +0.006 A 
ATOM      9  C   UNL     1      -1.244   1.585   0.064  0.00  0.00    +0.013 A 
ATOM     10  C   UNL     1      -1.327   2.972  -0.073  0.00  0.00    +0.038 A 
ATOM     11  C   UNL     1      -0.159   3.726  -0.197  0.00  0.00    +0.028 A 
ATOM     12  C   UNL     1       1.070   3.097  -0.178  0.00  0.00    +0.022 A 
ATOM     13 BR   UNL     1       2.655   4.115  -0.346  0.00  0.00    -0.050 Br
BRANCH   7  15
ATOM     14  C   UNL     1       2.295  -0.469   0.133  0.00  0.00    +0.015 C 
ATOM     15  C   UNL     1       2.489   1.041  -0.017  0.00  0.00    -0.012 C 
ATOM     16  C   UNL     1       3.228   1.334  -1.324  0.00  0.00    +0.015 C 
ATOM     17  C   UNL     1       3.311   1.569   1.162  0.00  0.00    +0.015 C 
ENDBRANCH   7  15
ENDBRANCH   3  10
ENDBRANCH   1   5
BRANCH   1  18
ATOM     18  N   UNL     1      -6.101   2.784   0.129  0.00  0.00    -0.245 N 
ATOM     19  H   UNL     1      -6.966   3.221   0.116  0.00  0.00    +0.172 HD
BRANCH  18  20
ATOM     20  N   UNL     1      -6.021   1.393   0.272  0.00  0.00    -0.231 N 
ATOM     21  C   UNL     1      -7.147   0.662   0.391  0.00  0.00    +0.262 C 
ATOM     22  O   UNL     1      -8.232   1.210   0.375  0.00  0.00    -0.269 OA
ATOM     23  H   UNL     1      -5.155   0.955   0.285  0.00  0.00    +0.173 HD
BRANCH  21  24
ATOM     24  C   UNL     1      -7.063  -0.805   0.542  0.00  0.00    +0.057 A 
ATOM     25  C   UNL     1      -5.818  -1.438   0.561  0.00  0.00    +0.016 A 
ATOM     26  C   UNL     1      -5.745  -2.807   0.702  0.00  0.00    +0.021 A 
ATOM     27  C   UNL     1      -6.905  -3.557   0.825  0.00  0.00    +0.042 A 
ATOM     28  C   UNL     1      -8.142  -2.937   0.806  0.00  0.00    +0.040 A 
ATOM     29  C   UNL     1      -8.228  -1.565   0.672  0.00  0.00    +0.054 A 
ATOM     30 CL   UNL     1      -9.780  -0.788   0.657  0.00  0.00    -0.083 Cl
ATOM     31 CL   UNL     1      -6.804  -5.281   1.002  0.00  0.00    -0.083 Cl
ENDBRANCH  21  24
ENDBRANCH  18  20
ENDBRANCH   1  18
TORSDOF 6
