REMARK  Name = ZINC19790392
REMARK  7 active torsions:
REMARK  status: ('A' for Active; 'I' for Inactive)
REMARK    1  A    between atoms: C_1  and  N_2
REMARK    2  A    between atoms: N_5  and  C_8
REMARK    3  A    between atoms: C_8  and  C_9
REMARK    4  A    between atoms: C_10  and  O_32
REMARK    5  A    between atoms: C_16  and  C_28
REMARK    6  A    between atoms: C_17  and  O_20
REMARK    7  A    between atoms: O_20  and  C_21
REMARK                            x       y       z     vdW  Elec       q    Type
REMARK                         _______ _______ _______ _____ _____    ______ ____
ROOT
ATOM      1  C   UNL     1      -0.018   1.503   0.010  0.00  0.00    +0.051 A 
ATOM      2  C   UNL     1       1.170   2.214   0.003  0.00  0.00    +0.125 A 
ATOM      3  C   UNL     1       1.162   3.607   0.011  0.00  0.00    +0.046 A 
ATOM      4  C   UNL     1      -0.020   4.292   0.026  0.00  0.00    +0.019 A 
ATOM      5  C   UNL     1      -1.226   3.589   0.033  0.00  0.00    +0.068 A 
ATOM      6  C   UNL     1      -1.228   2.183   0.020  0.00  0.00    +0.147 A 
ATOM      7  O   UNL     1      -2.399   1.515   0.021  0.00  0.00    -0.447 OA
ATOM      8  C   UNL     1      -3.583   2.142   0.030  0.00  0.00    +0.254 A 
ATOM      9  C   UNL     1      -3.697   3.485   0.037  0.00  0.00    +0.222 A 
ATOM     10  C   UNL     1      -2.522   4.290   0.049  0.00  0.00    +0.235 A 
ATOM     11  O   UNL     1      -2.586   5.507   0.057  0.00  0.00    -0.283 OA
ENDROOT
BRANCH   8  12
ATOM     12  C   UNL     1      -4.840   1.311   0.030  0.00  0.00    +0.454 C 
ATOM     13  F   UNL     1      -5.234   1.061  -1.289  0.00  0.00    -0.163 F 
ATOM     14  F   UNL     1      -4.596   0.097   0.681  0.00  0.00    -0.163 F 
ATOM     15  F   UNL     1      -5.856   2.003   0.698  0.00  0.00    -0.163 F 
ENDBRANCH   8  12
BRANCH   2  16
ATOM     16  O   UNL     1       2.353   1.548  -0.012  0.00  0.00    -0.506 OA
ATOM     17  H   UNL     1       3.299   2.108  -0.018  0.00  0.00    +0.292 HD
ENDBRANCH   2  16
BRANCH   1  18
ATOM     18  C   UNL     1       0.002  -0.004   0.002  0.00  0.00    +0.126 C 
BRANCH  18  23
ATOM     19  C   UNL     1       1.029  -2.556   4.935  0.00  0.00    -0.096 C 
ATOM     20  N   UNL     1       1.009  -2.059   3.553  0.00  0.00    +0.379 N 
ATOM     21  C   UNL     1      -0.248  -2.419   2.882  0.00  0.00    -0.064 C 
ATOM     22  C   UNL     1      -0.196  -1.954   1.425  0.00  0.00    +0.066 C 
ATOM     23  N   UNL     1       0.022  -0.501   1.384  0.00  0.00    -0.301 NA
ATOM     24  C   UNL     1       1.279  -0.141   2.055  0.00  0.00    +0.066 C 
ATOM     25  C   UNL     1       1.227  -0.606   3.513  0.00  0.00    -0.064 C 
ATOM     26  H   UNL     1       1.835  -2.542   3.009  0.00  0.00    -0.082 HD
ENDBRANCH  18  23
ENDBRANCH   1  18
BRANCH   9  27
ATOM     27  O   UNL     1      -4.927   4.068   0.046  0.00  0.00    -0.447 OA
BRANCH  27  28
ATOM     28  C   UNL     1      -5.498   4.335   1.250  0.00  0.00    +0.143 A 
ATOM     29  C   UNL     1      -4.832   4.009   2.423  0.00  0.00    +0.047 A 
ATOM     30  C   UNL     1      -5.413   4.285   3.645  0.00  0.00    +0.004 A 
ATOM     31  C   UNL     1      -6.662   4.877   3.701  0.00  0.00    +0.001 A 
ATOM     32  C   UNL     1      -7.330   5.199   2.534  0.00  0.00    +0.019 A 
ATOM     33  C   UNL     1      -6.751   4.929   1.308  0.00  0.00    +0.060 A 
ATOM     34 BR   UNL     1      -7.665   5.370  -0.287  0.00  0.00    -0.046 Br
ENDBRANCH  27  28
ENDBRANCH   9  27
TORSDOF 6
