REMARK  Name = ZINC09429729
REMARK  9 active torsions:
REMARK  status: ('A' for Active; 'I' for Inactive)
REMARK    1  A    between atoms: C_1  and  N_60
REMARK    2  A    between atoms: C_2  and  N_60
REMARK    3  A    between atoms: C_3  and  C_4
REMARK    4  A    between atoms: C_3  and  N_60
REMARK    5  A    between atoms: C_4  and  C_5
REMARK    6  A    between atoms: C_5  and  N_6
REMARK    7  A    between atoms: C_12  and  C_25
REMARK    8  A    between atoms: C_30  and  O_31
REMARK    9  A    between atoms: O_31  and  C_32
REMARK                            x       y       z     vdW  Elec       q    Type
REMARK                         _______ _______ _______ _____ _____    ______ ____
ROOT
ATOM      1  N   UNL     1      -1.035   6.217   2.943  0.00  0.00    -0.318 N 
ATOM      2  C   UNL     1      -2.238   6.563   2.420  0.00  0.00    +0.204 A 
ATOM      3  N   UNL     1      -2.492   6.433   1.150  0.00  0.00    -0.202 NA
ATOM      4  C   UNL     1      -1.581   5.949   0.285  0.00  0.00    +0.229 A 
ATOM      5  C   UNL     1      -0.350   5.578   0.733  0.00  0.00    +0.066 A 
ATOM      6  C   UNL     1      -0.054   5.715   2.110  0.00  0.00    +0.115 A 
ATOM      7  C   UNL     1       0.688   5.030  -0.203  0.00  0.00    +0.095 C 
ATOM      8  C   UNL     1       0.334   5.355  -1.631  0.00  0.00    +0.008 A 
ATOM      9  C   UNL     1       1.323   5.254  -2.611  0.00  0.00    +0.009 A 
ATOM     10  C   UNL     1       1.058   5.532  -3.916  0.00  0.00    +0.009 A 
ATOM     11  C   UNL     1      -0.236   5.930  -4.294  0.00  0.00    -0.014 A 
ATOM     12  C   UNL     1      -0.549   6.221  -5.633  0.00  0.00    +0.008 A 
ATOM     13  C   UNL     1      -1.813   6.607  -5.959  0.00  0.00    +0.001 A 
ATOM     14  C   UNL     1      -2.803   6.719  -4.985  0.00  0.00    +0.001 A 
ATOM     15  C   UNL     1      -2.535   6.444  -3.679  0.00  0.00    +0.012 A 
ATOM     16  C   UNL     1      -1.243   6.040  -3.305  0.00  0.00    +0.025 A 
ATOM     17  C   UNL     1      -0.934   5.739  -1.960  0.00  0.00    +0.142 A 
ATOM     18  O   UNL     1      -1.904   5.835  -1.021  0.00  0.00    -0.437 OA
ATOM     19  H   UNL     1       1.410   5.434   3.516  0.00  0.00    +0.157 HD
ATOM     20  N   UNL     1       1.163   5.348   2.530  0.00  0.00    -0.384 N 
ATOM     21  H   UNL     1       1.849   4.981   1.860  0.00  0.00    +0.157 HD
ENDROOT
BRANCH   7  22
ATOM     22  C   UNL     1       0.767   3.534  -0.038  0.00  0.00    +0.006 A 
ATOM     23  C   UNL     1      -0.344   2.752  -0.286  0.00  0.00    +0.008 A 
ATOM     24  C   UNL     1      -0.270   1.379  -0.140  0.00  0.00    +0.001 A 
ATOM     25  C   UNL     1       0.912   0.787   0.266  0.00  0.00    +0.004 A 
ATOM     26  C   UNL     1       2.025   1.565   0.515  0.00  0.00    +0.046 A 
ATOM     27  C   UNL     1       1.956   2.942   0.363  0.00  0.00    +0.124 A 
BRANCH  27  28
ATOM     28  O   UNL     1       3.050   3.710   0.608  0.00  0.00    -0.495 OA
ATOM     29  C   UNL     1       4.239   3.033   1.019  0.00  0.00    +0.277 C 
ENDBRANCH  27  28
ENDBRANCH   7  22
BRANCH   1  30
ATOM     30  C   UNL     1      -0.778   6.377   4.377  0.00  0.00    +0.123 C 
BRANCH  30  31
ATOM     31  C   UNL     1      -0.088   7.719   4.625  0.00  0.00    +0.003 C 
BRANCH  31  32
ATOM     32  C   UNL     1       0.180   7.886   6.122  0.00  0.00    -0.078 C 
BRANCH  32  35
ATOM     33  C   UNL     1      -0.053  10.294   6.040  0.00  0.00    -0.097 C 
ATOM     34  C   UNL     1       1.328   9.269   7.744  0.00  0.00    -0.097 C 
ATOM     35  N   UNL     1       0.865   9.177   6.343  0.00  0.00    +0.376 N 
ATOM     36  H   UNL     1       1.678   9.234   5.719  0.00  0.00    -0.083 HD
ENDBRANCH  32  35
ENDBRANCH  31  32
ENDBRANCH  30  31
ENDBRANCH   1  30
TORSDOF 6
