REMARK  Name = ZINC25437022
REMARK  8 active torsions:
REMARK  status: ('A' for Active; 'I' for Inactive)
REMARK    1  A    between atoms: C_1  and  O_2
REMARK    2  A    between atoms: O_2  and  C_3
REMARK    3  A    between atoms: C_5  and  N_11
REMARK    4  A    between atoms: C_7  and  O_9
REMARK    5  A    between atoms: O_9  and  C_10
REMARK    6  A    between atoms: C_15  and  C_29
REMARK    7  A    between atoms: C_16  and  N_24
REMARK    8  A    between atoms: C_20  and  N_22
REMARK                            x       y       z     vdW  Elec       q    Type
REMARK                         _______ _______ _______ _____ _____    ______ ____
ROOT
ATOM      1  N   UNL     1       1.768   0.650  -1.652  0.00  0.00    -0.224 N 
ATOM      2  C   UNL     1       0.982  -0.470  -1.394  0.00  0.00    +0.138 A 
ATOM      3  C   UNL     1      -0.310  -0.082  -1.082  0.00  0.00    +0.011 A 
ATOM      4  C   UNL     1      -1.268  -1.045  -0.787  0.00  0.00    +0.016 A 
ATOM      5  C   UNL     1      -2.654  -0.725  -0.449  0.00  0.00    +0.100 A 
ATOM      6  C   UNL     1      -3.521  -1.794  -0.172  0.00  0.00    +0.142 A 
ATOM      7  N   UNL     1      -3.096  -3.051  -0.216  0.00  0.00    -0.216 NA
ATOM      8  C   UNL     1      -1.856  -3.392  -0.516  0.00  0.00    +0.129 A 
ATOM      9  C   UNL     1      -0.889  -2.413  -0.814  0.00  0.00    +0.063 A 
ATOM     10  C   UNL     1       0.443  -2.729  -1.139  0.00  0.00    +0.129 A 
ATOM     11  N   UNL     1       1.306  -1.768  -1.409  0.00  0.00    -0.216 NA
ATOM     12  N   UNL     1      -1.503  -4.725  -0.538  0.00  0.00    -0.343 N 
ATOM     13  C   UNL     1      -0.336   1.426  -1.153  0.00  0.00    +0.136 C 
ATOM     14  C   UNL     1       1.081   1.798  -1.535  0.00  0.00    +0.230 C 
ATOM     15  O   UNL     1       1.514   2.918  -1.703  0.00  0.00    -0.275 OA
ATOM     16  H   UNL     1      -0.473  -5.017  -0.787  0.00  0.00    +0.144 HD
ATOM     17  H   UNL     1      -2.253  -5.495  -0.306  0.00  0.00    +0.144 HD
ENDROOT
BRANCH   1  20
ATOM     18  C   UNL     1       5.177   1.689  -2.580  0.00  0.00    +0.125 A 
ATOM     19  C   UNL     1       3.835   1.753  -2.239  0.00  0.00    +0.069 A 
ATOM     20  C   UNL     1       3.124   0.586  -1.997  0.00  0.00    +0.050 A 
ATOM     21  C   UNL     1       3.759  -0.645  -2.092  0.00  0.00    +0.069 A 
ATOM     22  C   UNL     1       5.100  -0.708  -2.439  0.00  0.00    +0.125 A 
ATOM     23  C   UNL     1       5.809   0.459  -2.681  0.00  0.00    +0.091 A 
BRANCH  18  25
ATOM     24  C   UNL     1       7.252   2.692  -3.164  0.00  0.00    +0.277 C 
ATOM     25  O   UNL     1       5.873   2.832  -2.817  0.00  0.00    -0.495 OA
ENDBRANCH  18  25
BRANCH  22  26
ATOM     26  O   UNL     1       5.721  -1.913  -2.538  0.00  0.00    -0.495 OA
ATOM     27  C   UNL     1       7.104  -1.903  -2.894  0.00  0.00    +0.277 C 
ENDBRANCH  22  26
ENDBRANCH   1  20
BRANCH   6  28
ATOM     28  N   UNL     1      -4.838  -1.534   0.153  0.00  0.00    -0.314 N 
ATOM     29  C   UNL     1      -5.542  -0.869  -0.973  0.00  0.00    +0.106 C 
ATOM     30  C   UNL     1      -7.037  -1.135  -0.664  0.00  0.00    +0.020 C 
ATOM     31  C   UNL     1      -7.021  -2.570  -0.089  0.00  0.00    +0.020 C 
ATOM     32  C   UNL     1      -5.579  -2.788   0.407  0.00  0.00    +0.106 C 
ENDBRANCH   6  28
BRANCH  10  33
ATOM     33  N   UNL     1       0.848  -4.050  -1.174  0.00  0.00    -0.343 N 
ATOM     34  H   UNL     1       1.889  -4.299  -1.428  0.00  0.00    +0.144 HD
ATOM     35  H   UNL     1       0.130  -4.852  -0.949  0.00  0.00    +0.144 HD
ENDBRANCH  10  33
BRANCH   5  36
ATOM     36  C   UNL     1      -3.112   0.631  -0.401  0.00  0.00    +0.103 C 
ATOM     37  N   UNL     1      -3.474   1.707  -0.363  0.00  0.00    -0.191 NA
ENDBRANCH   5  36
TORSDOF 6
