REMARK  Name = ZINC20744491
REMARK  4 active torsions:
REMARK  status: ('A' for Active; 'I' for Inactive)
REMARK    1  A    between atoms: C_1  and  C_2
REMARK    2  A    between atoms: C_5  and  C_8
REMARK    3  A    between atoms: C_8  and  N_9
REMARK    4  A    between atoms: C_20  and  O_28
REMARK                            x       y       z     vdW  Elec       q    Type
REMARK                         _______ _______ _______ _____ _____    ______ ____
ROOT
ATOM      1  N   UNL     1       1.447  -4.746  -0.032  0.00  0.00    -0.266 N 
ATOM      2  C   UNL     1       2.175  -4.983  -1.185  0.00  0.00    +0.041 A 
ATOM      3  C   UNL     1       1.793  -4.840  -2.519  0.00  0.00    +0.024 A 
ATOM      4  C   UNL     1       2.736  -5.151  -3.486  0.00  0.00    +0.002 A 
ATOM      5  C   UNL     1       4.004  -5.587  -3.156  0.00  0.00    +0.000 A 
ATOM      6  C   UNL     1       4.397  -5.734  -1.831  0.00  0.00    +0.007 A 
ATOM      7  C   UNL     1       3.465  -5.425  -0.864  0.00  0.00    -0.006 A 
ATOM      8  C   UNL     1       3.533  -5.460   0.629  0.00  0.00    +0.112 C 
ATOM      9  C   UNL     1       2.168  -4.994   1.082  0.00  0.00    +0.236 C 
ATOM     10  O   UNL     1       1.792  -4.868   2.228  0.00  0.00    -0.274 OA
ATOM     11  C   UNL     1       3.812  -6.873   1.139  0.00  0.00    +0.121 C 
ATOM     12  C   UNL     1       5.277  -7.198   1.085  0.00  0.00    +0.191 C 
ATOM     13  N   UNL     1       6.215  -6.314   1.249  0.00  0.00    -0.198 NA
ATOM     14  C   UNL     1       5.879  -5.005   1.435  0.00  0.00    +0.156 A 
ATOM     15  C   UNL     1       4.600  -4.539   1.151  0.00  0.00    +0.036 A 
ATOM     16  C   UNL     1       4.568  -3.188   1.436  0.00  0.00    +0.141 A 
ATOM     17  N   UNL     1       5.757  -2.824   1.859  0.00  0.00    -0.180 NA
ATOM     18  N   UNL     1       6.601  -3.947   1.858  0.00  0.00    -0.260 N 
ATOM     19  H   UNL     1       7.537  -3.959   2.115  0.00  0.00    +0.191 HD
ENDROOT
BRANCH  12  20
ATOM     20  O   UNL     1       5.639  -8.476   0.854  0.00  0.00    -0.495 OA
ATOM     21  H   UNL     1       6.596  -8.616   0.832  0.00  0.00    +0.293 HD
ENDBRANCH  12  20
BRANCH   1  22
ATOM     22  C   UNL     1       0.059  -4.275  -0.021  0.00  0.00    +0.148 C 
BRANCH  22  27
ATOM     23  C   UNL     1      -0.018   1.503   0.010  0.00  0.00    +0.044 C 
ATOM     24  C   UNL     1       0.002  -0.004   0.002  0.00  0.00    -0.050 A 
ATOM     25  C   UNL     1       0.006  -0.689  -1.199  0.00  0.00    +0.003 A 
ATOM     26  C   UNL     1       0.025  -2.071  -1.206  0.00  0.00    +0.005 A 
ATOM     27  C   UNL     1       0.040  -2.768  -0.013  0.00  0.00    -0.030 A 
ATOM     28  C   UNL     1       0.037  -2.084   1.188  0.00  0.00    +0.005 A 
ATOM     29  C   UNL     1       0.023  -0.702   1.195  0.00  0.00    +0.003 A 
ENDBRANCH  22  27
ENDBRANCH   1  22
TORSDOF 3
