REMARK  Name = ZINC20718639
REMARK  5 active torsions:
REMARK  status: ('A' for Active; 'I' for Inactive)
REMARK    1  A    between atoms: C_1  and  C_2
REMARK    2  A    between atoms: C_18  and  C_20
REMARK    3  A    between atoms: C_23  and  C_26
REMARK    4  A    between atoms: C_26  and  C_27
REMARK    5  A    between atoms: C_26  and  C_28
REMARK                            x       y       z     vdW  Elec       q    Type
REMARK                         _______ _______ _______ _____ _____    ______ ____
ROOT
ATOM      1  C   UNL     1       0.311   1.787  -0.297  0.00  0.00    +0.068 C 
ATOM      2  C   UNL     1       0.558   0.305  -0.183  0.00  0.00    +0.067 A 
ATOM      3  C   UNL     1       0.437  -0.631  -1.233  0.00  0.00    +0.033 A 
ATOM      4  C   UNL     1       0.741  -1.849  -0.737  0.00  0.00    +0.137 A 
ATOM      5  N   UNL     1       1.043  -1.677   0.597  0.00  0.00    -0.183 N 
ATOM      6  N   UNL     1       0.923  -0.321   0.899  0.00  0.00    -0.167 NA
ATOM      7  C   UNL     1       1.409  -2.684   1.489  0.00  0.00    +0.253 A 
ATOM      8  N   UNL     1       1.785  -2.355   2.715  0.00  0.00    -0.219 NA
ATOM      9  C   UNL     1       2.138  -3.285   3.587  0.00  0.00    +0.116 A 
ATOM     10  C   UNL     1       2.112  -4.617   3.202  0.00  0.00    +0.039 A 
ATOM     11  C   UNL     1       1.713  -4.925   1.911  0.00  0.00    +0.116 A 
ATOM     12  N   UNL     1       1.367  -3.946   1.092  0.00  0.00    -0.219 NA
ATOM     13  N   UNL     1       0.787  -3.092  -1.321  0.00  0.00    -0.269 N 
ATOM     14  C   UNL     1       0.520  -3.561  -2.503  0.00  0.00    +0.228 C 
ATOM     15  O   UNL     1       0.590  -4.768  -2.600  0.00  0.00    -0.275 OA
ATOM     16  C   UNL     1       0.144  -2.858  -3.747  0.00  0.00    +0.166 C 
ATOM     17  S   UNL     1      -0.953  -1.462  -3.461  0.00  0.00    -0.138 S 
ATOM     18  C   UNL     1       0.033  -0.223  -2.615  0.00  0.00    +0.112 C 
ATOM     19  H   UNL     1       1.090  -3.779  -0.708  0.00  0.00    +0.156 HD
ENDROOT
BRANCH  18  20
ATOM     20  C   UNL     1      -0.764   1.053  -2.530  0.00  0.00    -0.030 A 
ATOM     21  C   UNL     1      -2.056   1.029  -2.038  0.00  0.00    +0.005 A 
ATOM     22  C   UNL     1      -2.787   2.200  -1.960  0.00  0.00    +0.004 A 
ATOM     23  C   UNL     1      -2.227   3.394  -2.372  0.00  0.00    -0.045 A 
ATOM     24  C   UNL     1      -0.934   3.418  -2.862  0.00  0.00    +0.004 A 
ATOM     25  C   UNL     1      -0.202   2.248  -2.937  0.00  0.00    +0.005 A 
BRANCH  23  26
ATOM     26  C   UNL     1      -3.024   4.670  -2.287  0.00  0.00    +0.013 C 
ATOM     27  C   UNL     1      -2.301   5.663  -1.375  0.00  0.00    +0.012 C 
ATOM     28  C   UNL     1      -3.170   5.274  -3.685  0.00  0.00    +0.012 C 
ENDBRANCH  23  26
ENDBRANCH  18  20
TORSDOF 2
