REMARK  Name = ZINC67072303
REMARK  8 active torsions:
REMARK  status: ('A' for Active; 'I' for Inactive)
REMARK    1  A    between atoms: C_1  and  C_2
REMARK    2  A    between atoms: C_5  and  N_8
REMARK    3  A    between atoms: C_11  and  C_15
REMARK    4  A    between atoms: N_17  and  C_18
REMARK    5  A    between atoms: C_18  and  C_19
REMARK    6  A    between atoms: N_23  and  C_24
REMARK    7  A    between atoms: C_24  and  C_25
REMARK    8  A    between atoms: C_24  and  C_26
REMARK                            x       y       z     vdW  Elec       q    Type
REMARK                         _______ _______ _______ _____ _____    ______ ____
ROOT
ATOM      1  C   UNL     1      -1.045  -7.154  -1.521  0.00  0.00    +0.225 C 
ATOM      2  O   UNL     1      -1.960  -7.677  -0.920  0.00  0.00    -0.275 OA
ATOM      3  N   UNL     1      -0.976  -7.256  -2.863  0.00  0.00    -0.308 N 
ATOM      4  H   UNL     1      -0.244  -6.838  -3.344  0.00  0.00    +0.149 HD
ENDROOT
BRANCH   1   8
ATOM      5  N   UNL     1       0.059  -4.170  -0.021  0.00  0.00    -0.271 N 
ATOM      6  C   UNL     1       0.176  -5.003   1.182  0.00  0.00    +0.115 C 
ATOM      7  C   UNL     1      -0.280  -6.415   0.751  0.00  0.00    +0.041 C 
ATOM      8  C   UNL     1       0.013  -6.391  -0.767  0.00  0.00    +0.162 C 
ATOM      9  C   UNL     1      -0.034  -4.923  -1.130  0.00  0.00    +0.232 C 
ATOM     10  O   UNL     1      -0.139  -4.490  -2.258  0.00  0.00    -0.274 OA
BRANCH   5  15
ATOM     11  C   UNL     1      -0.018   1.503   0.010  0.00  0.00    +0.044 C 
ATOM     12  C   UNL     1       0.002  -0.004   0.002  0.00  0.00    -0.050 A 
ATOM     13  C   UNL     1       0.020  -0.687  -1.200  0.00  0.00    +0.005 A 
ATOM     14  C   UNL     1       0.039  -2.068  -1.211  0.00  0.00    +0.024 A 
ATOM     15  C   UNL     1       0.040  -2.771  -0.013  0.00  0.00    +0.036 A 
ATOM     16  C   UNL     1       0.022  -2.082   1.192  0.00  0.00    +0.024 A 
ATOM     17  C   UNL     1       0.009  -0.701   1.197  0.00  0.00    +0.005 A 
ENDBRANCH   5  15
ENDBRANCH   1   8
BRANCH   3  18
ATOM     18  C   UNL     1      -2.005  -7.998  -3.596  0.00  0.00    +0.180 C 
BRANCH  18  19
ATOM     19  C   UNL     1      -1.697  -7.960  -5.071  0.00  0.00    +0.149 A 
ATOM     20  N   UNL     1      -0.680  -7.372  -5.613  0.00  0.00    -0.157 NA
ATOM     21  N   UNL     1      -0.751  -7.566  -6.999  0.00  0.00    -0.254 N 
ATOM     22  C   UNL     1      -1.859  -8.297  -7.245  0.00  0.00    +0.176 A 
ATOM     23  N   UNL     1      -2.446  -8.550  -6.058  0.00  0.00    -0.303 N 
ATOM     24  S   UNL     1      -2.412  -8.814  -8.781  0.00  0.00    -0.011 S 
ATOM     25  H   UNL     1      -0.122  -7.236  -7.659  0.00  0.00    +0.191 HD
BRANCH  23  26
ATOM     26  C   UNL     1      -3.676  -9.320  -5.857  0.00  0.00    +0.085 C 
ATOM     27  C   UNL     1      -4.826  -8.651  -6.613  0.00  0.00    +0.030 C 
ATOM     28  C   UNL     1      -3.479 -10.743  -6.385  0.00  0.00    +0.030 C 
ENDBRANCH  23  26
ENDBRANCH  18  19
ENDBRANCH   3  18
TORSDOF 5
