REMARK  Name = ZINC20973058
REMARK  11 active torsions:
REMARK  status: ('A' for Active; 'I' for Inactive)
REMARK    1  A    between atoms: C_1  and  C_2
REMARK    2  A    between atoms: C_4  and  N_21
REMARK    3  A    between atoms: C_6  and  C_9
REMARK    4  A    between atoms: C_7  and  O_8
REMARK    5  A    between atoms: C_13  and  C_18
REMARK    6  A    between atoms: C_18  and  C_19
REMARK    7  A    between atoms: C_18  and  C_20
REMARK    8  A    between atoms: C_22  and  C_24
REMARK    9  A    between atoms: C_26  and  N_37
REMARK   10  A    between atoms: C_29  and  N_30
REMARK   11  A    between atoms: C_33  and  C_36
REMARK                            x       y       z     vdW  Elec       q    Type
REMARK                         _______ _______ _______ _____ _____    ______ ____
ROOT
ATOM      1  C   UNL     1       7.282  -0.724   0.537  0.00  0.00    +0.047 C 
ATOM      2  C   UNL     1       5.944  -1.411   0.464  0.00  0.00    -0.007 A 
ATOM      3  C   UNL     1       4.789  -0.662   0.347  0.00  0.00    +0.030 A 
ATOM      4  C   UNL     1       3.550  -1.288   0.285  0.00  0.00    +0.035 A 
ATOM      5  C   UNL     1       3.466  -2.670   0.329  0.00  0.00    +0.040 A 
ATOM      6  C   UNL     1       4.628  -3.433   0.440  0.00  0.00    +0.080 A 
ATOM      7  C   UNL     1       5.874  -2.795   0.508  0.00  0.00    +0.132 A 
ENDROOT
BRANCH   6   8
ATOM      8  C   UNL     1       4.547  -4.906   0.487  0.00  0.00    +0.232 A 
ATOM      9  N   UNL     1       3.437  -5.599   0.435  0.00  0.00    -0.209 NA
ATOM     10  C   UNL     1       3.743  -6.920   0.500  0.00  0.00    +0.110 A 
ATOM     11  C   UNL     1       2.979  -8.089   0.486  0.00  0.00    +0.035 A 
ATOM     12  C   UNL     1       3.602  -9.314   0.575  0.00  0.00    -0.043 A 
ATOM     13  C   UNL     1       4.983  -9.393   0.679  0.00  0.00    +0.007 A 
ATOM     14  C   UNL     1       5.751  -8.247   0.695  0.00  0.00    +0.049 A 
ATOM     15  C   UNL     1       5.141  -7.005   0.605  0.00  0.00    +0.156 A 
ATOM     16  O   UNL     1       5.603  -5.735   0.594  0.00  0.00    -0.435 OA
BRANCH  12  17
ATOM     17  C   UNL     1       2.779 -10.576   0.559  0.00  0.00    +0.013 C 
ATOM     18  C   UNL     1       3.193 -11.441  -0.633  0.00  0.00    +0.012 C 
ATOM     19  C   UNL     1       3.010 -11.352   1.858  0.00  0.00    +0.012 C 
ENDBRANCH  12  17
ENDBRANCH   6   8
BRANCH   4  20
ATOM     20  N   UNL     1       2.384  -0.520   0.173  0.00  0.00    -0.281 N 
ATOM     21  C   UNL     1       2.295   0.667   0.806  0.00  0.00    +0.250 C 
ATOM     22  O   UNL     1       3.256   1.109   1.406  0.00  0.00    -0.270 OA
ATOM     23  H   UNL     1       1.541  -0.885  -0.432  0.00  0.00    +0.155 HD
BRANCH  21  24
ATOM     24  C   UNL     1       1.033   1.428   0.772  0.00  0.00    +0.060 A 
ATOM     25  C   UNL     1      -0.038   0.979  -0.006  0.00  0.00    +0.047 A 
ATOM     26  C   UNL     1      -1.212   1.698  -0.038  0.00  0.00    +0.127 A 
ATOM     27  C   UNL     1      -1.343   2.860   0.705  0.00  0.00    +0.034 A 
ATOM     28  C   UNL     1      -0.295   3.316   1.478  0.00  0.00    +0.026 A 
ATOM     29  C   UNL     1       0.899   2.608   1.520  0.00  0.00    +0.042 A 
BRANCH  29  30
ATOM     30  N   UNL     1       1.955   3.065   2.297  0.00  0.00    -0.329 N 
ATOM     31  C   UNL     1       2.376   4.408   1.876  0.00  0.00    +0.105 C 
ATOM     32  C   UNL     1       3.629   4.818   2.653  0.00  0.00    +0.022 C 
ATOM     33  C   UNL     1       3.320   4.807   4.153  0.00  0.00    -0.011 C 
ATOM     34  C   UNL     1       2.838   3.410   4.556  0.00  0.00    +0.022 C 
ATOM     35  C   UNL     1       1.608   3.041   3.723  0.00  0.00    +0.105 C 
ATOM     36  C   UNL     1       4.585   5.157   4.938  0.00  0.00    +0.007 C 
ENDBRANCH  29  30
BRANCH  26  37
ATOM     37  N   UNL     1      -2.343   1.223  -0.868  0.00  0.00    +0.056 N 
ATOM     38  O   UNL     1      -2.233   0.200  -1.519  0.00  0.00    -0.126 OA
ATOM     39  O   UNL     1      -3.383   1.856  -0.899  0.00  0.00    -0.126 OA
ENDBRANCH  26  37
ENDBRANCH  21  24
ENDBRANCH   4  20
BRANCH   7  40
ATOM     40  O   UNL     1       7.010  -3.530   0.617  0.00  0.00    -0.506 OA
ATOM     41  H   UNL     1       6.954  -4.628   0.652  0.00  0.00    +0.292 HD
ENDBRANCH   7  40
TORSDOF 7
