REMARK  Name = ZINC25166140
REMARK  5 active torsions:
REMARK  status: ('A' for Active; 'I' for Inactive)
REMARK    1  A    between atoms: C_1  and  C_2
REMARK    2  A    between atoms: C_4  and  C_25
REMARK    3  A    between atoms: C_6  and  N_8
REMARK    4  A    between atoms: N_15  and  C_18
REMARK    5  A    between atoms: C_18  and  C_19
REMARK                            x       y       z     vdW  Elec       q    Type
REMARK                         _______ _______ _______ _____ _____    ______ ____
ROOT
ATOM      1  N   UNL     1      -2.505   3.800   0.046  0.00  0.00    -0.214 N 
ATOM      2  C   UNL     1      -1.217   3.359   0.031  0.00  0.00    +0.170 A 
ATOM      3  C   UNL     1      -1.275   1.956   0.019  0.00  0.00    +0.103 A 
ATOM      4  C   UNL     1      -2.635   1.593   0.035  0.00  0.00    +0.150 A 
ATOM      5  N   UNL     1      -3.351   2.684   0.048  0.00  0.00    -0.172 NA
ATOM      6  C   UNL     1      -0.014   1.214   0.009  0.00  0.00    +0.265 A 
ATOM      7  O   UNL     1       0.002  -0.004   0.002  0.00  0.00    -0.267 OA
ATOM      8  N   UNL     1       1.133   1.932   0.002  0.00  0.00    -0.298 N 
ATOM      9  C   UNL     1       1.092   3.288   0.009  0.00  0.00    +0.204 A 
ATOM     10  N   UNL     1      -0.020   3.964   0.023  0.00  0.00    -0.217 NA
ENDROOT
BRANCH   1  16
ATOM     11  C   UNL     1      -1.764   8.439   1.500  0.00  0.00    +0.044 C 
ATOM     12  C   UNL     1      -2.572   7.409   0.754  0.00  0.00    -0.048 A 
ATOM     13  C   UNL     1      -3.719   7.787   0.080  0.00  0.00    +0.006 A 
ATOM     14  C   UNL     1      -4.463   6.844  -0.606  0.00  0.00    -0.048 A 
ATOM     15  C   UNL     1      -4.064   5.522  -0.619  0.00  0.00    +0.031 A 
ATOM     16  C   UNL     1      -2.913   5.140   0.057  0.00  0.00    +0.068 A 
ATOM     17  C   UNL     1      -2.170   6.087   0.750  0.00  0.00    +0.031 A 
ATOM     18  C   UNL     1      -5.712   7.261  -1.340  0.00  0.00    +0.044 C 
ENDBRANCH   1  16
BRANCH   8  19
ATOM     19  C   UNL     1       2.425   1.242  -0.013  0.00  0.00    +0.132 C 
BRANCH  19  20
ATOM     20  C   UNL     1       2.862   1.008  -1.461  0.00  0.00    +0.047 C 
ATOM     21  C   UNL     1       2.994  -0.441  -1.934  0.00  0.00    +0.047 C 
ATOM     22  C   UNL     1       4.248   0.402  -1.692  0.00  0.00    +0.123 C 
ATOM     23 CL   UNL     1       5.169   0.958  -3.139  0.00  0.00    -0.101 Cl
ATOM     24 CL   UNL     1       5.241   0.018  -0.237  0.00  0.00    -0.101 Cl
ENDBRANCH  19  20
ENDBRANCH   8  19
TORSDOF 3
