REMARK  Name = ZINC64637610
REMARK  4 active torsions:
REMARK  status: ('A' for Active; 'I' for Inactive)
REMARK    1  A    between atoms: C_6  and  N_7
REMARK    2  A    between atoms: C_8  and  C_10
REMARK    3  A    between atoms: C_22  and  N_25
REMARK    4  A    between atoms: C_26  and  C_28
REMARK                            x       y       z     vdW  Elec       q    Type
REMARK                         _______ _______ _______ _____ _____    ______ ____
ROOT
ATOM      1  C   UNL     1      -0.025   1.388  -0.010  0.00  0.00    +0.024 A 
ATOM      2  C   UNL     1       1.175   2.079  -0.025  0.00  0.00    +0.018 A 
ATOM      3  C   UNL     1       2.366   1.388  -0.035  0.00  0.00    +0.032 A 
ATOM      4  C   UNL     1       2.426  -0.010  -0.032  0.00  0.00    +0.044 A 
ATOM      5  C   UNL     1       1.196  -0.689  -0.017  0.00  0.00    +0.047 A 
ATOM      6  C   UNL     1      -0.001   0.001  -0.005  0.00  0.00    +0.035 A 
ATOM      7  N   UNL     1       3.684  -0.611  -0.042  0.00  0.00    -0.316 N 
ATOM      8  C   UNL     1       4.859   0.271  -0.056  0.00  0.00    +0.224 C 
ATOM      9  S   UNL     1       4.061   1.926  -0.055  0.00  0.00    -0.082 S 
ATOM     10  H   UNL     1       3.780  -1.577  -0.040  0.00  0.00    +0.149 HD
ENDROOT
BRANCH   6  11
ATOM     11  N   UNL     1      -1.208  -0.711   0.010  0.00  0.00    -0.283 N 
ATOM     12  C   UNL     1      -2.265  -0.229   0.692  0.00  0.00    +0.244 C 
ATOM     13  O   UNL     1      -2.200   0.859   1.224  0.00  0.00    -0.273 OA
ATOM     14  H   UNL     1      -1.282  -1.551  -0.471  0.00  0.00    +0.155 HD
BRANCH  12  15
ATOM     15  C   UNL     1      -3.530  -1.043   0.794  0.00  0.00    +0.190 C 
ATOM     16  C   UNL     1      -4.122  -1.261  -0.580  0.00  0.00    +0.016 C 
ATOM     17  C   UNL     1      -5.348  -0.690  -0.554  0.00  0.00    -0.002 A 
ATOM     18  C   UNL     1      -6.407  -0.564  -1.563  0.00  0.00    +0.029 A 
ATOM     19  C   UNL     1      -7.553   0.077  -1.235  0.00  0.00    +0.042 A 
ATOM     20  C   UNL     1      -7.753   0.623   0.042  0.00  0.00    +0.022 A 
ATOM     21  C   UNL     1      -6.826   0.546   1.020  0.00  0.00    +0.027 A 
ATOM     22  C   UNL     1      -5.584  -0.106   0.785  0.00  0.00    +0.043 A 
ATOM     23  N   UNL     1      -4.544  -0.308   1.559  0.00  0.00    -0.370 N 
ATOM     24 CL   UNL     1      -8.808   0.229  -2.425  0.00  0.00    -0.084 Cl
ATOM     25  H   UNL     1      -4.458  -0.020   2.481  0.00  0.00    +0.161 HD
ENDBRANCH  12  15
ENDBRANCH   6  11
BRANCH   8  26
ATOM     26  N   UNL     1       5.677   0.077   1.144  0.00  0.00    -0.288 N 
ATOM     27  C   UNL     1       6.936   0.557   1.185  0.00  0.00    +0.218 C 
ATOM     28  O   UNL     1       7.391   1.149   0.229  0.00  0.00    -0.275 OA
ATOM     29  H   UNL     1       5.313  -0.396   1.908  0.00  0.00    +0.151 HD
BRANCH  27  30
ATOM     30  C   UNL     1       7.778   0.358   2.419  0.00  0.00    +0.075 C 
ATOM     31  C   UNL     1       7.091   1.018   3.617  0.00  0.00    +0.013 C 
ATOM     32  C   UNL     1       7.946   0.816   4.870  0.00  0.00    +0.001 C 
ATOM     33  C   UNL     1       9.321   1.452   4.657  0.00  0.00    +0.000 C 
ATOM     34  C   UNL     1      10.008   0.792   3.459  0.00  0.00    +0.001 C 
ATOM     35  C   UNL     1       9.153   0.994   2.206  0.00  0.00    +0.013 C 
ENDBRANCH  27  30
ENDBRANCH   8  26
TORSDOF 4
