REMARK  Name = ZINC59044563
REMARK  6 active torsions:
REMARK  status: ('A' for Active; 'I' for Inactive)
REMARK    1  A    between atoms: C_3  and  C_8
REMARK    2  A    between atoms: C_11  and  S_14
REMARK    3  A    between atoms: N_12  and  N_13
REMARK    4  A    between atoms: S_14  and  C_15
REMARK    5  A    between atoms: C_15  and  C_16
REMARK    6  A    between atoms: N_18  and  C_19
REMARK                            x       y       z     vdW  Elec       q    Type
REMARK                         _______ _______ _______ _____ _____    ______ ____
ROOT
ATOM      1  S   UNL     1       7.513   2.672   0.343  0.00  0.00    -0.075 S 
ENDROOT
BRANCH   1   5
ATOM      2  C   UNL     1       3.657   2.162  -0.022  0.00  0.00    +0.182 A 
ATOM      3  N   UNL     1       3.804   3.439  -0.284  0.00  0.00    -0.127 NA
ATOM      4  N   UNL     1       5.045   3.764  -0.202  0.00  0.00    -0.121 NA
ATOM      5  C   UNL     1       5.766   2.712   0.118  0.00  0.00    +0.209 A 
ATOM      6  N   UNL     1       4.908   1.658   0.250  0.00  0.00    -0.224 N 
BRANCH   2   9
ATOM      7  C   UNL     1      -0.017   1.379   0.010  0.00  0.00    +0.002 A 
ATOM      8  C   UNL     1       1.167   2.088   0.002  0.00  0.00    +0.012 A 
ATOM      9  C   UNL     1       2.385   1.408  -0.013  0.00  0.00    +0.022 A 
ATOM     10  C   UNL     1       2.398   0.012  -0.021  0.00  0.00    +0.027 A 
ATOM     11  C   UNL     1       1.207  -0.686  -0.013  0.00  0.00    +0.019 A 
ATOM     12  C   UNL     1       0.002  -0.004   0.002  0.00  0.00    +0.015 A 
ATOM     13 BR   UNL     1       1.221  -2.577  -0.024  0.00  0.00    -0.050 Br
ENDBRANCH   2   9
BRANCH   6  14
ATOM     14  N   UNL     1       5.226   0.371   0.580  0.00  0.00    -0.295 N 
ATOM     15  H   UNL     1       5.425  -0.175  -0.244  0.00  0.00    +0.163 HD
ATOM     16  H   UNL     1       6.000   0.345   1.228  0.00  0.00    +0.163 HD
ENDBRANCH   6  14
ENDBRANCH   1   5
BRANCH   1  17
ATOM     17  C   UNL     1       8.035   4.381   0.031  0.00  0.00    +0.173 C 
BRANCH  17  18
ATOM     18  C   UNL     1       9.530   4.487   0.193  0.00  0.00    +0.224 C 
ATOM     19  O   UNL     1      10.179   3.506   0.488  0.00  0.00    -0.275 OA
ATOM     20  N   UNL     1      10.145   5.672   0.008  0.00  0.00    -0.311 N 
ATOM     21  H   UNL     1       9.626   6.457  -0.228  0.00  0.00    +0.149 HD
BRANCH  20  22
ATOM     22  C   UNL     1      11.598   5.775   0.165  0.00  0.00    +0.079 C 
ATOM     23  C   UNL     1      11.938   5.995   1.640  0.00  0.00    +0.010 C 
ATOM     24  C   UNL     1      13.455   6.103   1.804  0.00  0.00    +0.009 C 
ATOM     25  C   UNL     1      13.974   7.283   0.980  0.00  0.00    -0.010 C 
ATOM     26  C   UNL     1      13.316   8.575   1.468  0.00  0.00    +0.007 C 
ATOM     27  C   UNL     1      11.798   8.467   1.305  0.00  0.00    -0.010 C 
ATOM     28  C   UNL     1      11.279   7.287   2.128  0.00  0.00    +0.009 C 
ATOM     29  C   UNL     1      11.459   8.247  -0.171  0.00  0.00    +0.009 C 
ATOM     30  C   UNL     1      12.117   6.955  -0.659  0.00  0.00    +0.010 C 
ATOM     31  C   UNL     1      13.635   7.063  -0.496  0.00  0.00    +0.009 C 
ENDBRANCH  20  22
ENDBRANCH  17  18
ENDBRANCH   1  17
TORSDOF 6
