REMARK  Name = ZINC13064355
REMARK  14 active torsions:
REMARK  status: ('A' for Active; 'I' for Inactive)
REMARK    1  A    between atoms: C_1  and  C_2
REMARK    2  A    between atoms: C_2  and  C_3
REMARK    3  A    between atoms: C_3  and  C_5
REMARK    4  A    between atoms: C_3  and  N_73
REMARK    5  A    between atoms: N_9  and  C_10
REMARK    6  A    between atoms: C_10  and  C_11
REMARK    7  A    between atoms: C_11  and  C_12
REMARK    8  A    between atoms: C_18  and  C_19
REMARK    9  A    between atoms: C_18  and  N_73
REMARK   10  A    between atoms: C_19  and  C_20
REMARK   11  A    between atoms: C_26  and  C_27
REMARK   12  A    between atoms: C_26  and  N_73
REMARK   13  A    between atoms: C_32  and  O_39
REMARK   14  A    between atoms: O_39  and  C_40
REMARK                            x       y       z     vdW  Elec       q    Type
REMARK                         _______ _______ _______ _____ _____    ______ ____
ROOT
ATOM      1  N   UNL     1       3.944  -0.207  -1.159  0.00  0.00    +0.389 N 
ATOM      2  H   UNL     1       3.688   0.014  -2.129  0.00  0.00    -0.080 HD
ENDROOT
BRANCH   1   3
ATOM      3  C   UNL     1       3.373   0.823  -0.266  0.00  0.00    +0.003 C 
BRANCH   3   4
ATOM      4  C   UNL     1       3.889   0.647   1.139  0.00  0.00    +0.138 A 
ATOM      5  N   UNL     1       5.145   0.582   1.510  0.00  0.00    -0.115 NA
ATOM      6  N   UNL     1       5.175   0.430   2.789  0.00  0.00    -0.023 NA
ATOM      7  N   UNL     1       3.971   0.397   3.244  0.00  0.00    -0.044 NA
ATOM      8  N   UNL     1       3.150   0.528   2.258  0.00  0.00    -0.231 N 
BRANCH   8   9
ATOM      9  C   UNL     1       1.687   0.543   2.340  0.00  0.00    +0.152 C 
BRANCH   9  10
ATOM     10  C   UNL     1       1.202   1.980   2.538  0.00  0.00    +0.058 C 
BRANCH  10  11
ATOM     11  C   UNL     1      -0.302   1.996   2.622  0.00  0.00    -0.046 A 
ATOM     12  C   UNL     1      -1.057   2.150   1.475  0.00  0.00    +0.004 A 
ATOM     13  C   UNL     1      -2.437   2.159   1.552  0.00  0.00    +0.000 A 
ATOM     14  C   UNL     1      -3.062   2.025   2.777  0.00  0.00    +0.000 A 
ATOM     15  C   UNL     1      -2.307   1.877   3.925  0.00  0.00    +0.000 A 
ATOM     16  C   UNL     1      -0.927   1.862   3.848  0.00  0.00    +0.004 A 
ENDBRANCH  10  11
ENDBRANCH   9  10
ENDBRANCH   8   9
ENDBRANCH   3   4
BRANCH   3  18
ATOM     17  C   UNL     1       3.138   2.435  -2.160  0.00  0.00    +0.002 C 
ATOM     18  C   UNL     1       3.773   2.204  -0.787  0.00  0.00    -0.011 C 
ENDBRANCH   3  18
ENDBRANCH   1   3
BRANCH   1  19
ATOM     19  C   UNL     1       3.399  -1.536  -0.811  0.00  0.00    -0.073 C 
BRANCH  19  20
ATOM     20  C   UNL     1       1.921  -1.582  -1.205  0.00  0.00    +0.016 C 
BRANCH  20  21
ATOM     21  C   UNL     1       1.340  -2.918  -0.821  0.00  0.00    -0.049 A 
ATOM     22  C   UNL     1       1.452  -3.994  -1.682  0.00  0.00    +0.003 A 
ATOM     23  C   UNL     1       0.923  -5.221  -1.328  0.00  0.00    +0.000 A 
ATOM     24  C   UNL     1       0.273  -5.370  -0.117  0.00  0.00    +0.000 A 
ATOM     25  C   UNL     1       0.156  -4.292   0.741  0.00  0.00    +0.000 A 
ATOM     26  C   UNL     1       0.689  -3.067   0.389  0.00  0.00    +0.003 A 
ENDBRANCH  20  21
ENDBRANCH  19  20
ENDBRANCH   1  19
BRANCH   1  27
ATOM     27  C   UNL     1       5.417  -0.218  -1.041  0.00  0.00    -0.037 C 
BRANCH  27  28
ATOM     28  C   UNL     1       5.989  -1.002  -2.195  0.00  0.00    +0.001 A 
ATOM     29  C   UNL     1       6.375  -0.356  -3.325  0.00  0.00    +0.017 A 
ATOM     30  C   UNL     1       6.927  -1.145  -4.426  0.00  0.00    -0.001 A 
ATOM     31  C   UNL     1       7.343  -0.534  -5.615  0.00  0.00    +0.013 A 
ATOM     32  C   UNL     1       7.854  -1.295  -6.625  0.00  0.00    +0.046 A 
ATOM     33  C   UNL     1       7.966  -2.677  -6.483  0.00  0.00    +0.122 A 
ATOM     34  C   UNL     1       7.561  -3.300  -5.316  0.00  0.00    +0.072 A 
ATOM     35  C   UNL     1       7.038  -2.541  -4.277  0.00  0.00    +0.053 A 
ATOM     36  N   UNL     1       6.627  -3.136  -3.102  0.00  0.00    -0.322 N 
ATOM     37  H   UNL     1       6.704  -4.098  -3.001  0.00  0.00    +0.169 HD
ATOM     38  C   UNL     1       6.126  -2.401  -2.094  0.00  0.00    +0.251 A 
ATOM     39  O   UNL     1       5.777  -2.960  -1.068  0.00  0.00    -0.268 OA
BRANCH  33  40
ATOM     40  O   UNL     1       8.478  -3.419  -7.499  0.00  0.00    -0.495 OA
ATOM     41  C   UNL     1       8.878  -2.716  -8.677  0.00  0.00    +0.277 C 
ENDBRANCH  33  40
ENDBRANCH  27  28
ENDBRANCH   1  27
TORSDOF 12
