REMARK  Name = ZINC03350648
REMARK  13 active torsions:
REMARK  status: ('A' for Active; 'I' for Inactive)
REMARK    1  A    between atoms: C_1  and  C_2
REMARK    2  A    between atoms: C_2  and  O_3
REMARK    3  A    between atoms: O_3  and  C_4
REMARK    4  A    between atoms: C_9  and  N_10
REMARK    5  A    between atoms: C_15  and  C_17
REMARK    6  A    between atoms: C_15  and  C_18
REMARK    7  A    between atoms: C_15  and  N_72
REMARK    8  A    between atoms: N_20  and  C_21
REMARK    9  A    between atoms: C_22  and  C_32
REMARK   10  A    between atoms: C_27  and  C_31
REMARK   11  A    between atoms: C_32  and  O_34
REMARK   12  A    between atoms: O_34  and  C_35
REMARK   13  A    between atoms: C_35  and  C_36
REMARK                            x       y       z     vdW  Elec       q    Type
REMARK                         _______ _______ _______ _____ _____    ______ ____
ROOT
ATOM      1  C   UNL     1      -7.325   0.472   1.328  0.00  0.00    +0.204 C 
ATOM      2  O   UNL     1      -6.826  -0.261   2.155  0.00  0.00    -0.277 OA
ATOM      3  N   UNL     1      -8.583   0.924   1.501  0.00  0.00    -0.281 N 
ATOM      4  H   UNL     1      -8.983   1.511   0.840  0.00  0.00    +0.155 HD
ENDROOT
BRANCH   3   5
ATOM      5  C   UNL     1      -9.305   0.551   2.624  0.00  0.00    +0.086 A 
ATOM      6  C   UNL     1     -10.600   0.910   2.976  0.00  0.00    +0.091 A 
ATOM      7  C   UNL     1     -11.130   0.376   4.220  0.00  0.00    -0.021 A 
ATOM      8  C   UNL     1     -10.287  -0.424   4.907  0.00  0.00    -0.004 A 
ATOM      9  S   UNL     1      -8.815  -0.481   3.926  0.00  0.00    -0.077 S 
ATOM     10  C   UNL     1     -10.556  -1.112   6.210  0.00  0.00    +0.046 C 
ATOM     11  C   UNL     1     -12.069  -1.077   6.472  0.00  0.00    -0.009 C 
ATOM     12  C   UNL     1     -12.578   0.348   6.236  0.00  0.00    +0.008 C 
ATOM     13  C   UNL     1     -12.529   0.676   4.742  0.00  0.00    +0.037 C 
ATOM     14  C   UNL     1     -12.348  -1.488   7.919  0.00  0.00    +0.008 C 
BRANCH   6  15
ATOM     15  C   UNL     1     -11.402   1.793   2.125  0.00  0.00    +0.342 C 
ATOM     16  O   UNL     1     -12.107   1.322   1.254  0.00  0.00    -0.245 OA
BRANCH  15  17
ATOM     17  O   UNL     1     -11.357   3.128   2.308  0.00  0.00    -0.461 OA
BRANCH  17  18
ATOM     18  C   UNL     1     -12.177   3.942   1.429  0.00  0.00    +0.229 C 
ATOM     19  C   UNL     1     -11.996   5.419   1.785  0.00  0.00    +0.048 C 
ENDBRANCH  17  18
ENDBRANCH  15  17
ENDBRANCH   6  15
ENDBRANCH   3   5
BRANCH   1  20
ATOM     20  C   UNL     1      -6.540   0.878   0.107  0.00  0.00    +0.017 C 
ATOM     21  C   UNL     1      -5.821   2.200   0.380  0.00  0.00    -0.004 C 
BRANCH  20  27
ATOM     22  N   UNL     1      -4.250  -2.068  -1.874  0.00  0.00    -0.331 N 
ATOM     23  C   UNL     1      -3.591  -0.801  -1.526  0.00  0.00    +0.086 C 
ATOM     24  C   UNL     1      -4.652   0.274  -1.284  0.00  0.00    -0.059 C 
ATOM     25  C   UNL     1      -6.211  -1.428  -0.555  0.00  0.00    -0.059 C 
ATOM     26  C   UNL     1      -5.149  -2.504  -0.796  0.00  0.00    +0.086 C 
ATOM     27  N   UNL     1      -5.535  -0.167  -0.184  0.00  0.00    +0.389 N 
ATOM     28  H   UNL     1      -4.967  -0.327   0.656  0.00  0.00    -0.081 HD
BRANCH  22  34
ATOM     29  C   UNL     1      -3.250  -3.603  -3.454  0.00  0.00    +0.141 A 
ATOM     30  C   UNL     1      -2.319  -4.588  -3.742  0.00  0.00    +0.047 A 
ATOM     31  C   UNL     1      -1.443  -5.020  -2.764  0.00  0.00    +0.004 A 
ATOM     32  C   UNL     1      -1.500  -4.479  -1.492  0.00  0.00    +0.002 A 
ATOM     33  C   UNL     1      -2.429  -3.500  -1.195  0.00  0.00    +0.027 A 
ATOM     34  C   UNL     1      -3.308  -3.058  -2.173  0.00  0.00    +0.072 A 
BRANCH  29  35
ATOM     35  O   UNL     1      -4.109  -3.174  -4.417  0.00  0.00    -0.490 OA
BRANCH  35  37
ATOM     36  C   UNL     1      -5.032  -3.171  -6.650  0.00  0.00    +0.048 C 
ATOM     37  C   UNL     1      -3.991  -3.778  -5.707  0.00  0.00    +0.226 C 
ENDBRANCH  35  37
ENDBRANCH  29  35
ENDBRANCH  22  34
ENDBRANCH  20  27
ENDBRANCH   1  20
TORSDOF 9
