REMARK  Name = ZINC21238142
REMARK  2 active torsions:
REMARK  status: ('A' for Active; 'I' for Inactive)
REMARK    1  A    between atoms: C_4  and  C_7
REMARK    2  A    between atoms: C_12  and  C_17
REMARK                            x       y       z     vdW  Elec       q    Type
REMARK                         _______ _______ _______ _____ _____    ______ ____
ROOT
ATOM      1  C   UNL     1      -0.070   5.347   0.030  0.00  0.00    +0.136 C 
ATOM      2  C   UNL     1      -0.316   5.816   1.444  0.00  0.00    +0.036 C 
ATOM      3  C   UNL     1      -1.438   6.394   1.900  0.00  0.00    +0.017 C 
ATOM      4  C   UNL     1      -1.563   6.783   3.364  0.00  0.00    +0.059 C 
ATOM      5  C   UNL     1      -0.199   7.202   3.909  0.00  0.00    +0.032 C 
ATOM      6  C   UNL     1       0.751   6.007   3.757  0.00  0.00    +0.088 C 
ATOM      7  C   UNL     1       0.779   5.599   2.315  0.00  0.00    +0.163 C 
ATOM      8  O   UNL     1       1.777   5.061   1.878  0.00  0.00    -0.292 OA
ATOM      9  N   UNL     1      -2.533   6.667   1.146  0.00  0.00    -0.316 N 
ATOM     10  C   UNL     1      -3.128   5.775   0.261  0.00  0.00    +0.052 A 
ATOM     11  C   UNL     1      -4.430   5.335   0.420  0.00  0.00    +0.025 A 
ATOM     12  C   UNL     1      -5.000   4.533  -0.554  0.00  0.00    +0.002 A 
ATOM     13  C   UNL     1      -4.273   4.175  -1.675  0.00  0.00    +0.002 A 
ATOM     14  C   UNL     1      -2.964   4.597  -1.826  0.00  0.00    +0.025 A 
ATOM     15  C   UNL     1      -2.385   5.386  -0.844  0.00  0.00    +0.049 A 
ATOM     16  N   UNL     1      -1.057   5.798  -0.930  0.00  0.00    -0.331 N 
ATOM     17  H   UNL     1      -3.014   7.654   1.211  0.00  0.00    +0.152 HD
ATOM     18  H   UNL     1      -0.762   6.476  -1.743  0.00  0.00    +0.147 HD
ENDROOT
BRANCH   5  19
ATOM     19  C   UNL     1      -0.322   7.574   5.364  0.00  0.00    -0.043 A 
ATOM     20  C   UNL     1      -0.775   6.643   6.279  0.00  0.00    +0.007 A 
ATOM     21  C   UNL     1      -0.884   6.981   7.614  0.00  0.00    +0.038 A 
ATOM     22  C   UNL     1      -0.549   8.258   8.034  0.00  0.00    +0.123 A 
ATOM     23  C   UNL     1      -0.100   9.191   7.115  0.00  0.00    +0.038 A 
ATOM     24  C   UNL     1       0.013   8.849   5.781  0.00  0.00    +0.007 A 
ATOM     25  F   UNL     1      -0.660   8.592   9.338  0.00  0.00    -0.205 F 
ENDBRANCH   5  19
BRANCH   1  29
ATOM     26  C   UNL     1      -0.012   1.076   0.010  0.00  0.00    +0.000 A 
ATOM     27  C   UNL     1       1.137   1.784  -0.285  0.00  0.00    +0.000 A 
ATOM     28  C   UNL     1       1.117   3.166  -0.284  0.00  0.00    +0.006 A 
ATOM     29  C   UNL     1      -0.050   3.840   0.022  0.00  0.00    -0.023 A 
ATOM     30  C   UNL     1      -1.199   3.132   0.323  0.00  0.00    +0.006 A 
ATOM     31  C   UNL     1      -1.180   1.750   0.316  0.00  0.00    +0.000 A 
ENDBRANCH   1  29
TORSDOF 2
