REMARK  Name = ZINC10059004
REMARK  7 active torsions:
REMARK  status: ('A' for Active; 'I' for Inactive)
REMARK    1  A    between atoms: C_4  and  N_7
REMARK    2  A    between atoms: C_8  and  N_31
REMARK    3  A    between atoms: C_13  and  S_14
REMARK    4  A    between atoms: S_14  and  C_15
REMARK    5  A    between atoms: C_15  and  C_16
REMARK    6  A    between atoms: N_18  and  C_19
REMARK    7  A    between atoms: N_18  and  C_25
REMARK                            x       y       z     vdW  Elec       q    Type
REMARK                         _______ _______ _______ _____ _____    ______ ____
ROOT
ATOM      1  S   UNL     1       4.839   2.470   0.569  0.00  0.00    -0.078 S 
ENDROOT
BRANCH   1   8
ATOM      2  N   UNL     1       3.570   0.364   1.702  0.00  0.00    -0.277 N 
ATOM      3  C   UNL     1       3.493  -0.902   2.228  0.00  0.00    +0.108 A 
ATOM      4  C   UNL     1       4.625  -1.662   2.293  0.00  0.00    +0.114 A 
ATOM      5  C   UNL     1       5.837  -1.123   1.818  0.00  0.00    +0.276 A 
ATOM      6  O   UNL     1       6.863  -1.785   1.865  0.00  0.00    -0.266 OA
ATOM      7  N   UNL     1       5.860   0.120   1.312  0.00  0.00    -0.185 NA
ATOM      8  C   UNL     1       4.763   0.846   1.248  0.00  0.00    +0.179 A 
BRANCH   2  12
ATOM      9  C   UNL     1       0.148   2.732   1.475  0.00  0.00    +0.000 A 
ATOM     10  C   UNL     1       0.491   1.912   0.415  0.00  0.00    +0.002 A 
ATOM     11  C   UNL     1       1.625   1.126   0.487  0.00  0.00    +0.026 A 
ATOM     12  C   UNL     1       2.420   1.160   1.625  0.00  0.00    +0.050 A 
ATOM     13  C   UNL     1       2.073   1.984   2.687  0.00  0.00    +0.026 A 
ATOM     14  C   UNL     1       0.938   2.767   2.610  0.00  0.00    +0.002 A 
ENDBRANCH   2  12
BRANCH   3  15
ATOM     15  N   UNL     1       2.292  -1.396   2.683  0.00  0.00    -0.344 N 
ATOM     16  H   UNL     1       1.482  -0.874   2.578  0.00  0.00    +0.144 HD
ATOM     17  H   UNL     1       2.257  -2.267   3.109  0.00  0.00    +0.144 HD
ENDBRANCH   3  15
ENDBRANCH   1   8
BRANCH   1  18
ATOM     18  C   UNL     1       6.582   2.674   0.110  0.00  0.00    +0.174 C 
BRANCH  18  19
ATOM     19  C   UNL     1       6.787   4.040  -0.491  0.00  0.00    +0.234 C 
ATOM     20  O   UNL     1       5.856   4.814  -0.570  0.00  0.00    -0.274 OA
ATOM     21  N   UNL     1       8.005   4.402  -0.941  0.00  0.00    -0.240 N 
BRANCH  21  22
ATOM     22  C   UNL     1       9.103   3.555  -0.750  0.00  0.00    +0.041 A 
ATOM     23  C   UNL     1       9.356   2.529  -1.651  0.00  0.00    +0.024 A 
ATOM     24  C   UNL     1      10.439   1.695  -1.460  0.00  0.00    +0.002 A 
ATOM     25  C   UNL     1      11.272   1.880  -0.371  0.00  0.00    +0.000 A 
ATOM     26  C   UNL     1      11.023   2.900   0.528  0.00  0.00    +0.002 A 
ATOM     27  C   UNL     1       9.944   3.742   0.339  0.00  0.00    +0.024 A 
ENDBRANCH  21  22
BRANCH  21  28
ATOM     28  C   UNL     1       8.172   5.627  -1.601  0.00  0.00    +0.041 A 
ATOM     29  C   UNL     1       8.018   6.818  -0.905  0.00  0.00    +0.024 A 
ATOM     30  C   UNL     1       8.183   8.024  -1.558  0.00  0.00    +0.002 A 
ATOM     31  C   UNL     1       8.501   8.045  -2.903  0.00  0.00    +0.000 A 
ATOM     32  C   UNL     1       8.655   6.860  -3.599  0.00  0.00    +0.002 A 
ATOM     33  C   UNL     1       8.497   5.651  -2.950  0.00  0.00    +0.024 A 
ENDBRANCH  21  28
ENDBRANCH  18  19
ENDBRANCH   1  18
TORSDOF 7
