REMARK  Name = ZINC63506378
REMARK  5 active torsions:
REMARK  status: ('A' for Active; 'I' for Inactive)
REMARK    1  A    between atoms: C_1  and  C_2
REMARK    2  A    between atoms: C_5  and  C_8
REMARK    3  A    between atoms: N_25  and  C_26
REMARK    4  A    between atoms: C_28  and  C_33
REMARK    5  A    between atoms: C_30  and  C_32
REMARK                            x       y       z     vdW  Elec       q    Type
REMARK                         _______ _______ _______ _____ _____    ______ ____
ROOT
ATOM      1  C   UNL     1       0.471  -3.680   0.086  0.00  0.00    +0.134 C 
ATOM      2  C   UNL     1      -0.987  -4.152   0.126  0.00  0.00    +0.131 C 
ATOM      3  C   UNL     1      -1.387  -4.207   1.595  0.00  0.00    -0.035 C 
ATOM      4  C   UNL     1      -2.462  -3.438   1.720  0.00  0.00    -0.001 A 
ATOM      5  C   UNL     1      -3.334  -3.153   2.871  0.00  0.00    +0.010 A 
ATOM      6  C   UNL     1      -4.362  -2.293   2.646  0.00  0.00    +0.001 A 
ATOM      7  C   UNL     1      -4.608  -1.696   1.405  0.00  0.00    +0.002 A 
ATOM      8  C   UNL     1      -3.861  -1.905   0.292  0.00  0.00    +0.026 A 
ATOM      9  C   UNL     1      -2.753  -2.794   0.403  0.00  0.00    +0.043 A 
ATOM     10  N   UNL     1      -1.888  -3.191  -0.514  0.00  0.00    -0.375 N 
ATOM     11  C   UNL     1      -0.583  -4.961   2.626  0.00  0.00    +0.052 C 
ATOM     12  C   UNL     1       0.879  -4.504   2.467  0.00  0.00    +0.114 C 
ATOM     13  N   UNL     1       1.236  -4.495   1.044  0.00  0.00    -0.276 N 
ATOM     14  C   UNL     1       2.271  -5.239   0.609  0.00  0.00    +0.307 C 
ATOM     15  O   UNL     1       2.627  -5.166  -0.552  0.00  0.00    -0.252 OA
ATOM     16  N   UNL     1       2.912  -6.066   1.459  0.00  0.00    -0.269 N 
ATOM     17  H   UNL     1       2.588  -6.172   2.368  0.00  0.00    +0.156 HD
ATOM     18  H   UNL     1      -1.844  -2.902  -1.439  0.00  0.00    +0.160 HD
ENDROOT
BRANCH  16  19
ATOM     19  C   UNL     1       4.043  -6.770   1.032  0.00  0.00    +0.035 A 
ATOM     20  C   UNL     1       4.248  -7.001  -0.322  0.00  0.00    +0.026 A 
ATOM     21  C   UNL     1       5.366  -7.696  -0.740  0.00  0.00    -0.048 A 
ATOM     22  C   UNL     1       6.280  -8.161   0.187  0.00  0.00    +0.006 A 
ATOM     23  C   UNL     1       6.078  -7.933   1.536  0.00  0.00    -0.048 A 
ATOM     24  C   UNL     1       4.966  -7.234   1.961  0.00  0.00    +0.026 A 
ATOM     25  C   UNL     1       7.077  -8.442   2.544  0.00  0.00    +0.044 C 
ATOM     26  C   UNL     1       5.590  -7.949  -2.209  0.00  0.00    +0.044 C 
ENDBRANCH  16  19
BRANCH   1  31
ATOM     27  C   UNL     1       0.761   1.893   1.586  0.00  0.00    +0.044 C 
ATOM     28  C   UNL     1       0.686   0.439   1.195  0.00  0.00    -0.050 A 
ATOM     29  C   UNL     1       0.972   0.057  -0.102  0.00  0.00    +0.004 A 
ATOM     30  C   UNL     1       0.902  -1.276  -0.461  0.00  0.00    +0.006 A 
ATOM     31  C   UNL     1       0.547  -2.227   0.478  0.00  0.00    -0.025 A 
ATOM     32  C   UNL     1       0.262  -1.845   1.775  0.00  0.00    +0.006 A 
ATOM     33  C   UNL     1       0.336  -0.512   2.135  0.00  0.00    +0.004 A 
ENDBRANCH   1  31
TORSDOF 2
