REMARK  Name = ZINC64754769
REMARK  5 active torsions:
REMARK  status: ('A' for Active; 'I' for Inactive)
REMARK    1  A    between atoms: N_9  and  N_10
REMARK    2  A    between atoms: N_13  and  C_14
REMARK    3  A    between atoms: C_14  and  C_15
REMARK    4  A    between atoms: N_19  and  C_21
REMARK    5  A    between atoms: C_21  and  C_22
REMARK                            x       y       z     vdW  Elec       q    Type
REMARK                         _______ _______ _______ _____ _____    ______ ____
ROOT
ATOM      1  N   UNL     1       4.814  -0.615  -0.048  0.00  0.00    -0.205 N 
ATOM      2  C   UNL     1       5.699  -1.631  -0.062  0.00  0.00    +0.318 C 
ATOM      3  O   UNL     1       5.306  -2.781  -0.065  0.00  0.00    -0.251 OA
ATOM      4  N   UNL     1       7.022  -1.371  -0.074  0.00  0.00    -0.298 N 
ATOM      5  H   UNL     1       5.128   0.303  -0.046  0.00  0.00    +0.177 HD
ATOM      6  H   UNL     1       7.336  -0.454  -0.072  0.00  0.00    +0.150 HD
ENDROOT
BRANCH   1  15
ATOM      7  C   UNL     1      -0.016   1.362   0.009  0.00  0.00    +0.002 A 
ATOM      8  C   UNL     1       1.167   2.086   0.002  0.00  0.00    +0.002 A 
ATOM      9  C   UNL     1       2.383   1.437  -0.013  0.00  0.00    +0.030 A 
ATOM     10  C   UNL     1       2.422   0.049  -0.021  0.00  0.00    +0.088 A 
ATOM     11  C   UNL     1       1.223  -0.684  -0.013  0.00  0.00    +0.091 A 
ATOM     12  C   UNL     1       0.002  -0.004   0.002  0.00  0.00    +0.030 A 
ATOM     13  N   UNL     1       1.563  -1.998  -0.024  0.00  0.00    -0.234 NA
ATOM     14  C   UNL     1       2.858  -2.115  -0.037  0.00  0.00    +0.219 A 
ATOM     15  N   UNL     1       3.439  -0.885  -0.036  0.00  0.00    -0.245 N 
ENDBRANCH   1  15
BRANCH   4  16
ATOM     16  C   UNL     1       7.985  -2.475  -0.089  0.00  0.00    +0.107 C 
BRANCH  16  17
ATOM     17  C   UNL     1       9.407  -1.911  -0.101  0.00  0.00    -0.011 C 
ATOM     18  C   UNL     1       9.672  -1.167   1.211  0.00  0.00    +0.001 C 
ATOM     19  C   UNL     1      11.123  -0.675   1.223  0.00  0.00    -0.018 C 
ATOM     20  C   UNL     1      12.062  -1.867   1.032  0.00  0.00    -0.078 C 
ATOM     21  N   UNL     1      11.776  -2.520  -0.251  0.00  0.00    +0.383 N 
ATOM     22  C   UNL     1      10.410  -3.058  -0.242  0.00  0.00    -0.073 C 
ATOM     23  H   UNL     1      11.866  -1.847  -0.997  0.00  0.00    -0.081 HD
BRANCH  21  24
ATOM     24  C   UNL     1      12.731  -3.615  -0.465  0.00  0.00    -0.036 C 
BRANCH  24  25
ATOM     25  C   UNL     1      14.121  -3.050  -0.606  0.00  0.00    -0.027 A 
ATOM     26  C   UNL     1      15.049  -2.817   0.354  0.00  0.00    +0.009 A 
ATOM     27  C   UNL     1      16.272  -2.287  -0.011  0.00  0.00    +0.008 A 
ATOM     28  C   UNL     1      16.508  -2.016  -1.318  0.00  0.00    +0.045 A 
ATOM     29  S   UNL     1      14.975  -2.520  -2.082  0.00  0.00    -0.103 S 
ENDBRANCH  24  25
ENDBRANCH  21  24
ENDBRANCH  16  17
ENDBRANCH   4  16
TORSDOF 5
