REMARK  Name = ZINC12275727
REMARK  6 active torsions:
REMARK  status: ('A' for Active; 'I' for Inactive)
REMARK    1  A    between atoms: C_1  and  O_2
REMARK    2  A    between atoms: O_2  and  C_3
REMARK    3  A    between atoms: C_6  and  C_9
REMARK    4  A    between atoms: C_16  and  C_17
REMARK    5  A    between atoms: C_21  and  C_22
REMARK    6  A    between atoms: C_21  and  O_27
REMARK                            x       y       z     vdW  Elec       q    Type
REMARK                         _______ _______ _______ _____ _____    ______ ____
ROOT
ATOM      1  C   UNL     1       3.934  -1.401  -0.142  0.00  0.00    +0.070 C 
ATOM      2  C   UNL     1       4.462  -0.175   0.598  0.00  0.00    +0.110 C 
ATOM      3  C   UNL     1       3.703   1.066   0.214  0.00  0.00    +0.224 C 
ATOM      4  O   UNL     1       4.283   2.119   0.051  0.00  0.00    -0.275 OA
ATOM      5  N   UNL     1       2.346   0.986   0.052  0.00  0.00    -0.228 N 
ATOM      6  C   UNL     1       1.752  -0.266  -0.012  0.00  0.00    +0.087 C 
ATOM      7  C   UNL     1       2.424  -1.443  -0.074  0.00  0.00    +0.065 C 
ATOM      8  S   UNL     1       0.002  -0.004   0.002  0.00  0.00    -0.104 S 
ATOM      9  C   UNL     1      -0.023   1.829   0.012  0.00  0.00    +0.139 C 
ATOM     10  C   UNL     1       1.481   2.152  -0.001  0.00  0.00    +0.208 C 
ENDROOT
BRANCH   1  14
ATOM     11  C   UNL     1       5.155  -1.221  -4.233  0.00  0.00    +0.120 A 
ATOM     12  C   UNL     1       5.546  -2.288  -3.437  0.00  0.00    +0.046 A 
ATOM     13  C   UNL     1       5.150  -2.344  -2.115  0.00  0.00    +0.008 A 
ATOM     14  C   UNL     1       4.365  -1.338  -1.584  0.00  0.00    -0.039 A 
ATOM     15  C   UNL     1       3.969  -0.276  -2.377  0.00  0.00    +0.008 A 
ATOM     16  C   UNL     1       4.367  -0.212  -3.698  0.00  0.00    +0.046 A 
BRANCH  11  18
ATOM     17  C   UNL     1       5.104  -0.036  -6.293  0.00  0.00    +0.277 C 
ATOM     18  O   UNL     1       5.544  -1.163  -5.534  0.00  0.00    -0.495 OA
ENDBRANCH  11  18
ENDBRANCH   1  14
BRANCH  10  19
ATOM     19  C   UNL     1       1.794   2.924  -1.256  0.00  0.00    +0.156 A 
ATOM     20  C   UNL     1       1.788   4.263  -1.379  0.00  0.00    +0.049 A 
ATOM     21  C   UNL     1       2.137   4.554  -2.718  0.00  0.00    +0.041 A 
ATOM     22  C   UNL     1       2.336   3.375  -3.333  0.00  0.00    +0.195 A 
ATOM     23  O   UNL     1       2.133   2.391  -2.442  0.00  0.00    -0.463 OA
ENDBRANCH  10  19
BRANCH   7  24
ATOM     24  C   UNL     1       1.722  -2.691  -0.076  0.00  0.00    +0.098 C 
ATOM     25  N   UNL     1       1.165  -3.681  -0.078  0.00  0.00    -0.191 NA
ENDBRANCH   7  24
BRANCH  10  26
ATOM     26  O   UNL     1       1.776   2.986   1.122  0.00  0.00    -0.364 OA
ATOM     27  H   UNL     1       1.312   3.834   1.115  0.00  0.00    +0.213 HD
ENDBRANCH  10  26
TORSDOF 5
