REMARK  Name = ZINC39686876
REMARK  10 active torsions:
REMARK  status: ('A' for Active; 'I' for Inactive)
REMARK    1  A    between atoms: C_1  and  C_2
REMARK    2  A    between atoms: C_2  and  C_4
REMARK    3  A    between atoms: C_2  and  N_12
REMARK    4  A    between atoms: C_4  and  C_5
REMARK    5  A    between atoms: C_13  and  C_15
REMARK    6  A    between atoms: C_26  and  C_28
REMARK    7  A    between atoms: C_31  and  O_36
REMARK    8  A    between atoms: C_32  and  O_34
REMARK    9  A    between atoms: O_34  and  C_35
REMARK   10  A    between atoms: O_36  and  C_37
REMARK                            x       y       z     vdW  Elec       q    Type
REMARK                         _______ _______ _______ _____ _____    ______ ____
ROOT
ATOM      1  C   UNL     1      -4.022  -1.416  -0.902  0.00  0.00    +0.100 C 
ATOM      2  C   UNL     1      -4.655  -0.290  -0.054  0.00  0.00    +0.121 C 
ATOM      3  N   UNL     1      -5.223   0.652  -1.047  0.00  0.00    -0.296 N 
ATOM      4  C   UNL     1      -5.792  -0.222  -2.101  0.00  0.00    +0.115 C 
ATOM      5  C   UNL     1      -4.774  -1.371  -2.243  0.00  0.00    -0.004 C 
ATOM      6  C   UNL     1      -5.497  -2.691  -2.488  0.00  0.00    -0.010 C 
ATOM      7  C   UNL     1      -6.189  -2.643  -3.853  0.00  0.00    -0.082 C 
ATOM      8  N   UNL     1      -5.189  -2.408  -4.902  0.00  0.00    +0.379 N 
ATOM      9  C   UNL     1      -4.563  -1.094  -4.712  0.00  0.00    -0.082 C 
ATOM     10  C   UNL     1      -3.803  -1.076  -3.383  0.00  0.00    -0.010 C 
ATOM     11  C   UNL     1      -5.223   1.999  -1.002  0.00  0.00    +0.247 C 
ATOM     12  O   UNL     1      -4.617   2.578  -0.121  0.00  0.00    -0.270 OA
ATOM     13  H   UNL     1      -4.481  -3.126  -4.858  0.00  0.00    -0.086 HD
ATOM     14  H   UNL     1      -5.638  -2.438  -5.806  0.00  0.00    -0.086 HD
ENDROOT
BRANCH  11  15
ATOM     15  C   UNL     1      -5.959   2.771  -2.022  0.00  0.00    +0.041 A 
ATOM     16  C   UNL     1      -6.994   2.171  -2.743  0.00  0.00    +0.017 A 
ATOM     17  C   UNL     1      -7.680   2.893  -3.695  0.00  0.00    +0.050 A 
ATOM     18  C   UNL     1      -7.345   4.218  -3.940  0.00  0.00    +0.162 A 
ATOM     19  C   UNL     1      -6.314   4.824  -3.224  0.00  0.00    +0.162 A 
ATOM     20  C   UNL     1      -5.626   4.107  -2.264  0.00  0.00    +0.062 A 
BRANCH  19  21
ATOM     21  O   UNL     1      -5.988   6.122  -3.466  0.00  0.00    -0.491 OA
ATOM     22  C   UNL     1      -4.920   6.677  -2.696  0.00  0.00    +0.277 C 
ENDBRANCH  19  21
BRANCH  18  23
ATOM     23  O   UNL     1      -8.024   4.926  -4.879  0.00  0.00    -0.491 OA
ATOM     24  C   UNL     1      -9.069   4.244  -5.576  0.00  0.00    +0.277 C 
ENDBRANCH  18  23
ENDBRANCH  11  15
BRANCH   1  26
ATOM     25  N   UNL     1      -1.696  -2.182  -1.249  0.00  0.00    -0.312 N 
ATOM     26  C   UNL     1      -2.554  -1.151  -1.114  0.00  0.00    +0.218 C 
ATOM     27  O   UNL     1      -2.144  -0.011  -1.163  0.00  0.00    -0.275 OA
ATOM     28  H   UNL     1      -2.023  -3.094  -1.210  0.00  0.00    +0.149 HD
BRANCH  25  30
ATOM     29  C   UNL     1       0.415  -1.724  -0.101  0.00  0.00    +0.028 C 
ATOM     30  C   UNL     1      -0.268  -1.924  -1.455  0.00  0.00    +0.074 C 
BRANCH  30  31
ATOM     31  C   UNL     1       0.366  -3.116  -2.175  0.00  0.00    +0.060 C 
BRANCH  31  32
ATOM     32  C   UNL     1      -0.221  -3.238  -3.558  0.00  0.00    -0.010 A 
ATOM     33  C   UNL     1      -1.289  -4.086  -3.783  0.00  0.00    +0.006 A 
ATOM     34  C   UNL     1      -1.827  -4.198  -5.051  0.00  0.00    +0.000 A 
ATOM     35  C   UNL     1      -1.298  -3.463  -6.095  0.00  0.00    +0.003 A 
ATOM     36  C   UNL     1      -0.231  -2.614  -5.873  0.00  0.00    +0.038 A 
ATOM     37  C   UNL     1       0.306  -2.497  -4.601  0.00  0.00    +0.127 A 
ATOM     38  F   UNL     1       1.347  -1.664  -4.381  0.00  0.00    -0.205 F 
ENDBRANCH  31  32
ENDBRANCH  30  31
ENDBRANCH  25  30
ENDBRANCH   1  26
TORSDOF 7
