REMARK  Name = ZINC07487877
REMARK  9 active torsions:
REMARK  status: ('A' for Active; 'I' for Inactive)
REMARK    1  A    between atoms: C_1  and  C_2
REMARK    2  A    between atoms: C_2  and  C_4
REMARK    3  A    between atoms: C_2  and  N_11
REMARK    4  A    between atoms: N_11  and  C_12
REMARK    5  A    between atoms: C_12  and  C_13
REMARK    6  A    between atoms: C_20  and  O_27
REMARK    7  A    between atoms: C_21  and  O_25
REMARK    8  A    between atoms: O_25  and  C_26
REMARK    9  A    between atoms: O_27  and  C_28
REMARK                            x       y       z     vdW  Elec       q    Type
REMARK                         _______ _______ _______ _____ _____    ______ ____
ROOT
ATOM      1  C   UNL     1      -3.464  -0.648  -1.224  0.00  0.00    +0.093 A 
ATOM      2  N   UNL     1      -4.253  -0.396  -2.301  0.00  0.00    -0.312 N 
ATOM      3  H   UNL     1      -3.897   0.110  -3.049  0.00  0.00    +0.170 HD
ATOM      4  C   UNL     1      -5.529  -0.843  -2.341  0.00  0.00    +0.259 A 
ATOM      5  O   UNL     1      -6.246  -0.625  -3.301  0.00  0.00    -0.267 OA
ATOM      6  C   UNL     1      -6.017  -1.602  -1.183  0.00  0.00    +0.068 A 
ATOM      7  C   UNL     1      -7.317  -2.105  -1.127  0.00  0.00    +0.064 A 
ATOM      8  C   UNL     1      -7.726  -2.812  -0.015  0.00  0.00    +0.162 A 
ATOM      9  C   UNL     1      -6.847  -3.025   1.052  0.00  0.00    +0.164 A 
ATOM     10  C   UNL     1      -5.557  -2.532   1.010  0.00  0.00    +0.078 A 
ATOM     11  C   UNL     1      -5.126  -1.816  -0.106  0.00  0.00    +0.082 A 
ATOM     12  N   UNL     1      -3.865  -1.320  -0.188  0.00  0.00    -0.236 NA
ENDROOT
BRANCH   9  13
ATOM     13  O   UNL     1      -7.266  -3.721   2.140  0.00  0.00    -0.491 OA
ATOM     14  C   UNL     1      -6.321  -3.905   3.196  0.00  0.00    +0.277 C 
ENDBRANCH   9  13
BRANCH   8  15
ATOM     15  O   UNL     1      -8.992  -3.305   0.044  0.00  0.00    -0.491 OA
ATOM     16  C   UNL     1      -9.840  -3.052  -1.078  0.00  0.00    +0.277 C 
ENDBRANCH   8  15
BRANCH   1  17
ATOM     17  C   UNL     1      -2.050  -0.126  -1.234  0.00  0.00    -0.006 C 
BRANCH  17  18
ATOM     18  N   UNL     1      -1.376  -0.512   0.012  0.00  0.00    +0.388 N 
ATOM     19  H   UNL     1      -1.363  -1.518   0.090  0.00  0.00    -0.084 HD
ATOM     20  H   UNL     1      -1.873  -0.121   0.799  0.00  0.00    -0.084 HD
BRANCH  18  22
ATOM     21  C   UNL     1      -0.019   1.526   0.010  0.00  0.00    -0.009 C 
ATOM     22  C   UNL     1       0.002  -0.004   0.002  0.00  0.00    -0.042 C 
BRANCH  22  23
ATOM     23  C   UNL     1       0.731  -0.503   1.223  0.00  0.00    -0.043 A 
ATOM     24  C   UNL     1       0.018  -0.951   2.319  0.00  0.00    +0.003 A 
ATOM     25  C   UNL     1       0.686  -1.409   3.439  0.00  0.00    +0.000 A 
ATOM     26  C   UNL     1       2.068  -1.419   3.463  0.00  0.00    +0.001 A 
ATOM     27  C   UNL     1       2.783  -0.972   2.368  0.00  0.00    +0.020 A 
ATOM     28  C   UNL     1       2.114  -0.519   1.245  0.00  0.00    +0.043 A 
ATOM     29 CL   UNL     1       3.011   0.037  -0.134  0.00  0.00    -0.083 Cl
ENDBRANCH  22  23
ENDBRANCH  18  22
ENDBRANCH  17  18
ENDBRANCH   1  17
TORSDOF 6
