REMARK  Name = ZINC00850204
REMARK  10 active torsions:
REMARK  status: ('A' for Active; 'I' for Inactive)
REMARK    1  A    between atoms: C_1  and  C_2
REMARK    2  A    between atoms: C_2  and  N_3
REMARK    3  A    between atoms: C_10  and  C_22
REMARK    4  A    between atoms: C_12  and  C_18
REMARK    5  A    between atoms: C_12  and  C_20
REMARK    6  A    between atoms: C_13  and  N_17
REMARK    7  A    between atoms: C_14  and  C_15
REMARK    8  A    between atoms: C_25  and  O_28
REMARK    9  A    between atoms: O_28  and  C_29
REMARK   10  A    between atoms: C_29  and  C_30
REMARK                            x       y       z     vdW  Elec       q    Type
REMARK                         _______ _______ _______ _____ _____    ______ ____
ROOT
ATOM      1  N   UNL     1       1.683   6.699  -3.213  0.00  0.00    -0.298 NA
ATOM      2  C   UNL     1       0.336   7.047  -3.696  0.00  0.00    +0.112 C 
ATOM      3  C   UNL     1      -0.537   7.286  -2.490  0.00  0.00    -0.007 C 
ATOM      4  C   UNL     1      -0.018   7.790  -1.385  0.00  0.00    -0.026 C 
ATOM      5  C   UNL     1       1.422   8.202  -1.272  0.00  0.00    +0.044 C 
ATOM      6  C   UNL     1       2.261   7.824  -2.472  0.00  0.00    +0.093 C 
ATOM      7  C   UNL     1       1.984   7.614   0.024  0.00  0.00    +0.067 C 
ATOM      8  C   UNL     1       1.230   8.213   1.212  0.00  0.00    +0.188 C 
ATOM      9  C   UNL     1      -0.256   8.104   1.036  0.00  0.00    +0.054 C 
ATOM     10  C   UNL     1      -0.857   7.918  -0.168  0.00  0.00    +0.074 C 
ENDROOT
BRANCH   7  11
ATOM     11  C   UNL     1       1.807   6.117   0.018  0.00  0.00    -0.041 A 
ATOM     12  C   UNL     1       2.780   5.309  -0.541  0.00  0.00    +0.007 A 
ATOM     13  C   UNL     1       2.620   3.937  -0.548  0.00  0.00    +0.046 A 
ATOM     14  C   UNL     1       1.482   3.370   0.006  0.00  0.00    +0.121 A 
ATOM     15  C   UNL     1       0.504   4.183   0.561  0.00  0.00    +0.046 A 
ATOM     16  C   UNL     1       0.672   5.554   0.571  0.00  0.00    +0.007 A 
BRANCH  14  17
ATOM     17  O   UNL     1       1.322   2.020   0.000  0.00  0.00    -0.492 OA
BRANCH  17  18
ATOM     18  C   UNL     1       0.125   1.506   0.588  0.00  0.00    +0.225 C 
ATOM     19  C   UNL     1       0.123  -0.021   0.489  0.00  0.00    +0.048 C 
ENDBRANCH  17  18
ENDBRANCH  14  17
ENDBRANCH   7  11
BRANCH   9  20
ATOM     20  N   UNL     1      -1.047   8.196   2.146  0.00  0.00    -0.358 N 
ATOM     21  H   UNL     1      -2.140   8.119   2.051  0.00  0.00    +0.142 HD
ATOM     22  H   UNL     1      -0.591   8.346   3.135  0.00  0.00    +0.142 HD
ENDBRANCH   9  20
BRANCH   1  24
ATOM     23  C   UNL     1       2.038   4.993  -4.933  0.00  0.00    +0.020 C 
ATOM     24  C   UNL     1       2.555   6.298  -4.325  0.00  0.00    +0.081 C 
ENDBRANCH   1  24
BRANCH  10  25
ATOM     25  C   UNL     1      -2.284   7.846  -0.261  0.00  0.00    +0.101 C 
ATOM     26  N   UNL     1      -3.416   7.790  -0.335  0.00  0.00    -0.191 NA
ENDBRANCH  10  25
BRANCH   8  27
ATOM     27  C   UNL     1       1.625   7.503   2.439  0.00  0.00    +0.091 C 
ATOM     28  N   UNL     1       1.930   6.955   3.386  0.00  0.00    -0.194 NA
ENDBRANCH   8  27
BRANCH   8  29
ATOM     29  C   UNL     1       1.595   9.633   1.343  0.00  0.00    +0.091 C 
ATOM     30  N   UNL     1       1.875  10.730   1.445  0.00  0.00    -0.194 NA
ENDBRANCH   8  29
TORSDOF 8
