REMARK  Name = ZINC39747542
REMARK  9 active torsions:
REMARK  status: ('A' for Active; 'I' for Inactive)
REMARK    1  A    between atoms: C_1  and  C_2
REMARK    2  A    between atoms: C_5  and  C_37
REMARK    3  A    between atoms: C_6  and  O_8
REMARK    4  A    between atoms: O_8  and  C_9
REMARK    5  A    between atoms: C_9  and  C_10
REMARK    6  A    between atoms: C_14  and  S_23
REMARK    7  A    between atoms: N_16  and  C_17
REMARK    8  A    between atoms: S_23  and  C_24
REMARK    9  A    between atoms: C_24  and  C_25
REMARK                            x       y       z     vdW  Elec       q    Type
REMARK                         _______ _______ _______ _____ _____    ______ ____
ROOT
ATOM      1  C   UNL     1       0.060  -2.948   4.760  0.00  0.00    +0.195 C 
ATOM      2  N   UNL     1      -1.153  -3.807   4.776  0.00  0.00    -0.231 NA
ATOM      3  N   UNL     1      -0.728  -4.966   5.577  0.00  0.00    -0.226 NA
ATOM      4  C   UNL     1       0.681  -5.190   5.180  0.00  0.00    +0.217 C 
ATOM      5  N   UNL     1       1.183  -3.903   4.662  0.00  0.00    -0.285 N 
ATOM      6  H   UNL     1      -1.928  -3.330   5.213  0.00  0.00    +0.143 HD
ATOM      7  H   UNL     1      -0.798  -4.769   6.564  0.00  0.00    +0.143 HD
ENDROOT
BRANCH   5   8
ATOM      8  C   UNL     1       2.465  -3.638   4.174  0.00  0.00    +0.033 A 
ATOM      9  C   UNL     1       3.300  -2.758   4.851  0.00  0.00    +0.023 A 
ATOM     10  C   UNL     1       4.567  -2.499   4.367  0.00  0.00    +0.002 A 
ATOM     11  C   UNL     1       5.005  -3.114   3.208  0.00  0.00    +0.000 A 
ATOM     12  C   UNL     1       4.176  -3.991   2.531  0.00  0.00    +0.002 A 
ATOM     13  C   UNL     1       2.910  -4.259   3.014  0.00  0.00    +0.023 A 
ENDBRANCH   5   8
BRANCH   1  14
ATOM     14  C   UNL     1       0.041  -2.017   3.546  0.00  0.00    +0.268 C 
BRANCH  14  15
ATOM     15  O   UNL     1      -0.167  -2.786   2.360  0.00  0.00    -0.488 OA
BRANCH  15  21
ATOM     16  C   UNL     1       0.068   1.459  -0.038  0.00  0.00    +0.044 C 
ATOM     17  C   UNL     1      -0.100  -0.039  -0.024  0.00  0.00    -0.047 A 
ATOM     18  C   UNL     1      -0.299  -0.722  -1.210  0.00  0.00    +0.004 A 
ATOM     19  C   UNL     1      -0.453  -2.096  -1.201  0.00  0.00    +0.007 A 
ATOM     20  C   UNL     1      -0.409  -2.789  -0.007  0.00  0.00    -0.009 A 
ATOM     21  C   UNL     1      -0.210  -2.106   1.184  0.00  0.00    +0.124 A 
ATOM     22  C   UNL     1      -0.050  -0.728   1.171  0.00  0.00    +0.049 A 
ATOM     23  C   UNL     1      -0.578  -4.287   0.002  0.00  0.00    +0.047 C 
ENDBRANCH  15  21
ENDBRANCH  14  15
ENDBRANCH   1  14
BRANCH   4  24
ATOM     24  S   UNL     1       1.659  -5.702   6.620  0.00  0.00    -0.114 S 
BRANCH  24  25
ATOM     25  C   UNL     1       1.458  -4.335   7.795  0.00  0.00    +0.146 C 
BRANCH  25  26
ATOM     26  C   UNL     1       2.231  -4.637   9.053  0.00  0.00    +0.120 A 
ATOM     27  N   UNL     1       2.200  -3.728  10.062  0.00  0.00    -0.310 N 
ATOM     28  H   UNL     1       1.688  -2.911   9.957  0.00  0.00    +0.170 HD
ATOM     29  C   UNL     1       2.877  -3.953  11.213  0.00  0.00    +0.259 A 
ATOM     30  O   UNL     1       2.857  -3.147  12.125  0.00  0.00    -0.267 OA
ATOM     31  C   UNL     1       3.636  -5.208  11.318  0.00  0.00    +0.065 A 
ATOM     32  C   UNL     1       4.366  -5.534  12.459  0.00  0.00    +0.015 A 
ATOM     33  C   UNL     1       5.060  -6.724  12.503  0.00  0.00    +0.001 A 
ATOM     34  C   UNL     1       5.036  -7.596  11.423  0.00  0.00    +0.002 A 
ATOM     35  C   UNL     1       4.322  -7.292  10.286  0.00  0.00    +0.028 A 
ATOM     36  C   UNL     1       3.610  -6.092  10.217  0.00  0.00    +0.078 A 
ATOM     37  N   UNL     1       2.888  -5.755   9.119  0.00  0.00    -0.233 NA
ENDBRANCH  25  26
ENDBRANCH  24  25
ENDBRANCH   4  24
TORSDOF 7
