REMARK  Name = ZINC62397314
REMARK  7 active torsions:
REMARK  status: ('A' for Active; 'I' for Inactive)
REMARK    1  A    between atoms: C_1  and  C_2
REMARK    2  A    between atoms: C_2  and  C_3
REMARK    3  A    between atoms: C_2  and  C_4
REMARK    4  A    between atoms: C_5  and  C_23
REMARK    5  A    between atoms: C_10  and  C_12
REMARK    6  A    between atoms: C_12  and  C_13
REMARK    7  A    between atoms: C_23  and  O_24
REMARK                            x       y       z     vdW  Elec       q    Type
REMARK                         _______ _______ _______ _____ _____    ______ ____
ROOT
ATOM      1  C   UNL     1      -1.412  -0.526   0.013  0.00  0.00    +0.070 A 
ATOM      2  C   UNL     1      -1.969  -1.309  -0.928  0.00  0.00    +0.092 A 
ATOM      3  N   UNL     1      -3.280  -1.564  -0.544  0.00  0.00    -0.208 N 
ATOM      4  C   UNL     1      -3.434  -0.896   0.642  0.00  0.00    +0.196 A 
ATOM      5  N   UNL     1      -2.327  -0.293   0.965  0.00  0.00    -0.224 NA
ATOM      6  S   UNL     1      -5.120  -1.265   1.069  0.00  0.00    -0.033 S 
ATOM      7  C   UNL     1      -5.507  -2.278  -0.351  0.00  0.00    +0.107 A 
ATOM      8  N   UNL     1      -4.388  -2.263  -1.010  0.00  0.00    -0.162 NA
ENDROOT
BRANCH   1  10
ATOM      9  C   UNL     1      -0.019   1.526   0.010  0.00  0.00    +0.014 C 
ATOM     10  C   UNL     1       0.002  -0.004   0.002  0.00  0.00    +0.034 C 
ATOM     11  C   UNL     1       0.742  -0.511   1.242  0.00  0.00    +0.014 C 
ENDBRANCH   1  10
BRANCH   7  12
ATOM     12  C   UNL     1      -6.800  -2.971  -0.695  0.00  0.00    +0.102 C 
BRANCH  12  13
ATOM     13  C   UNL     1      -6.642  -3.710  -1.999  0.00  0.00    -0.016 A 
ATOM     14  C   UNL     1      -6.968  -3.255  -3.219  0.00  0.00    +0.087 A 
ATOM     15  N   UNL     1      -6.682  -4.204  -4.162  0.00  0.00    -0.360 N 
ATOM     16  H   UNL     1      -6.831  -4.105  -5.116  0.00  0.00    +0.165 HD
ATOM     17  C   UNL     1      -6.152  -5.322  -3.557  0.00  0.00    +0.047 A 
ATOM     18  C   UNL     1      -6.097  -5.059  -2.176  0.00  0.00    +0.003 A 
ATOM     19  C   UNL     1      -5.592  -6.023  -1.302  0.00  0.00    +0.010 A 
ATOM     20  C   UNL     1      -5.148  -7.218  -1.795  0.00  0.00    +0.001 A 
ATOM     21  C   UNL     1      -5.196  -7.481  -3.157  0.00  0.00    +0.002 A 
ATOM     22  C   UNL     1      -5.700  -6.547  -4.035  0.00  0.00    +0.026 A 
ENDBRANCH  12  13
ENDBRANCH   7  12
BRANCH   2  23
ATOM     23  C   UNL     1      -1.292  -1.818  -2.174  0.00  0.00    +0.213 C 
BRANCH  23  24
ATOM     24  O   UNL     1      -1.488  -0.884  -3.238  0.00  0.00    -0.389 OA
ATOM     25  H   UNL     1      -1.078  -1.148  -4.073  0.00  0.00    +0.210 HD
ENDBRANCH  23  24
ENDBRANCH   2  23
TORSDOF 5
