REMARK  Name = ZINC34748144
REMARK  6 active torsions:
REMARK  status: ('A' for Active; 'I' for Inactive)
REMARK    1  A    between atoms: C_4  and  C_7
REMARK    2  A    between atoms: C_7  and  N_8
REMARK    3  A    between atoms: C_9  and  C_11
REMARK    4  A    between atoms: C_11  and  N_12
REMARK    5  A    between atoms: N_30  and  C_31
REMARK    6  A    between atoms: C_31  and  C_32
REMARK                            x       y       z     vdW  Elec       q    Type
REMARK                         _______ _______ _______ _____ _____    ______ ____
ROOT
ATOM      1  N   UNL     1       7.949  -2.153   2.090  0.00  0.00    +0.387 N 
ATOM      2  C   UNL     1       9.263  -1.767   1.561  0.00  0.00    -0.059 C 
ATOM      3  C   UNL     1      10.306  -2.811   1.975  0.00  0.00    +0.089 C 
ATOM      4  N   UNL     1      10.260  -2.961   3.438  0.00  0.00    -0.304 N 
ATOM      5  C   UNL     1       8.952  -3.188   4.071  0.00  0.00    +0.089 C 
ATOM      6  C   UNL     1       7.973  -2.127   3.558  0.00  0.00    -0.059 C 
ATOM      7  C   UNL     1      11.406  -2.892   4.191  0.00  0.00    +0.202 A 
ATOM      8  N   UNL     1      12.240  -1.888   4.011  0.00  0.00    -0.208 NA
ATOM      9  C   UNL     1      13.356  -1.797   4.727  0.00  0.00    +0.117 A 
ATOM     10  C   UNL     1      13.699  -2.750   5.696  0.00  0.00    +0.076 A 
ATOM     11  C   UNL     1      14.966  -2.518   6.410  0.00  0.00    -0.023 A 
ATOM     12  C   UNL     1      15.664  -1.423   6.068  0.00  0.00    -0.004 A 
ATOM     13  S   UNL     1      14.700  -0.642   4.793  0.00  0.00    -0.073 S 
ATOM     14  C   UNL     1      16.933  -1.286   6.864  0.00  0.00    +0.043 C 
ATOM     15  C   UNL     1      16.737  -2.229   8.072  0.00  0.00    +0.010 C 
ATOM     16  C   UNL     1      15.737  -3.257   7.507  0.00  0.00    +0.037 C 
ATOM     17  C   UNL     1      12.776  -3.829   5.870  0.00  0.00    +0.264 A 
ATOM     18  O   UNL     1      12.993  -4.703   6.691  0.00  0.00    -0.267 OA
ATOM     19  N   UNL     1      11.661  -3.860   5.116  0.00  0.00    -0.276 N 
ATOM     20  H   UNL     1       7.723  -3.085   1.776  0.00  0.00    -0.081 HD
ENDROOT
BRANCH   1  21
ATOM     21  C   UNL     1       6.931  -1.213   1.602  0.00  0.00    +0.019 C 
BRANCH  21  23
ATOM     22  N   UNL     1       5.942  -0.555  -0.567  0.00  0.00    -0.313 N 
ATOM     23  C   UNL     1       6.819  -1.327   0.104  0.00  0.00    +0.197 C 
ATOM     24  O   UNL     1       7.518  -2.115  -0.498  0.00  0.00    -0.278 OA
ATOM     25  H   UNL     1       5.383   0.075  -0.086  0.00  0.00    +0.149 HD
BRANCH  22  26
ATOM     26  C   UNL     1       5.832  -0.666  -2.024  0.00  0.00    +0.139 C 
BRANCH  26  30
ATOM     27  C   UNL     1       2.873   2.067  -3.445  0.00  0.00    +0.000 A 
ATOM     28  C   UNL     1       4.192   2.469  -3.342  0.00  0.00    +0.000 A 
ATOM     29  C   UNL     1       5.150   1.584  -2.882  0.00  0.00    +0.005 A 
ATOM     30  C   UNL     1       4.788   0.298  -2.525  0.00  0.00    -0.030 A 
ATOM     31  C   UNL     1       3.469  -0.102  -2.627  0.00  0.00    +0.005 A 
ATOM     32  C   UNL     1       2.512   0.782  -3.088  0.00  0.00    +0.000 A 
ENDBRANCH  26  30
ENDBRANCH  22  26
ENDBRANCH  21  23
ENDBRANCH   1  21
BRANCH  19  33
ATOM     33  C   UNL     1      10.706  -4.957   5.290  0.00  0.00    +0.163 C 
BRANCH  33  34
ATOM     34  C   UNL     1      11.085  -6.101   4.384  0.00  0.00    -0.028 A 
ATOM     35  C   UNL     1      10.496  -6.221   3.140  0.00  0.00    +0.005 A 
ATOM     36  C   UNL     1      10.843  -7.269   2.309  0.00  0.00    +0.000 A 
ATOM     37  C   UNL     1      11.780  -8.198   2.723  0.00  0.00    +0.000 A 
ATOM     38  C   UNL     1      12.370  -8.077   3.967  0.00  0.00    +0.000 A 
ATOM     39  C   UNL     1      12.026  -7.026   4.796  0.00  0.00    +0.005 A 
ENDBRANCH  33  34
ENDBRANCH  19  33
TORSDOF 6
