REMARK  Name = ZINC04936940
REMARK  2 active torsions:
REMARK  status: ('A' for Active; 'I' for Inactive)
REMARK    1  A    between atoms: C_6  and  C_7
REMARK    2  A    between atoms: N_9  and  C_10
REMARK                            x       y       z     vdW  Elec       q    Type
REMARK                         _______ _______ _______ _____ _____    ______ ____
ROOT
ATOM      1  C   UNL     1      -1.305   2.116   0.027  0.00  0.00    +0.248 C 
ATOM      2  O   UNL     1      -2.352   1.497   0.031  0.00  0.00    -0.270 OA
ATOM      3  N   UNL     1      -1.320   3.464   0.027  0.00  0.00    -0.276 N 
ATOM      4  H   UNL     1      -0.488   3.958   0.094  0.00  0.00    +0.155 HD
ENDROOT
BRANCH   3   5
ATOM      5  C   UNL     1      -2.541   4.153  -0.069  0.00  0.00    +0.118 A 
ATOM      6  C   UNL     1      -2.767   5.022  -1.121  0.00  0.00    +0.142 A 
ATOM      7  N   UNL     1      -3.936   5.656  -1.188  0.00  0.00    -0.229 NA
ATOM      8  C   UNL     1      -4.856   5.478  -0.275  0.00  0.00    +0.180 A 
ATOM      9  N   UNL     1      -4.717   4.643   0.802  0.00  0.00    -0.260 N 
ATOM     10  C   UNL     1      -3.532   3.969   0.902  0.00  0.00    +0.280 A 
ATOM     11  O   UNL     1      -3.339   3.207   1.837  0.00  0.00    -0.265 OA
ATOM     12  C   UNL     1      -5.780   4.569   1.670  0.00  0.00    +0.104 A 
ATOM     13  C   UNL     1      -6.888   5.279   1.463  0.00  0.00    +0.067 A 
ATOM     14  S   UNL     1      -6.490   6.147  -0.046  0.00  0.00    -0.058 S 
ENDBRANCH   3   5
BRANCH   1  20
ATOM     15  C   UNL     1       1.185   2.100   0.013  0.00  0.00    +0.014 A 
ATOM     16  C   UNL     1       2.384   1.418   0.004  0.00  0.00    +0.021 A 
ATOM     17  C   UNL     1       2.396   0.033   0.004  0.00  0.00    +0.041 A 
ATOM     18  C   UNL     1       1.205  -0.676   0.014  0.00  0.00    +0.021 A 
ATOM     19  C   UNL     1       0.001  -0.005   0.023  0.00  0.00    +0.014 A 
ATOM     20  C   UNL     1      -0.018   1.391   0.023  0.00  0.00    +0.037 A 
ATOM     21 CL   UNL     1       3.908  -0.819  -0.009  0.00  0.00    -0.084 Cl
ENDBRANCH   1  20
TORSDOF 2
