REMARK  Name = ZINC37673549
REMARK  4 active torsions:
REMARK  status: ('A' for Active; 'I' for Inactive)
REMARK    1  A    between atoms: C_3  and  N_21
REMARK    2  A    between atoms: C_5  and  N_7
REMARK    3  A    between atoms: N_10  and  C_13
REMARK    4  A    between atoms: C_16  and  C_19
REMARK                            x       y       z     vdW  Elec       q    Type
REMARK                         _______ _______ _______ _____ _____    ______ ____
ROOT
ATOM      1  N   UNL     1       1.214  -2.081  -0.019  0.00  0.00    -0.327 N 
ATOM      2  C   UNL     1       2.481  -2.812  -0.159  0.00  0.00    +0.124 C 
ATOM      3  C   UNL     1       2.622  -3.779   1.022  0.00  0.00    +0.124 C 
ATOM      4  N   UNL     1       1.374  -4.544   1.154  0.00  0.00    -0.327 N 
ATOM      5  C   UNL     1       0.107  -3.813   1.294  0.00  0.00    +0.124 C 
ATOM      6  C   UNL     1      -0.033  -2.846   0.118  0.00  0.00    +0.124 C 
ENDROOT
BRANCH   1  11
ATOM      7  C   UNL     1       2.373   1.408  -0.012  0.00  0.00    +0.004 A 
ATOM      8  C   UNL     1       1.170   2.087   0.006  0.00  0.00    +0.023 A 
ATOM      9  C   UNL     1      -0.028   1.382   0.015  0.00  0.00    +0.026 A 
ATOM     10  C   UNL     1      -0.014  -0.005   0.006  0.00  0.00    +0.045 A 
ATOM     11  C   UNL     1       1.196  -0.684  -0.011  0.00  0.00    +0.032 A 
ATOM     12  C   UNL     1       2.390   0.027  -0.020  0.00  0.00    +0.023 A 
BRANCH   9  13
ATOM     13  N   UNL     1      -1.243   2.070   0.033  0.00  0.00    -0.358 N 
ATOM     14  H   UNL     1      -1.252   3.039   0.039  0.00  0.00    +0.142 HD
ATOM     15  H   UNL     1      -2.079   1.577   0.039  0.00  0.00    +0.142 HD
ENDBRANCH   9  13
ENDBRANCH   1  11
BRANCH   4  16
ATOM     16  C   UNL     1       1.392  -5.936   1.146  0.00  0.00    +0.030 A 
ATOM     17  C   UNL     1       2.607  -6.615   1.141  0.00  0.00    +0.024 A 
ATOM     18  C   UNL     1       2.629  -7.991   1.134  0.00  0.00    +0.020 A 
ATOM     19  C   UNL     1       1.428  -8.707   1.130  0.00  0.00    +0.052 A 
ATOM     20  C   UNL     1       0.209  -8.022   1.135  0.00  0.00    +0.020 A 
ATOM     21  C   UNL     1       0.195  -6.646   1.148  0.00  0.00    +0.024 A 
BRANCH  19  22
ATOM     22  C   UNL     1       1.446 -10.139   1.121  0.00  0.00    +0.099 C 
ATOM     23  N   UNL     1       1.461 -11.275   1.114  0.00  0.00    -0.191 NA
ENDBRANCH  19  22
ENDBRANCH   4  16
TORSDOF 4
