REMARK  Name = ZINC59820679
REMARK  5 active torsions:
REMARK  status: ('A' for Active; 'I' for Inactive)
REMARK    1  A    between atoms: C_1  and  C_2
REMARK    2  A    between atoms: C_9  and  C_11
REMARK    3  A    between atoms: C_11  and  S_12
REMARK    4  A    between atoms: S_12  and  C_13
REMARK    5  A    between atoms: N_18  and  N_19
REMARK                            x       y       z     vdW  Elec       q    Type
REMARK                         _______ _______ _______ _____ _____    ______ ____
ROOT
ATOM      1  C   UNL     1       3.755   0.506   5.511  0.00  0.00    +0.211 A 
ATOM      2  N   UNL     1       4.674   1.137   6.248  0.00  0.00    -0.186 NA
ATOM      3  C   UNL     1       5.368   0.258   6.940  0.00  0.00    +0.232 A 
ATOM      4  N   UNL     1       4.892  -0.971   6.647  0.00  0.00    -0.245 N 
ATOM      5  N   UNL     1       3.849  -0.785   5.727  0.00  0.00    -0.144 NA
ATOM      6  N   UNL     1       6.403   0.543   7.812  0.00  0.00    -0.205 N 
ATOM      7  H   UNL     1       6.857  -0.177   8.278  0.00  0.00    +0.177 HD
ATOM      8  H   UNL     1       5.207  -1.816   7.005  0.00  0.00    +0.192 HD
ENDROOT
BRANCH   6   9
ATOM      9  N   UNL     1       6.796   1.871   8.023  0.00  0.00    -0.189 NA
ATOM     10  C   UNL     1       7.685   2.144   8.903  0.00  0.00    +0.037 C 
ATOM     11  C   UNL     1       8.347   1.044   9.703  0.00  0.00    +0.052 C 
ATOM     12  C   UNL     1       9.866   1.221   9.610  0.00  0.00    +0.006 C 
ATOM     13  C   UNL     1      10.241   2.636  10.053  0.00  0.00    +0.001 C 
ATOM     14  C   UNL     1       9.629   3.659   9.095  0.00  0.00    +0.006 C 
ATOM     15  C   UNL     1       8.105   3.573   9.164  0.00  0.00    +0.052 C 
ENDBRANCH   6   9
BRANCH   1  16
ATOM     16  S   UNL     1       2.600   1.282   4.429  0.00  0.00    -0.075 S 
BRANCH  16  17
ATOM     17  C   UNL     1       1.644  -0.100   3.744  0.00  0.00    +0.173 C 
BRANCH  17  25
ATOM     18  C   UNL     1      -1.141   1.604   1.117  0.00  0.00    +0.028 C 
ATOM     19  C   UNL     1      -1.175   0.075   1.150  0.00  0.00    +0.073 C 
ATOM     20  C   UNL     1      -2.584  -0.399   1.522  0.00  0.00    +0.022 C 
ATOM     21  C   UNL     1      -2.579  -1.920   1.690  0.00  0.00    +0.003 C 
ATOM     22  C   UNL     1      -1.624  -2.307   2.821  0.00  0.00    +0.019 C 
ATOM     23  C   UNL     1      -0.204  -1.855   2.464  0.00  0.00    +0.108 C 
ATOM     24  N   UNL     1      -0.226  -0.418   2.157  0.00  0.00    -0.298 N 
ATOM     25  C   UNL     1       0.607   0.432   2.790  0.00  0.00    +0.226 C 
ATOM     26  O   UNL     1       0.520   1.626   2.591  0.00  0.00    -0.275 OA
ENDBRANCH  17  25
ENDBRANCH  16  17
ENDBRANCH   1  16
TORSDOF 4
