REMARK  Name = ZINC67392802
REMARK  13 active torsions:
REMARK  status: ('A' for Active; 'I' for Inactive)
REMARK    1  A    between atoms: C_1  and  C_2
REMARK    2  A    between atoms: C_4  and  O_28
REMARK    3  A    between atoms: C_5  and  O_26
REMARK    4  A    between atoms: C_7  and  N_8
REMARK    5  A    between atoms: C_9  and  C_11
REMARK    6  A    between atoms: N_13  and  C_14
REMARK    7  A    between atoms: C_14  and  C_15
REMARK    8  A    between atoms: C_15  and  C_16
REMARK    9  A    between atoms: C_15  and  C_17
REMARK   10  A    between atoms: C_15  and  N_18
REMARK   11  A    between atoms: C_22  and  C_25
REMARK   12  A    between atoms: O_26  and  C_27
REMARK   13  A    between atoms: O_28  and  C_29
REMARK                            x       y       z     vdW  Elec       q    Type
REMARK                         _______ _______ _______ _____ _____    ______ ____
ROOT
ATOM      1  C   UNL     1      -0.166   0.016   4.859  0.00  0.00    +0.299 C 
ATOM      2  O   UNL     1      -0.165   1.230   4.848  0.00  0.00    -0.265 OA
ATOM      3  N   UNL     1      -0.254  -0.647   6.029  0.00  0.00    -0.309 N 
ATOM      4  H   UNL     1      -0.255  -1.617   6.037  0.00  0.00    +0.149 HD
ENDROOT
BRANCH   1   6
ATOM      5  N   UNL     1       0.017  -0.078   2.406  0.00  0.00    -0.277 N 
ATOM      6  C   UNL     1      -0.071  -0.742   3.576  0.00  0.00    +0.303 C 
ATOM      7  O   UNL     1      -0.072  -1.955   3.586  0.00  0.00    -0.265 OA
ATOM      8  H   UNL     1       0.076   0.890   2.401  0.00  0.00    +0.155 HD
BRANCH   5  15
ATOM      9  C   UNL     1      -1.254   1.106   0.156  0.00  0.00    +0.046 C 
ATOM     10  C   UNL     1      -0.588  -0.244   0.075  0.00  0.00    -0.026 A 
ATOM     11  C   UNL     1      -0.580  -0.939  -1.119  0.00  0.00    +0.054 A 
ATOM     12  C   UNL     1       0.032  -2.180  -1.196  0.00  0.00    +0.162 A 
ATOM     13  C   UNL     1       0.638  -2.728  -0.069  0.00  0.00    +0.163 A 
ATOM     14  C   UNL     1       0.630  -2.031   1.127  0.00  0.00    +0.073 A 
ATOM     15  C   UNL     1       0.021  -0.785   1.200  0.00  0.00    +0.040 A 
BRANCH  13  16
ATOM     16  O   UNL     1       1.238  -3.946  -0.144  0.00  0.00    -0.491 OA
ATOM     17  C   UNL     1       1.841  -4.447   1.051  0.00  0.00    +0.277 C 
ENDBRANCH  13  16
BRANCH  12  18
ATOM     18  O   UNL     1       0.039  -2.863  -2.373  0.00  0.00    -0.491 OA
ATOM     19  C   UNL     1      -0.603  -2.241  -3.488  0.00  0.00    +0.277 C 
ENDBRANCH  12  18
ENDBRANCH   5  15
ENDBRANCH   1   6
BRANCH   3  20
ATOM     20  C   UNL     1      -0.347   0.096   7.288  0.00  0.00    +0.092 C 
BRANCH  20  21
ATOM     21  C   UNL     1      -0.309  -0.883   8.462  0.00  0.00    -0.055 C 
ATOM     22  C   UNL     1       1.015  -1.650   8.445  0.00  0.00    -0.008 C 
ATOM     23  C   UNL     1      -0.433  -0.109   9.776  0.00  0.00    -0.008 C 
BRANCH  21  24
ATOM     24  N   UNL     1      -1.425  -1.831   8.346  0.00  0.00    +0.384 N 
ATOM     25  C   UNL     1      -2.688  -1.089   8.251  0.00  0.00    -0.078 C 
ATOM     26  C   UNL     1      -3.846  -2.069   8.048  0.00  0.00    -0.018 C 
ATOM     27  C   UNL     1      -3.906  -3.033   9.237  0.00  0.00    -0.001 C 
ATOM     28  C   UNL     1      -2.559  -3.747   9.371  0.00  0.00    -0.031 C 
ATOM     29  C   UNL     1      -1.448  -2.705   9.525  0.00  0.00    -0.075 C 
ATOM     30  C   UNL     1      -2.582  -4.655  10.602  0.00  0.00    +0.005 C 
ATOM     31  H   UNL     1      -1.304  -2.392   7.516  0.00  0.00    -0.081 HD
ENDBRANCH  21  24
ENDBRANCH  20  21
ENDBRANCH   3  20
TORSDOF 7
