REMARK  Name = ZINC09669695
REMARK  7 active torsions:
REMARK  status: ('A' for Active; 'I' for Inactive)
REMARK    1  A    between atoms: C_1  and  C_2
REMARK    2  A    between atoms: C_2  and  C_4
REMARK    3  A    between atoms: C_2  and  N_19
REMARK    4  A    between atoms: N_6  and  C_7
REMARK    5  A    between atoms: C_12  and  C_13
REMARK    6  A    between atoms: C_22  and  C_26
REMARK    7  A    between atoms: C_22  and  C_32
REMARK                            x       y       z     vdW  Elec       q    Type
REMARK                         _______ _______ _______ _____ _____    ______ ____
ROOT
ATOM      1  N   UNL     1      -3.832   1.786   0.084  0.00  0.00    -0.212 N 
ATOM      2  C   UNL     1      -4.719   1.972   1.081  0.00  0.00    +0.256 C 
ATOM      3  O   UNL     1      -4.794   1.352   2.120  0.00  0.00    -0.272 OA
ATOM      4  C   UNL     1      -5.604   3.119   0.634  0.00  0.00    +0.164 C 
ATOM      5  N   UNL     1      -5.062   3.479  -0.688  0.00  0.00    -0.278 N 
ATOM      6  C   UNL     1      -4.028   2.650  -0.919  0.00  0.00    +0.311 C 
ATOM      7  O   UNL     1      -3.351   2.679  -1.927  0.00  0.00    -0.252 OA
ATOM      8  H   UNL     1      -5.385   4.180  -1.276  0.00  0.00    +0.152 HD
ENDROOT
BRANCH   4   9
ATOM      9  C   UNL     1      -7.037   2.667   0.514  0.00  0.00    -0.011 A 
ATOM     10  C   UNL     1      -7.544   1.737   1.401  0.00  0.00    +0.006 A 
ATOM     11  C   UNL     1      -8.860   1.326   1.294  0.00  0.00    +0.000 A 
ATOM     12  C   UNL     1      -9.665   1.839   0.294  0.00  0.00    +0.000 A 
ATOM     13  C   UNL     1      -9.156   2.765  -0.596  0.00  0.00    +0.000 A 
ATOM     14  C   UNL     1      -7.841   3.180  -0.486  0.00  0.00    +0.006 A 
ENDBRANCH   4   9
BRANCH   4  15
ATOM     15  C   UNL     1      -5.493   4.279   1.590  0.00  0.00    -0.011 A 
ATOM     16  C   UNL     1      -6.404   4.414   2.620  0.00  0.00    +0.006 A 
ATOM     17  C   UNL     1      -6.300   5.476   3.500  0.00  0.00    +0.000 A 
ATOM     18  C   UNL     1      -5.290   6.406   3.343  0.00  0.00    +0.000 A 
ATOM     19  C   UNL     1      -4.382   6.274   2.310  0.00  0.00    +0.000 A 
ATOM     20  C   UNL     1      -4.484   5.210   1.433  0.00  0.00    +0.006 A 
ENDBRANCH   4  15
BRANCH   1  22
ATOM     21  C   UNL     1      -2.970  -0.180  -1.087  0.00  0.00    +0.038 C 
ATOM     22  C   UNL     1      -2.779   0.768   0.099  0.00  0.00    +0.168 C 
BRANCH  22  23
ATOM     23  C   UNL     1      -1.432   1.436  -0.004  0.00  0.00    +0.238 C 
ATOM     24  O   UNL     1      -1.359   2.644  -0.082  0.00  0.00    -0.273 OA
ATOM     25  N   UNL     1      -0.309   0.691  -0.009  0.00  0.00    -0.283 N 
ATOM     26  H   UNL     1      -0.369  -0.277  -0.002  0.00  0.00    +0.155 HD
BRANCH  25  27
ATOM     27  C   UNL     1       0.942   1.314  -0.030  0.00  0.00    +0.041 A 
ATOM     28  C   UNL     1       1.116   2.503  -0.722  0.00  0.00    +0.024 A 
ATOM     29  C   UNL     1       2.353   3.120  -0.738  0.00  0.00    +0.002 A 
ATOM     30  C   UNL     1       3.425   2.551  -0.074  0.00  0.00    +0.001 A 
ATOM     31  C   UNL     1       3.268   1.365   0.614  0.00  0.00    +0.010 A 
ATOM     32  C   UNL     1       2.025   0.737   0.642  0.00  0.00    +0.003 A 
BRANCH  32  33
ATOM     33  C   UNL     1       1.851  -0.538   1.380  0.00  0.00    -0.016 A 
ATOM     34  C   UNL     1       0.804  -0.682   2.289  0.00  0.00    +0.008 A 
ATOM     35  C   UNL     1       0.643  -1.872   2.968  0.00  0.00    +0.001 A 
ATOM     36  C   UNL     1       1.525  -2.917   2.758  0.00  0.00    +0.000 A 
ATOM     37  C   UNL     1       2.569  -2.777   1.862  0.00  0.00    +0.001 A 
ATOM     38  C   UNL     1       2.737  -1.594   1.172  0.00  0.00    +0.008 A 
ENDBRANCH  32  33
ENDBRANCH  25  27
ENDBRANCH  22  23
ENDBRANCH   1  22
TORSDOF 6
