REMARK  Name = ZINC15545938
REMARK  5 active torsions:
REMARK  status: ('A' for Active; 'I' for Inactive)
REMARK    1  A    between atoms: N_7  and  C_20
REMARK    2  A    between atoms: C_9  and  C_12
REMARK    3  A    between atoms: C_20  and  C_21
REMARK    4  A    between atoms: N_23  and  C_24
REMARK    5  A    between atoms: C_27  and  N_30
REMARK                            x       y       z     vdW  Elec       q    Type
REMARK                         _______ _______ _______ _____ _____    ______ ____
ROOT
ATOM      1  C   UNL     1      -1.973   7.319  -2.560  0.00  0.00    +0.002 A 
ATOM      2  C   UNL     1      -1.285   8.475  -2.241  0.00  0.00    +0.004 A 
ATOM      3  C   UNL     1      -0.906   8.715  -0.934  0.00  0.00    +0.047 A 
ATOM      4  C   UNL     1      -1.213   7.799   0.062  0.00  0.00    +0.143 A 
ATOM      5  C   UNL     1      -1.907   6.638  -0.256  0.00  0.00    +0.073 A 
ATOM      6  C   UNL     1      -2.284   6.403  -1.575  0.00  0.00    +0.027 A 
ATOM      7  N   UNL     1      -2.244   5.689   0.715  0.00  0.00    -0.314 N 
ATOM      8  C   UNL     1      -1.415   5.813   1.920  0.00  0.00    +0.160 C 
ATOM      9  C   UNL     1      -1.425   7.279   2.372  0.00  0.00    +0.276 C 
ATOM     10  O   UNL     1      -0.820   8.063   1.338  0.00  0.00    -0.476 OA
ENDROOT
BRANCH   9  11
ATOM     11  C   UNL     1      -0.639   7.426   3.649  0.00  0.00    +0.258 C 
ATOM     12  O   UNL     1       0.453   7.953   3.632  0.00  0.00    -0.271 OA
ATOM     13  N   UNL     1      -1.149   6.970   4.811  0.00  0.00    -0.298 N 
ATOM     14  C   UNL     1      -2.414   6.223   4.831  0.00  0.00    +0.108 C 
ATOM     15  C   UNL     1      -2.184   4.892   5.561  0.00  0.00    +0.019 C 
ATOM     16  C   UNL     1      -1.598   5.171   6.947  0.00  0.00    +0.003 C 
ATOM     17  C   UNL     1      -0.249   5.879   6.798  0.00  0.00    +0.019 C 
ATOM     18  C   UNL     1      -0.454   7.217   6.081  0.00  0.00    +0.108 C 
ENDBRANCH   9  11
BRANCH   7  19
ATOM     19  C   UNL     1      -2.176   4.328   0.167  0.00  0.00    +0.201 C 
BRANCH  19  20
ATOM     20  C   UNL     1      -0.757   4.019  -0.238  0.00  0.00    +0.235 C 
ATOM     21  O   UNL     1       0.088   4.888  -0.196  0.00  0.00    -0.274 OA
ATOM     22  N   UNL     1      -0.428   2.778  -0.646  0.00  0.00    -0.284 N 
ATOM     23  H   UNL     1      -1.115   2.099  -0.737  0.00  0.00    +0.155 HD
BRANCH  22  24
ATOM     24  C   UNL     1       0.907   2.469  -0.941  0.00  0.00    +0.034 A 
ATOM     25  C   UNL     1       1.727   3.421  -1.531  0.00  0.00    +0.025 A 
ATOM     26  C   UNL     1       3.040   3.114  -1.826  0.00  0.00    +0.025 A 
ATOM     27  C   UNL     1       3.541   1.853  -1.532  0.00  0.00    +0.030 A 
ATOM     28  C   UNL     1       2.721   0.900  -0.942  0.00  0.00    +0.025 A 
ATOM     29  C   UNL     1       1.408   1.207  -0.647  0.00  0.00    +0.025 A 
BRANCH  27  30
ATOM     30  N   UNL     1       4.872   1.542  -1.831  0.00  0.00    -0.330 N 
ATOM     31  C   UNL     1       5.612   1.139  -0.608  0.00  0.00    +0.105 C 
ATOM     32  C   UNL     1       6.825   0.355  -1.169  0.00  0.00    +0.020 C 
ATOM     33  C   UNL     1       6.219  -0.404  -2.371  0.00  0.00    +0.020 C 
ATOM     34  C   UNL     1       4.953   0.386  -2.750  0.00  0.00    +0.105 C 
ENDBRANCH  27  30
ENDBRANCH  22  24
ENDBRANCH  19  20
ENDBRANCH   7  19
TORSDOF 5
