REMARK  Name = ZINC39466950
REMARK  7 active torsions:
REMARK  status: ('A' for Active; 'I' for Inactive)
REMARK    1  A    between atoms: C_1  and  S_2
REMARK    2  A    between atoms: S_2  and  C_3
REMARK    3  A    between atoms: C_15  and  S_16
REMARK    4  A    between atoms: S_16  and  O_19
REMARK    5  A    between atoms: O_19  and  C_20
REMARK    6  A    between atoms: P_28  and  C_31
REMARK    7  A    between atoms: C_31  and  C_32
REMARK                            x       y       z     vdW  Elec       q    Type
REMARK                         _______ _______ _______ _____ _____    ______ ____
ROOT
ATOM      1  C   UNL     1       0.539  -0.237   1.171  0.00  0.00    +0.032 C 
ATOM      2  C   UNL     1       0.881   0.870   1.849  0.00  0.00    -0.008 C 
ATOM      3  C   UNL     1       1.643   0.720   3.137  0.00  0.00    +0.005 C 
ATOM      4  C   UNL     1       1.474   1.938   4.036  0.00  0.00    -0.046 C 
ATOM      5  N   UNL     1       2.268   1.765   5.265  0.00  0.00    +0.397 N 
ATOM      6  C   UNL     1       1.845   0.582   6.014  0.00  0.00    -0.020 C 
ATOM      7  C   UNL     1       1.944  -0.684   5.151  0.00  0.00    -0.003 C 
ATOM      8  C   UNL     1       1.104  -0.503   3.891  0.00  0.00    +0.018 C 
ATOM      9  C   UNL     1       1.192  -1.707   2.993  0.00  0.00    +0.008 C 
ATOM     10  C   UNL     1       0.920  -1.563   1.699  0.00  0.00    +0.137 C 
ATOM     11  C   UNL     1       2.736   0.345   7.240  0.00  0.00    +0.156 C 
ATOM     12  O   UNL     1       2.628   1.470   8.132  0.00  0.00    -0.319 OA
ATOM     13  P   UNL     1       2.824   2.957   7.502  0.00  0.00    +0.262 P 
ATOM     14  O   UNL     1       4.264   3.265   7.351  0.00  0.00    -0.274 OA
ATOM     15  N   UNL     1       2.073   2.905   6.016  0.00  0.00    -0.291 NA
ATOM     16  H   UNL     1       1.537   3.641   5.681  0.00  0.00    +0.111 HD
ATOM     17  H   UNL     1       3.245   1.683   5.026  0.00  0.00    -0.055 HD
ENDROOT
BRANCH  10  18
ATOM     18  S   UNL     1       1.020  -2.950   0.618  0.00  0.00    +0.152 S 
ATOM     19  O   UNL     1       1.686  -2.504  -0.555  0.00  0.00    -0.131 OA
ATOM     20  O   UNL     1       1.497  -4.039   1.397  0.00  0.00    -0.131 OA
BRANCH  18  21
ATOM     21  O   UNL     1      -0.402  -3.302   0.204  0.00  0.00    -0.342 OA
BRANCH  21  22
ATOM     22  C   UNL     1      -1.125  -3.917   1.177  0.00  0.00    +0.157 A 
ATOM     23  C   UNL     1      -1.128  -5.301   1.271  0.00  0.00    +0.048 A 
ATOM     24  C   UNL     1      -1.863  -5.923   2.261  0.00  0.00    +0.004 A 
ATOM     25  C   UNL     1      -2.596  -5.168   3.158  0.00  0.00    +0.000 A 
ATOM     26  C   UNL     1      -2.595  -3.788   3.066  0.00  0.00    +0.004 A 
ATOM     27  C   UNL     1      -1.856  -3.161   2.082  0.00  0.00    +0.048 A 
ENDBRANCH  21  22
ENDBRANCH  18  21
ENDBRANCH  10  18
BRANCH   1  29
ATOM     28  C   UNL     1      -0.591   1.677  -0.563  0.00  0.00    +0.090 C 
ATOM     29  S   UNL     1      -0.366  -0.109  -0.336  0.00  0.00    -0.127 S 
ENDBRANCH   1  29
BRANCH  13  30
ATOM     30  C   UNL     1       2.021   4.203   8.564  0.00  0.00    +0.147 C 
BRANCH  30  31
ATOM     31  C   UNL     1       2.638   4.165   9.938  0.00  0.00    -0.037 A 
ATOM     32  C   UNL     1       2.114   3.331  10.908  0.00  0.00    +0.004 A 
ATOM     33  C   UNL     1       2.680   3.296  12.169  0.00  0.00    +0.000 A 
ATOM     34  C   UNL     1       3.770   4.095  12.459  0.00  0.00    +0.000 A 
ATOM     35  C   UNL     1       4.294   4.929  11.489  0.00  0.00    +0.000 A 
ATOM     36  C   UNL     1       3.731   4.961  10.227  0.00  0.00    +0.004 A 
ENDBRANCH  30  31
ENDBRANCH  13  30
TORSDOF 6
