REMARK  Name = ZINC16195446
REMARK  12 active torsions:
REMARK  status: ('A' for Active; 'I' for Inactive)
REMARK    1  A    between atoms: C_1  and  O_2
REMARK    2  A    between atoms: O_2  and  C_3
REMARK    3  A    between atoms: C_5  and  C_19
REMARK    4  A    between atoms: C_8  and  O_9
REMARK    5  A    between atoms: O_9  and  C_10
REMARK    6  A    between atoms: C_10  and  C_11
REMARK    7  A    between atoms: C_19  and  N_54
REMARK    8  A    between atoms: C_20  and  C_21
REMARK    9  A    between atoms: C_20  and  N_54
REMARK   10  A    between atoms: C_21  and  N_22
REMARK   11  A    between atoms: N_22  and  C_23
REMARK   12  A    between atoms: C_26  and  N_29
REMARK                            x       y       z     vdW  Elec       q    Type
REMARK                         _______ _______ _______ _____ _____    ______ ____
ROOT
ATOM      1  C   UNL     1       0.002  -0.004   0.002  0.00  0.00    +0.163 A 
ATOM      2  C   UNL     1      -0.017   1.382   0.010  0.00  0.00    +0.051 A 
ATOM      3  C   UNL     1       1.171   2.089   0.002  0.00  0.00    -0.060 A 
ATOM      4  C   UNL     1       2.379   1.418  -0.013  0.00  0.00    +0.021 A 
ATOM      5  C   UNL     1       2.405   0.035  -0.021  0.00  0.00    +0.063 A 
ATOM      6  C   UNL     1       1.218  -0.680  -0.013  0.00  0.00    +0.176 A 
ATOM      7 BR   UNL     1       4.060  -0.879  -0.041  0.00  0.00    -0.046 Br
ENDROOT
BRANCH   1   9
ATOM      8  C   UNL     1      -2.375   0.059   0.024  0.00  0.00    +0.277 C 
ATOM      9  O   UNL     1      -1.165  -0.701   0.009  0.00  0.00    -0.491 OA
ENDBRANCH   1   9
BRANCH   6  10
ATOM     10  O   UNL     1       1.241  -2.040  -0.021  0.00  0.00    -0.483 OA
BRANCH  10  11
ATOM     11  C   UNL     1       1.240  -2.682  -1.298  0.00  0.00    +0.264 C 
BRANCH  11  12
ATOM     12  C   UNL     1       1.268  -4.176  -1.109  0.00  0.00    -0.010 A 
ATOM     13  C   UNL     1       2.478  -4.842  -1.040  0.00  0.00    +0.008 A 
ATOM     14  C   UNL     1       2.504  -6.212  -0.861  0.00  0.00    +0.020 A 
ATOM     15  C   UNL     1       1.319  -6.919  -0.763  0.00  0.00    +0.041 A 
ATOM     16  C   UNL     1       0.108  -6.254  -0.839  0.00  0.00    +0.020 A 
ATOM     17  C   UNL     1       0.084  -4.883  -1.012  0.00  0.00    +0.008 A 
ATOM     18 CL   UNL     1       1.351  -8.641  -0.545  0.00  0.00    -0.084 Cl
ENDBRANCH  11  12
ENDBRANCH  10  11
ENDBRANCH   6  10
BRANCH   3  19
ATOM     19  C   UNL     1       1.148   3.596   0.010  0.00  0.00    -0.047 C 
BRANCH  19  20
ATOM     20  N   UNL     1       1.154   4.072   1.407  0.00  0.00    +0.383 N 
ATOM     21  H   UNL     1       2.002   3.734   1.876  0.00  0.00    -0.085 HD
ATOM     22  H   UNL     1       0.326   3.708   1.892  0.00  0.00    -0.085 HD
BRANCH  20  23
ATOM     23  C   UNL     1       1.132   5.546   1.445  0.00  0.00    -0.063 C 
BRANCH  23  24
ATOM     24  C   UNL     1       1.139   6.010   2.903  0.00  0.00    +0.082 C 
BRANCH  24  25
ATOM     25  N   UNL     1       1.117   7.474   2.950  0.00  0.00    -0.346 N 
ATOM     26  H   UNL     1       1.101   7.986   2.127  0.00  0.00    +0.146 HD
BRANCH  25  27
ATOM     27  C   UNL     1       1.118   8.133   4.182  0.00  0.00    +0.027 A 
ATOM     28  C   UNL     1       1.135   7.402   5.363  0.00  0.00    +0.025 A 
ATOM     29  C   UNL     1       1.142   8.057   6.579  0.00  0.00    +0.034 A 
ATOM     30  C   UNL     1       1.122   9.439   6.621  0.00  0.00    +0.126 A 
ATOM     31  C   UNL     1       1.099  10.170   5.448  0.00  0.00    +0.034 A 
ATOM     32  C   UNL     1       1.098   9.521   4.228  0.00  0.00    +0.025 A 
BRANCH  30  33
ATOM     33  N   UNL     1       1.124  10.138   7.926  0.00  0.00    +0.056 N 
ATOM     34  O   UNL     1       1.106  11.355   7.965  0.00  0.00    -0.126 OA
ATOM     35  O   UNL     1       1.143   9.495   8.961  0.00  0.00    -0.126 OA
ENDBRANCH  30  33
ENDBRANCH  25  27
ENDBRANCH  24  25
ENDBRANCH  23  24
ENDBRANCH  20  23
ENDBRANCH  19  20
ENDBRANCH   3  19
TORSDOF 11
