REMARK  Name = ZINC66467067
REMARK  6 active torsions:
REMARK  status: ('A' for Active; 'I' for Inactive)
REMARK    1  A    between atoms: C_3  and  C_21
REMARK    2  A    between atoms: C_6  and  C_7
REMARK    3  A    between atoms: C_7  and  N_8
REMARK    4  A    between atoms: C_14  and  N_18
REMARK    5  A    between atoms: C_21  and  N_22
REMARK    6  A    between atoms: C_25  and  O_28
REMARK                            x       y       z     vdW  Elec       q    Type
REMARK                         _______ _______ _______ _____ _____    ______ ____
ROOT
ATOM      1  C   UNL     1      -0.017   1.378   0.010  0.00  0.00    +0.005 A 
ATOM      2  C   UNL     1       1.171   2.086   0.002  0.00  0.00    +0.002 A 
ATOM      3  C   UNL     1       2.377   1.411  -0.013  0.00  0.00    -0.064 A 
ATOM      4  C   UNL     1       2.396   0.029  -0.020  0.00  0.00    +0.002 A 
ATOM      5  C   UNL     1       1.208  -0.679  -0.012  0.00  0.00    +0.005 A 
ATOM      6  C   UNL     1       0.002  -0.004   0.002  0.00  0.00    -0.030 A 
ENDROOT
BRANCH   6   7
ATOM      7  C   UNL     1      -1.293  -0.775   0.011  0.00  0.00    +0.138 C 
BRANCH   7   8
ATOM      8  N   UNL     1      -1.726  -1.018  -1.368  0.00  0.00    -0.319 N 
ATOM      9  C   UNL     1      -2.894  -1.711  -1.612  0.00  0.00    +0.159 A 
ATOM     10  N   UNL     1      -3.745  -2.220  -0.751  0.00  0.00    -0.225 NA
ATOM     11  C   UNL     1      -4.859  -2.880  -1.136  0.00  0.00    +0.080 A 
ATOM     12  C   UNL     1      -5.849  -3.473  -0.319  0.00  0.00    +0.031 A 
ATOM     13  C   UNL     1      -6.928  -4.110  -0.876  0.00  0.00    +0.035 A 
ATOM     14  C   UNL     1      -7.087  -4.198  -2.251  0.00  0.00    +0.127 A 
ATOM     15  C   UNL     1      -6.138  -3.630  -3.080  0.00  0.00    +0.050 A 
ATOM     16  C   UNL     1      -5.055  -2.989  -2.532  0.00  0.00    +0.043 A 
ATOM     17  S   UNL     1      -3.638  -2.136  -3.180  0.00  0.00    -0.052 S 
ATOM     18  H   UNL     1      -1.192  -0.691  -2.108  0.00  0.00    +0.148 HD
BRANCH  14  19
ATOM     19  N   UNL     1      -8.261  -4.894  -2.825  0.00  0.00    +0.056 N 
ATOM     20  O   UNL     1      -9.087  -5.389  -2.094  0.00  0.00    -0.126 OA
ATOM     21  O   UNL     1      -8.394  -4.967  -4.024  0.00  0.00    -0.126 OA
ENDBRANCH  14  19
ENDBRANCH   7   8
ENDBRANCH   6   7
BRANCH   3  22
ATOM     22  C   UNL     1       3.672   2.182  -0.022  0.00  0.00    -0.043 C 
BRANCH  22  23
ATOM     23  N   UNL     1       4.106   2.426   1.360  0.00  0.00    +0.382 N 
ATOM     24  C   UNL     1       4.412   1.145   2.008  0.00  0.00    -0.076 C 
ATOM     25  C   UNL     1       4.787   1.387   3.472  0.00  0.00    +0.013 C 
ATOM     26  C   UNL     1       6.016   2.299   3.534  0.00  0.00    +0.111 C 
ATOM     27  C   UNL     1       5.711   3.602   2.790  0.00  0.00    +0.013 C 
ATOM     28  C   UNL     1       5.301   3.278   1.352  0.00  0.00    -0.076 C 
ATOM     29  H   UNL     1       3.367   2.889   1.867  0.00  0.00    -0.081 HD
BRANCH  26  30
ATOM     30  O   UNL     1       6.327   2.589   4.899  0.00  0.00    -0.392 OA
ATOM     31  H   UNL     1       7.096   3.163   5.013  0.00  0.00    +0.210 HD
ENDBRANCH  26  30
ENDBRANCH  22  23
ENDBRANCH   3  22
TORSDOF 6
