REMARK  Name = ZINC39992771
REMARK  8 active torsions:
REMARK  status: ('A' for Active; 'I' for Inactive)
REMARK    1  A    between atoms: C_2  and  C_3
REMARK    2  A    between atoms: C_3  and  N_4
REMARK    3  A    between atoms: C_5  and  C_7
REMARK    4  A    between atoms: C_11  and  N_12
REMARK    5  A    between atoms: C_13  and  C_15
REMARK    6  A    between atoms: C_15  and  C_29
REMARK    7  A    between atoms: C_16  and  C_17
REMARK    8  A    between atoms: C_20  and  C_22
REMARK                            x       y       z     vdW  Elec       q    Type
REMARK                         _______ _______ _______ _____ _____    ______ ____
ROOT
ATOM      1  N   UNL     1       3.521  -1.768   4.027  0.00  0.00    -0.275 N 
ATOM      2  C   UNL     1       3.973  -1.572   5.281  0.00  0.00    +0.259 C 
ATOM      3  O   UNL     1       3.934  -2.480   6.091  0.00  0.00    -0.269 OA
ATOM      4  H   UNL     1       3.552  -1.044   3.381  0.00  0.00    +0.156 HD
ENDROOT
BRANCH   1   9
ATOM      5  C   UNL     1       2.507  -3.383   2.425  0.00  0.00    +0.069 A 
ATOM      6  C   UNL     1       2.035  -4.751   2.294  0.00  0.00    -0.023 A 
ATOM      7  C   UNL     1       2.150  -5.485   3.422  0.00  0.00    -0.004 A 
ATOM      8  S   UNL     1       2.862  -4.381   4.606  0.00  0.00    -0.077 S 
ATOM      9  C   UNL     1       3.012  -3.002   3.659  0.00  0.00    +0.085 A 
ATOM     10  C   UNL     1       1.753  -6.917   3.607  0.00  0.00    +0.043 C 
ATOM     11  C   UNL     1       0.848  -7.322   2.434  0.00  0.00    +0.005 C 
ATOM     12  C   UNL     1       1.502  -6.872   1.125  0.00  0.00    +0.005 C 
ATOM     13  C   UNL     1       1.457  -5.346   1.019  0.00  0.00    +0.037 C 
BRANCH   5  15
ATOM     14  N   UNL     1       1.367  -1.676   1.111  0.00  0.00    -0.308 N 
ATOM     15  C   UNL     1       2.457  -2.447   1.299  0.00  0.00    +0.247 C 
ATOM     16  O   UNL     1       3.399  -2.366   0.532  0.00  0.00    -0.270 OA
ATOM     17  H   UNL     1       0.617  -1.740   1.722  0.00  0.00    +0.149 HD
BRANCH  14  18
ATOM     18  C   UNL     1       1.317  -0.740  -0.015  0.00  0.00    +0.131 C 
BRANCH  18  20
ATOM     19  C   UNL     1      -0.016   1.306   0.009  0.00  0.00    +0.005 C 
ATOM     20  C   UNL     1       0.002  -0.004   0.002  0.00  0.00    -0.016 C 
ENDBRANCH  18  20
ENDBRANCH  14  18
ENDBRANCH   5  15
ENDBRANCH   1   9
BRANCH   2  21
ATOM     21  C   UNL     1       4.513  -0.264   5.671  0.00  0.00    +0.117 C 
ATOM     22  C   UNL     1       4.979  -0.062   6.963  0.00  0.00    +0.070 C 
BRANCH  22  23
ATOM     23  C   UNL     1       5.495   1.189   7.336  0.00  0.00    +0.130 A 
ATOM     24  C   UNL     1       5.996   1.523   8.586  0.00  0.00    +0.050 A 
ATOM     25  C   UNL     1       6.398   2.856   8.515  0.00  0.00    +0.050 A 
ATOM     26  C   UNL     1       6.132   3.291   7.233  0.00  0.00    +0.136 A 
ATOM     27  O   UNL     1       5.595   2.274   6.538  0.00  0.00    -0.455 OA
BRANCH  26  28
ATOM     28  C   UNL     1       6.399   4.645   6.711  0.00  0.00    +0.017 A 
ATOM     29  C   UNL     1       6.974   5.614   7.537  0.00  0.00    +0.013 A 
ATOM     30  C   UNL     1       7.221   6.878   7.043  0.00  0.00    +0.021 A 
ATOM     31  C   UNL     1       6.898   7.187   5.731  0.00  0.00    +0.041 A 
ATOM     32  C   UNL     1       6.327   6.231   4.908  0.00  0.00    +0.021 A 
ATOM     33  C   UNL     1       6.081   4.962   5.388  0.00  0.00    +0.013 A 
ATOM     34 CL   UNL     1       7.210   8.780   5.117  0.00  0.00    -0.084 Cl
ENDBRANCH  26  28
ENDBRANCH  22  23
BRANCH  21  35
ATOM     35  C   UNL     1       4.559   0.804   4.718  0.00  0.00    +0.104 C 
ATOM     36  N   UNL     1       4.595   1.651   3.962  0.00  0.00    -0.191 NA
ENDBRANCH  21  35
ENDBRANCH   2  21
TORSDOF 8
