REMARK  Name = ZINC39669531
REMARK  9 active torsions:
REMARK  status: ('A' for Active; 'I' for Inactive)
REMARK    1  A    between atoms: C_1  and  C_2
REMARK    2  A    between atoms: C_2  and  C_3
REMARK    3  A    between atoms: C_2  and  C_4
REMARK    4  A    between atoms: C_4  and  C_6
REMARK    5  A    between atoms: C_4  and  O_36
REMARK    6  A    between atoms: C_10  and  C_19
REMARK    7  A    between atoms: N_21  and  C_22
REMARK    8  A    between atoms: C_22  and  C_23
REMARK    9  A    between atoms: O_36  and  C_37
REMARK                            x       y       z     vdW  Elec       q    Type
REMARK                         _______ _______ _______ _____ _____    ______ ____
ROOT
ATOM      1  C   UNL     1      -1.132  -1.598   0.249  0.00  0.00    +0.257 C 
ATOM      2  O   UNL     1      -1.453  -2.375  -0.625  0.00  0.00    -0.272 OA
ATOM      3  N   UNL     1      -0.657  -2.062   1.422  0.00  0.00    -0.297 N 
ATOM      4  C   UNL     1      -0.329  -1.285   2.640  0.00  0.00    +0.121 C 
ATOM      5  C   UNL     1      -0.812  -2.171   3.810  0.00  0.00    +0.100 C 
ATOM      6  C   UNL     1      -0.818  -3.600   3.243  0.00  0.00    -0.004 C 
ATOM      7  C   UNL     1      -0.350  -3.466   1.787  0.00  0.00    +0.115 C 
ATOM      8  C   UNL     1       0.145  -4.485   4.029  0.00  0.00    -0.010 C 
ATOM      9  C   UNL     1       0.078  -5.915   3.484  0.00  0.00    -0.082 C 
ATOM     10  N   UNL     1      -1.294  -6.423   3.606  0.00  0.00    +0.379 N 
ATOM     11  C   UNL     1      -2.199  -5.622   2.773  0.00  0.00    -0.082 C 
ATOM     12  C   UNL     1      -2.229  -4.180   3.288  0.00  0.00    -0.010 C 
ATOM     13  H   UNL     1      -1.323  -7.385   3.303  0.00  0.00    -0.086 HD
ATOM     14  H   UNL     1      -1.588  -6.367   4.569  0.00  0.00    -0.086 HD
ENDROOT
BRANCH   5  15
ATOM     15  C   UNL     1       0.141  -2.069   4.973  0.00  0.00    +0.218 C 
ATOM     16  O   UNL     1       1.305  -1.789   4.781  0.00  0.00    -0.275 OA
ATOM     17  N   UNL     1      -0.300  -2.290   6.227  0.00  0.00    -0.315 N 
ATOM     18  H   UNL     1      -1.231  -2.515   6.381  0.00  0.00    +0.149 HD
BRANCH  17  19
ATOM     19  C   UNL     1       0.626  -2.192   7.358  0.00  0.00    +0.109 C 
BRANCH  19  20
ATOM     20  C   UNL     1      -0.124  -2.486   8.659  0.00  0.00    +0.024 C 
ATOM     21  C   UNL     1       0.812  -2.264   9.849  0.00  0.00    +0.008 C 
ATOM     22  C   UNL     1       0.054  -2.526  11.152  0.00  0.00    +0.019 C 
ATOM     23  C   UNL     1      -0.422  -3.982  11.177  0.00  0.00    +0.108 C 
ATOM     24  N   UNL     1      -1.203  -4.245   9.961  0.00  0.00    -0.299 N 
ATOM     25  C   UNL     1      -0.602  -3.942   8.655  0.00  0.00    +0.113 C 
ATOM     26  C   UNL     1      -2.481  -4.770  10.043  0.00  0.00    +0.218 A 
ATOM     27  N   UNL     1      -3.159  -5.001   8.928  0.00  0.00    -0.223 NA
ATOM     28  C   UNL     1      -4.382  -5.502   8.972  0.00  0.00    +0.116 A 
ATOM     29  C   UNL     1      -4.954  -5.784  10.203  0.00  0.00    +0.039 A 
ATOM     30  C   UNL     1      -4.217  -5.530  11.349  0.00  0.00    +0.116 A 
ATOM     31  N   UNL     1      -2.997  -5.033  11.235  0.00  0.00    -0.223 NA
ENDBRANCH  19  20
ENDBRANCH  17  19
ENDBRANCH   5  15
BRANCH   1  32
ATOM     32  C   UNL     1      -1.263  -0.114   0.023  0.00  0.00    +0.261 C 
BRANCH  32  34
ATOM     33  C   UNL     1      -0.033   1.971  -0.593  0.00  0.00    +0.011 C 
ATOM     34  C   UNL     1       0.086   0.456  -0.420  0.00  0.00    +0.033 C 
ATOM     35  C   UNL     1       1.144   0.145   0.640  0.00  0.00    +0.011 C 
ENDBRANCH  32  34
BRANCH  32  36
ATOM     36  O   UNL     1      -2.240   0.129  -0.991  0.00  0.00    -0.479 OA
BRANCH  36  37
ATOM     37  C   UNL     1      -3.101   1.159  -0.785  0.00  0.00    +0.122 A 
ATOM     38  C   UNL     1      -4.152   1.373  -1.665  0.00  0.00    +0.045 A 
ATOM     39  C   UNL     1      -5.026   2.422  -1.452  0.00  0.00    +0.004 A 
ATOM     40  C   UNL     1      -4.854   3.257  -0.364  0.00  0.00    +0.000 A 
ATOM     41  C   UNL     1      -3.807   3.046   0.514  0.00  0.00    +0.004 A 
ATOM     42  C   UNL     1      -2.934   1.996   0.309  0.00  0.00    +0.045 A 
ENDBRANCH  36  37
ENDBRANCH  32  36
ENDBRANCH   1  32
TORSDOF 7
