REMARK  Name = ZINC38885896
REMARK  9 active torsions:
REMARK  status: ('A' for Active; 'I' for Inactive)
REMARK    1  A    between atoms: C_1  and  C_2
REMARK    2  A    between atoms: N_7  and  C_9
REMARK    3  A    between atoms: C_12  and  C_15
REMARK    4  A    between atoms: C_15  and  C_17
REMARK    5  A    between atoms: C_15  and  N_18
REMARK    6  A    between atoms: C_19  and  C_21
REMARK    7  A    between atoms: N_26  and  C_28
REMARK    8  A    between atoms: C_28  and  C_29
REMARK    9  A    between atoms: C_31  and  C_34
REMARK                            x       y       z     vdW  Elec       q    Type
REMARK                         _______ _______ _______ _____ _____    ______ ____
ROOT
ATOM      1  N   UNL     1       5.114  -6.418   0.968  0.00  0.00    -0.309 N 
ATOM      2  C   UNL     1       6.188  -7.084   0.500  0.00  0.00    +0.215 C 
ATOM      3  O   UNL     1       7.304  -6.663   0.717  0.00  0.00    -0.276 OA
ATOM      4  H   UNL     1       4.221  -6.755   0.794  0.00  0.00    +0.149 HD
ENDROOT
BRANCH   2   5
ATOM      5  C   UNL     1       6.001  -8.353  -0.291  0.00  0.00    +0.058 C 
ATOM      6  C   UNL     1       5.271  -9.389   0.568  0.00  0.00    +0.009 C 
ATOM      7  C   UNL     1       5.156 -10.699  -0.217  0.00  0.00    -0.018 C 
ATOM      8  C   UNL     1       6.555 -11.167  -0.625  0.00  0.00    -0.078 C 
ATOM      9  N   UNL     1       7.190 -10.145  -1.466  0.00  0.00    +0.386 N 
ATOM     10  C   UNL     1       7.369  -8.907  -0.698  0.00  0.00    -0.065 C 
ATOM     11  H   UNL     1       6.606  -9.960  -2.268  0.00  0.00    -0.081 HD
BRANCH   9  12
ATOM     12  C   UNL     1       8.500 -10.631  -1.919  0.00  0.00    +0.022 C 
BRANCH  12  13
ATOM     13  C   UNL     1       8.309 -11.826  -2.818  0.00  0.00    +0.211 A 
ATOM     14  N   UNL     1       8.165 -11.789  -4.112  0.00  0.00    -0.193 NA
ATOM     15  C   UNL     1       8.018 -13.036  -4.594  0.00  0.00    +0.202 A 
ATOM     16  N   UNL     1       8.069 -13.881  -3.594  0.00  0.00    -0.056 NA
ATOM     17  O   UNL     1       8.265 -13.104  -2.422  0.00  0.00    -0.340 OA
BRANCH  15  18
ATOM     18  C   UNL     1       7.828 -13.396  -6.022  0.00  0.00    +0.022 A 
ATOM     19  C   UNL     1       7.796 -12.399  -6.995  0.00  0.00    +0.012 A 
ATOM     20  C   UNL     1       7.620 -12.739  -8.321  0.00  0.00    +0.001 A 
ATOM     21  C   UNL     1       7.474 -14.066  -8.685  0.00  0.00    +0.000 A 
ATOM     22  C   UNL     1       7.505 -15.059  -7.722  0.00  0.00    +0.001 A 
ATOM     23  C   UNL     1       7.687 -14.731  -6.394  0.00  0.00    +0.012 A 
ENDBRANCH  15  18
ENDBRANCH  12  13
ENDBRANCH   9  12
ENDBRANCH   2   5
BRANCH   1  24
ATOM     24  C   UNL     1       5.295  -5.184   1.737  0.00  0.00    +0.100 C 
ATOM     25  C   UNL     1       5.536  -5.531   3.207  0.00  0.00    +0.033 C 
BRANCH  24  29
ATOM     26  C   UNL     1       1.786  -2.767   1.399  0.00  0.00    +0.030 A 
ATOM     27  C   UNL     1       3.043  -2.177   1.369  0.00  0.00    +0.023 A 
ATOM     28  C   UNL     1       4.175  -2.961   1.479  0.00  0.00    +0.007 A 
ATOM     29  C   UNL     1       4.057  -4.332   1.618  0.00  0.00    -0.027 A 
ATOM     30  C   UNL     1       2.807  -4.923   1.648  0.00  0.00    +0.007 A 
ATOM     31  C   UNL     1       1.671  -4.144   1.545  0.00  0.00    +0.023 A 
BRANCH  26  37
ATOM     32  C   UNL     1      -0.013   1.539   0.045  0.00  0.00    +0.009 C 
ATOM     33  C   UNL     1       0.010   0.010   0.019  0.00  0.00    +0.003 C 
ATOM     34  C   UNL     1      -1.425  -0.522   0.015  0.00  0.00    +0.006 C 
ATOM     35  C   UNL     1      -1.404  -2.052  -0.044  0.00  0.00    +0.019 C 
ATOM     36  C   UNL     1      -0.690  -2.596   1.198  0.00  0.00    +0.105 C 
ATOM     37  N   UNL     1       0.639  -1.977   1.288  0.00  0.00    -0.330 N 
ATOM     38  C   UNL     1       0.740  -0.512   1.261  0.00  0.00    +0.108 C 
ENDBRANCH  26  37
ENDBRANCH  24  29
ENDBRANCH   1  24
TORSDOF 7
