REMARK  Name = ZINC36637439
REMARK  12 active torsions:
REMARK  status: ('A' for Active; 'I' for Inactive)
REMARK    1  A    between atoms: C_1  and  C_2
REMARK    2  A    between atoms: C_2  and  C_3
REMARK    3  A    between atoms: N_9  and  S_10
REMARK    4  A    between atoms: S_10  and  C_13
REMARK    5  A    between atoms: C_16  and  C_19
REMARK    6  A    between atoms: N_21  and  C_22
REMARK    7  A    between atoms: C_22  and  C_23
REMARK    8  A    between atoms: C_23  and  N_24
REMARK    9  A    between atoms: N_24  and  C_25
REMARK   10  A    between atoms: N_24  and  C_26
REMARK   11  A    between atoms: C_30  and  O_36
REMARK   12  A    between atoms: O_36  and  C_37
REMARK                            x       y       z     vdW  Elec       q    Type
REMARK                         _______ _______ _______ _____ _____    ______ ____
ROOT
ATOM      1  C   UNL     1       2.119   7.255   1.719  0.00  0.00    +0.252 C 
ATOM      2  O   UNL     1       1.184   8.027   1.626  0.00  0.00    -0.270 OA
ATOM      3  N   UNL     1       3.032   7.419   2.697  0.00  0.00    -0.248 N 
ATOM      4  C   UNL     1       2.810   8.343   3.704  0.00  0.00    +0.168 A 
ATOM      5  N   UNL     1       1.782   9.139   3.880  0.00  0.00    -0.221 NA
ATOM      6  C   UNL     1       1.698   9.999   4.919  0.00  0.00    +0.122 A 
ATOM      7  C   UNL     1       0.651  10.906   5.222  0.00  0.00    +0.146 A 
ATOM      8  C   UNL     1       0.726  11.718   6.329  0.00  0.00    +0.048 A 
ATOM      9  C   UNL     1       1.819  11.679   7.182  0.00  0.00    +0.005 A 
ATOM     10  C   UNL     1       2.856  10.805   6.915  0.00  0.00    +0.017 A 
ATOM     11  C   UNL     1       2.792   9.989   5.811  0.00  0.00    +0.044 A 
ATOM     12  S   UNL     1       3.848   8.749   5.102  0.00  0.00    -0.052 S 
ENDROOT
BRANCH   1  16
ATOM     13  C   UNL     1       2.507   4.045  -1.035  0.00  0.00    +0.106 A 
ATOM     14  C   UNL     1       1.278   4.657  -0.858  0.00  0.00    +0.029 A 
ATOM     15  C   UNL     1       1.145   5.700   0.035  0.00  0.00    +0.015 A 
ATOM     16  C   UNL     1       2.254   6.138   0.761  0.00  0.00    +0.037 A 
ATOM     17  C   UNL     1       3.490   5.516   0.579  0.00  0.00    +0.015 A 
ATOM     18  C   UNL     1       3.608   4.471  -0.314  0.00  0.00    +0.029 A 
BRANCH  13  19
ATOM     19  S   UNL     1       2.668   2.714  -2.178  0.00  0.00    +0.061 S 
ATOM     20  O   UNL     1       3.995   2.771  -2.683  0.00  0.00    -0.153 OA
ATOM     21  O   UNL     1       1.528   2.765  -3.024  0.00  0.00    -0.153 OA
BRANCH  19  27
ATOM     22  C   UNL     1       1.238   0.778  -0.918  0.00  0.00    +0.080 C 
ATOM     23  C   UNL     1       1.128  -0.675  -1.391  0.00  0.00    +0.021 C 
ATOM     24  C   UNL     1       2.316  -1.475  -0.851  0.00  0.00    +0.003 C 
ATOM     25  C   UNL     1       3.619  -0.886  -1.397  0.00  0.00    +0.017 C 
ATOM     26  C   UNL     1       3.757   0.564  -0.924  0.00  0.00    +0.110 C 
ATOM     27  N   UNL     1       2.551   1.308  -1.311  0.00  0.00    -0.174 NA
BRANCH  22  29
ATOM     28  C   UNL     1      -1.230   1.145  -1.050  0.00  0.00    +0.005 C 
ATOM     29  C   UNL     1       0.132   1.613  -1.566  0.00  0.00    +0.017 C 
ENDBRANCH  22  29
ENDBRANCH  19  27
ENDBRANCH  13  19
ENDBRANCH   1  16
BRANCH   7  30
ATOM     30  O   UNL     1      -0.437  10.975   4.409  0.00  0.00    -0.493 OA
ATOM     31  C   UNL     1      -1.457  11.909   4.768  0.00  0.00    +0.277 C 
ENDBRANCH   7  30
BRANCH   3  32
ATOM     32  C   UNL     1       4.260   6.619   2.694  0.00  0.00    +0.097 C 
BRANCH  32  33
ATOM     33  C   UNL     1       5.209   7.146   1.617  0.00  0.00    -0.060 C 
BRANCH  33  34
ATOM     34  N   UNL     1       6.466   6.388   1.658  0.00  0.00    +0.377 N 
ATOM     35  C   UNL     1       6.209   4.992   1.277  0.00  0.00    -0.097 C 
ATOM     36  C   UNL     1       7.428   6.981   0.719  0.00  0.00    -0.097 C 
ATOM     37  H   UNL     1       6.846   6.417   2.592  0.00  0.00    -0.083 HD
ENDBRANCH  33  34
ENDBRANCH  32  33
ENDBRANCH   3  32
TORSDOF 8
