REMARK  Name = ZINC06321406
REMARK  7 active torsions:
REMARK  status: ('A' for Active; 'I' for Inactive)
REMARK    1  A    between atoms: C_1  and  C_2
REMARK    2  A    between atoms: C_6  and  C_15
REMARK    3  A    between atoms: C_13  and  C_14
REMARK    4  A    between atoms: C_15  and  C_17
REMARK    5  A    between atoms: C_15  and  N_63
REMARK    6  A    between atoms: N_21  and  C_22
REMARK    7  A    between atoms: C_22  and  C_23
REMARK                            x       y       z     vdW  Elec       q    Type
REMARK                         _______ _______ _______ _____ _____    ______ ____
ROOT
ATOM      1  C   UNL     1       1.667   6.426  -1.702  0.00  0.00    +0.039 C 
ENDROOT
BRANCH   1   7
ATOM      2  C   UNL     1       4.579  11.571   2.844  0.00  0.00    +0.044 C 
ATOM      3  C   UNL     1       4.433  10.959   1.475  0.00  0.00    -0.047 A 
ATOM      4  C   UNL     1       3.625   9.870   1.303  0.00  0.00    +0.013 A 
ATOM      5  C   UNL     1       3.489   9.302   0.032  0.00  0.00    -0.001 A 
ATOM      6  C   UNL     1       2.629   8.138  -0.189  0.00  0.00    +0.017 A 
ATOM      7  C   UNL     1       2.540   7.627  -1.442  0.00  0.00    +0.011 A 
ATOM      8  C   UNL     1       3.257   8.219  -2.503  0.00  0.00    +0.251 A 
ATOM      9  O   UNL     1       3.159   7.746  -3.623  0.00  0.00    -0.268 OA
ATOM     10  N   UNL     1       4.045   9.290  -2.311  0.00  0.00    -0.322 N 
ATOM     11  H   UNL     1       4.524   9.672  -3.063  0.00  0.00    +0.169 HD
ATOM     12  C   UNL     1       4.183   9.854  -1.061  0.00  0.00    +0.049 A 
ATOM     13  C   UNL     1       4.999  10.963  -0.862  0.00  0.00    +0.030 A 
ATOM     14  C   UNL     1       5.119  11.506   0.400  0.00  0.00    -0.046 A 
ATOM     15  C   UNL     1       6.004  12.707   0.613  0.00  0.00    +0.044 C 
ENDBRANCH   1   7
BRANCH   1  22
ATOM     16  C   UNL     1      -0.014   8.003  -2.476  0.00  0.00    -0.077 C 
ATOM     17  C   UNL     1      -1.190   8.228  -3.387  0.00  0.00    -0.019 C 
ATOM     18  C   UNL     1      -2.455   7.673  -2.699  0.00  0.00    -0.002 C 
ATOM     19  C   UNL     1      -2.548   6.221  -2.805  0.00  0.00    -0.002 C 
ATOM     20  C   UNL     1      -1.358   5.510  -2.129  0.00  0.00    -0.019 C 
ATOM     21  C   UNL     1      -0.171   5.584  -3.051  0.00  0.00    -0.077 C 
ATOM     22  N   UNL     1       0.746   6.748  -2.804  0.00  0.00    +0.389 N 
ATOM     23  H   UNL     1       1.294   6.915  -3.656  0.00  0.00    -0.080 HD
ENDBRANCH   1  22
BRANCH   1  24
ATOM     24  C   UNL     1       2.525   5.264  -2.130  0.00  0.00    +0.143 A 
ATOM     25  N   UNL     1       3.095   5.100  -3.299  0.00  0.00    -0.115 NA
ATOM     26  N   UNL     1       3.742   3.986  -3.273  0.00  0.00    -0.023 NA
ATOM     27  N   UNL     1       3.606   3.439  -2.116  0.00  0.00    -0.044 NA
ATOM     28  N   UNL     1       2.858   4.194  -1.384  0.00  0.00    -0.226 N 
BRANCH  28  29
ATOM     29  C   UNL     1       2.451   3.937  -0.001  0.00  0.00    +0.182 C 
BRANCH  29  30
ATOM     30  C   UNL     1       1.156   3.165   0.008  0.00  0.00    -0.026 A 
ATOM     31  C   UNL     1       1.175   1.783   0.000  0.00  0.00    +0.005 A 
ATOM     32  C   UNL     1      -0.013   1.076   0.008  0.00  0.00    +0.000 A 
ATOM     33  C   UNL     1      -1.219   1.751   0.017  0.00  0.00    +0.000 A 
ATOM     34  C   UNL     1      -1.238   3.133   0.030  0.00  0.00    +0.000 A 
ATOM     35  C   UNL     1      -0.050   3.840   0.023  0.00  0.00    +0.005 A 
ENDBRANCH  29  30
ENDBRANCH  28  29
ENDBRANCH   1  24
TORSDOF 5
