REMARK  Name = ZINC12412148
REMARK  9 active torsions:
REMARK  status: ('A' for Active; 'I' for Inactive)
REMARK    1  A    between atoms: C_1  and  C_2
REMARK    2  A    between atoms: C_2  and  O_3
REMARK    3  A    between atoms: O_3  and  C_4
REMARK    4  A    between atoms: C_4  and  C_6
REMARK    5  A    between atoms: C_6  and  C_29
REMARK    6  A    between atoms: C_15  and  C_17
REMARK    7  A    between atoms: C_15  and  C_23
REMARK    8  A    between atoms: C_29  and  C_31
REMARK    9  A    between atoms: C_34  and  N_37
REMARK                            x       y       z     vdW  Elec       q    Type
REMARK                         _______ _______ _______ _____ _____    ______ ____
ROOT
ATOM      1  C   UNL     1       0.517  -1.963  -1.822  0.00  0.00    +0.141 C 
ATOM      2  C   UNL     1       1.030  -2.721  -2.883  0.00  0.00    +0.107 C 
ATOM      3  N   UNL     1       1.746  -2.152  -3.908  0.00  0.00    -0.302 N 
ATOM      4  C   UNL     1       1.588  -2.680  -5.194  0.00  0.00    +0.038 A 
ATOM      5  C   UNL     1       2.137  -2.012  -6.281  0.00  0.00    +0.023 A 
ATOM      6  C   UNL     1       2.004  -2.537  -7.551  0.00  0.00    +0.002 A 
ATOM      7  C   UNL     1       1.323  -3.725  -7.740  0.00  0.00    +0.000 A 
ATOM      8  C   UNL     1       0.771  -4.389  -6.661  0.00  0.00    +0.008 A 
ATOM      9  C   UNL     1       0.898  -3.868  -5.386  0.00  0.00    +0.006 A 
ATOM     10  C   UNL     1       0.280  -4.601  -4.222  0.00  0.00    +0.111 C 
ATOM     11  N   UNL     1       0.842  -4.081  -2.967  0.00  0.00    -0.314 N 
ATOM     12  H   UNL     1       2.345  -1.406  -3.746  0.00  0.00    +0.153 HD
ATOM     13  H   UNL     1       1.071  -4.670  -2.232  0.00  0.00    +0.149 HD
ENDROOT
BRANCH  10  14
ATOM     14  C   UNL     1       0.582  -6.073  -4.336  0.00  0.00    -0.015 A 
ATOM     15  C   UNL     1       1.694  -6.601  -3.706  0.00  0.00    +0.006 A 
ATOM     16  C   UNL     1       1.968  -7.952  -3.807  0.00  0.00    +0.000 A 
ATOM     17  C   UNL     1       1.138  -8.773  -4.547  0.00  0.00    +0.000 A 
ATOM     18  C   UNL     1       0.029  -8.244  -5.181  0.00  0.00    +0.000 A 
ATOM     19  C   UNL     1      -0.248  -6.894  -5.076  0.00  0.00    +0.006 A 
ENDBRANCH  10  14
BRANCH  10  20
ATOM     20  C   UNL     1      -1.213  -4.391  -4.230  0.00  0.00    -0.015 A 
ATOM     21  C   UNL     1      -1.870  -4.148  -5.421  0.00  0.00    +0.006 A 
ATOM     22  C   UNL     1      -3.239  -3.960  -5.429  0.00  0.00    +0.000 A 
ATOM     23  C   UNL     1      -3.950  -4.005  -4.245  0.00  0.00    +0.000 A 
ATOM     24  C   UNL     1      -3.292  -4.244  -3.053  0.00  0.00    +0.000 A 
ATOM     25  C   UNL     1      -1.923  -4.437  -3.045  0.00  0.00    +0.006 A 
ENDBRANCH  10  20
BRANCH   1  26
ATOM     26  C   UNL     1       0.628  -0.506  -1.844  0.00  0.00    +0.346 C 
ATOM     27  O   UNL     1       1.186   0.048  -2.773  0.00  0.00    -0.245 OA
BRANCH  26  28
ATOM     28  O   UNL     1       0.112   0.226  -0.835  0.00  0.00    -0.461 OA
BRANCH  28  30
ATOM     29  C   UNL     1      -0.571   2.299   0.202  0.00  0.00    +0.048 C 
ATOM     30  C   UNL     1       0.161   1.647  -0.973  0.00  0.00    +0.229 C 
ENDBRANCH  28  30
ENDBRANCH  26  28
ENDBRANCH   1  26
BRANCH   1  31
ATOM     31  C   UNL     1      -0.109  -2.610  -0.726  0.00  0.00    +0.203 C 
ATOM     32  O   UNL     1       0.529  -3.371  -0.023  0.00  0.00    -0.286 OA
BRANCH  31  33
ATOM     33  C   UNL     1      -1.539  -2.359  -0.438  0.00  0.00    +0.023 A 
ATOM     34  C   UNL     1      -2.305  -1.587  -1.312  0.00  0.00    +0.014 A 
ATOM     35  C   UNL     1      -3.638  -1.360  -1.039  0.00  0.00    +0.033 A 
ATOM     36  C   UNL     1      -4.213  -1.888   0.103  0.00  0.00    +0.126 A 
ATOM     37  C   UNL     1      -3.458  -2.650   0.976  0.00  0.00    +0.033 A 
ATOM     38  C   UNL     1      -2.125  -2.888   0.713  0.00  0.00    +0.014 A 
BRANCH  36  39
ATOM     39  N   UNL     1      -5.643  -1.637   0.392  0.00  0.00    +0.056 N 
ATOM     40  O   UNL     1      -6.152  -2.100   1.397  0.00  0.00    -0.126 OA
ATOM     41  O   UNL     1      -6.311  -0.967  -0.375  0.00  0.00    -0.126 OA
ENDBRANCH  36  39
ENDBRANCH  31  33
ENDBRANCH   1  31
TORSDOF 8
