REMARK  Name = ZINC36683037
REMARK  4 active torsions:
REMARK  status: ('A' for Active; 'I' for Inactive)
REMARK    1  A    between atoms: C_3  and  S_6
REMARK    2  A    between atoms: S_6  and  N_9
REMARK    3  A    between atoms: C_14  and  C_16
REMARK    4  A    between atoms: C_22  and  C_24
REMARK                            x       y       z     vdW  Elec       q    Type
REMARK                         _______ _______ _______ _____ _____    ______ ____
ROOT
ATOM      1  C   UNL     1       5.487  -0.216   1.045  0.00  0.00    +0.239 C 
ATOM      2  O   UNL     1       6.235   0.053   0.129  0.00  0.00    -0.274 OA
ATOM      3  N   UNL     1       4.895  -1.426   1.098  0.00  0.00    -0.237 N 
ATOM      4  C   UNL     1       5.141  -2.362   0.107  0.00  0.00    +0.314 A 
ATOM      5  N   UNL     1       5.927  -2.205  -0.930  0.00  0.00    -0.092 NA
ATOM      6  N   UNL     1       5.917  -3.277  -1.642  0.00  0.00    -0.106 NA
ATOM      7  C   UNL     1       5.123  -4.161  -1.086  0.00  0.00    +0.251 A 
ATOM      8  O   UNL     1       4.620  -3.602   0.035  0.00  0.00    -0.405 OA
ATOM      9  H   UNL     1       4.296  -1.641   1.831  0.00  0.00    +0.159 HD
ENDROOT
BRANCH   7  10
ATOM     10  C   UNL     1       4.837  -5.519  -1.591  0.00  0.00    +0.057 A 
ATOM     11  C   UNL     1       3.961  -6.355  -0.896  0.00  0.00    +0.016 A 
ATOM     12  C   UNL     1       3.696  -7.622  -1.373  0.00  0.00    +0.021 A 
ATOM     13  C   UNL     1       4.298  -8.067  -2.538  0.00  0.00    +0.042 A 
ATOM     14  C   UNL     1       5.168  -7.244  -3.233  0.00  0.00    +0.040 A 
ATOM     15  C   UNL     1       5.436  -5.971  -2.769  0.00  0.00    +0.055 A 
ATOM     16 CL   UNL     1       6.522  -4.937  -3.645  0.00  0.00    -0.083 Cl
ATOM     17 CL   UNL     1       3.961  -9.664  -3.130  0.00  0.00    -0.083 Cl
ENDBRANCH   7  10
BRANCH   1  23
ATOM     18  N   UNL     1       4.654   2.018   1.523  0.00  0.00    -0.164 NA
ATOM     19  C   UNL     1       4.448   3.197   2.375  0.00  0.00    +0.110 C 
ATOM     20  C   UNL     1       5.768   3.536   3.075  0.00  0.00    +0.017 C 
ATOM     21  C   UNL     1       6.277   2.301   3.822  0.00  0.00    +0.003 C 
ATOM     22  C   UNL     1       6.536   1.170   2.824  0.00  0.00    +0.030 C 
ATOM     23  C   UNL     1       5.220   0.802   2.123  0.00  0.00    +0.166 C 
BRANCH  18  24
ATOM     24  S   UNL     1       4.251   2.058  -0.083  0.00  0.00    +0.068 S 
ATOM     25  O   UNL     1       3.240   3.046  -0.224  0.00  0.00    -0.152 OA
ATOM     26  O   UNL     1       4.059   0.709  -0.487  0.00  0.00    -0.152 OA
BRANCH  24  29
ATOM     27  C   UNL     1       7.635   2.631  -2.249  0.00  0.00    +0.010 A 
ATOM     28  C   UNL     1       6.608   1.947  -1.626  0.00  0.00    +0.036 A 
ATOM     29  C   UNL     1       5.660   2.650  -0.960  0.00  0.00    +0.143 A 
ATOM     30  S   UNL     1       6.208   4.332  -1.202  0.00  0.00    -0.077 S 
ATOM     31  C   UNL     1       7.664   3.984  -2.175  0.00  0.00    +0.047 A 
ENDBRANCH  24  29
ENDBRANCH  18  24
ENDBRANCH   1  23
TORSDOF 4
