REMARK  Name = ZINC66102808
REMARK  7 active torsions:
REMARK  status: ('A' for Active; 'I' for Inactive)
REMARK    1  A    between atoms: C_1  and  C_2
REMARK    2  A    between atoms: C_4  and  S_8
REMARK    3  A    between atoms: N_6  and  C_7
REMARK    4  A    between atoms: S_8  and  N_11
REMARK    5  A    between atoms: N_11  and  C_12
REMARK    6  A    between atoms: C_12  and  C_19
REMARK    7  A    between atoms: C_15  and  C_18
REMARK                            x       y       z     vdW  Elec       q    Type
REMARK                         _______ _______ _______ _____ _____    ______ ____
ROOT
ATOM      1  S   UNL     1       0.149  -3.649  -1.953  0.00  0.00    +0.078 S 
ATOM      2  O   UNL     1      -0.759  -4.543  -1.325  0.00  0.00    -0.152 OA
ATOM      3  O   UNL     1       0.853  -2.647  -1.232  0.00  0.00    -0.152 OA
ENDROOT
BRANCH   1   7
ATOM      4  C   UNL     1       2.616  -6.636  -5.500  0.00  0.00    +0.086 C 
ATOM      5  C   UNL     1       2.346  -5.868  -4.232  0.00  0.00    +0.109 A 
ATOM      6  N   UNL     1       1.257  -5.200  -3.965  0.00  0.00    -0.213 NA
ATOM      7  C   UNL     1       1.366  -4.644  -2.749  0.00  0.00    +0.211 A 
ATOM      8  C   UNL     1       2.568  -4.981  -2.243  0.00  0.00    +0.135 A 
ATOM      9  N   UNL     1       3.188  -5.761  -3.182  0.00  0.00    -0.336 N 
ATOM     10  C   UNL     1       4.518  -6.365  -3.068  0.00  0.00    +0.150 C 
ENDBRANCH   1   7
BRANCH   1  11
ATOM     11  N   UNL     1      -0.700  -2.869  -3.141  0.00  0.00    -0.183 NA
ATOM     12  H   UNL     1      -1.632  -3.088  -3.296  0.00  0.00    +0.149 HD
BRANCH  11  13
ATOM     13  C   UNL     1      -0.043  -1.847  -3.960  0.00  0.00    +0.037 C 
ATOM     14  C   UNL     1       0.304  -0.639  -3.087  0.00  0.00    +0.024 C 
ATOM     15  C   UNL     1      -0.978  -0.062  -2.482  0.00  0.00    +0.005 C 
ATOM     16  C   UNL     1      -1.920   0.374  -3.606  0.00  0.00    -0.014 C 
ATOM     17  C   UNL     1      -2.267  -0.833  -4.479  0.00  0.00    +0.005 C 
ATOM     18  C   UNL     1      -0.985  -1.410  -5.084  0.00  0.00    +0.024 C 
ATOM     19  C   UNL     1      -3.202   0.951  -3.001  0.00  0.00    +0.007 C 
ATOM     20  C   UNL     1       1.239  -2.423  -4.564  0.00  0.00    +0.029 C 
ENDBRANCH  11  13
ENDBRANCH   1  11
TORSDOF 3
