REMARK  Name = ZINC59040134
REMARK  5 active torsions:
REMARK  status: ('A' for Active; 'I' for Inactive)
REMARK    1  A    between atoms: C_5  and  N_7
REMARK    2  A    between atoms: C_8  and  C_10
REMARK    3  A    between atoms: C_10  and  S_11
REMARK    4  A    between atoms: S_11  and  C_12
REMARK    5  A    between atoms: N_17  and  N_18
REMARK                            x       y       z     vdW  Elec       q    Type
REMARK                         _______ _______ _______ _____ _____    ______ ____
ROOT
ATOM      1  C   UNL     1      -1.370  -6.656   0.440  0.00  0.00    +0.211 A 
ATOM      2  N   UNL     1      -2.359  -7.549   0.549  0.00  0.00    -0.186 NA
ATOM      3  C   UNL     1      -1.855  -8.764   0.607  0.00  0.00    +0.232 A 
ATOM      4  N   UNL     1      -0.511  -8.661   0.535  0.00  0.00    -0.245 N 
ATOM      5  N   UNL     1      -0.222  -7.291   0.423  0.00  0.00    -0.144 NA
ATOM      6  N   UNL     1      -2.575  -9.939   0.723  0.00  0.00    -0.205 N 
ATOM      7  H   UNL     1      -2.111 -10.791   0.759  0.00  0.00    +0.177 HD
ATOM      8  H   UNL     1       0.130  -9.389   0.554  0.00  0.00    +0.192 HD
ENDROOT
BRANCH   6   9
ATOM      9  N   UNL     1      -3.974  -9.900   0.789  0.00  0.00    -0.189 NA
ATOM     10  C   UNL     1      -4.636 -10.976   0.993  0.00  0.00    +0.037 C 
ATOM     11  C   UNL     1      -3.936 -12.316   1.061  0.00  0.00    +0.052 C 
ATOM     12  C   UNL     1      -4.371 -13.028   2.346  0.00  0.00    +0.006 C 
ATOM     13  C   UNL     1      -5.897 -13.111   2.390  0.00  0.00    +0.001 C 
ATOM     14  C   UNL     1      -6.492 -11.703   2.454  0.00  0.00    +0.006 C 
ATOM     15  C   UNL     1      -6.136 -10.941   1.179  0.00  0.00    +0.052 C 
ENDBRANCH   6   9
BRANCH   1  16
ATOM     16  S   UNL     1      -1.575  -4.909   0.330  0.00  0.00    -0.075 S 
BRANCH  16  17
ATOM     17  C   UNL     1       0.119  -4.276   0.196  0.00  0.00    +0.173 C 
BRANCH  17  19
ATOM     18  N   UNL     1       1.238  -2.080  -0.015  0.00  0.00    -0.284 N 
ATOM     19  C   UNL     1       0.087  -2.773   0.094  0.00  0.00    +0.228 C 
ATOM     20  O   UNL     1      -0.975  -2.187   0.110  0.00  0.00    -0.275 OA
ATOM     21  H   UNL     1       2.080  -2.551  -0.108  0.00  0.00    +0.155 HD
BRANCH  18  26
ATOM     22  C   UNL     1       0.155   1.371   0.649  0.00  0.00    +0.002 A 
ATOM     23  C   UNL     1       1.174   2.086   0.048  0.00  0.00    +0.001 A 
ATOM     24  C   UNL     1       2.215   1.422  -0.575  0.00  0.00    +0.017 A 
ATOM     25  C   UNL     1       2.239   0.041  -0.597  0.00  0.00    +0.039 A 
ATOM     26  C   UNL     1       1.217  -0.680   0.006  0.00  0.00    +0.047 A 
ATOM     27  C   UNL     1       0.173  -0.010   0.631  0.00  0.00    +0.024 A 
ATOM     28 BR   UNL     1       3.662  -0.867  -1.450  0.00  0.00    -0.048 Br
ENDBRANCH  18  26
ENDBRANCH  17  19
ENDBRANCH  16  17
ENDBRANCH   1  16
TORSDOF 5
