REMARK  Name = ZINC40627435
REMARK  5 active torsions:
REMARK  status: ('A' for Active; 'I' for Inactive)
REMARK    1  A    between atoms: C_1  and  C_2
REMARK    2  A    between atoms: C_11  and  N_12
REMARK    3  A    between atoms: C_14  and  N_30
REMARK    4  A    between atoms: C_15  and  N_19
REMARK    5  A    between atoms: N_19  and  C_20
REMARK                            x       y       z     vdW  Elec       q    Type
REMARK                         _______ _______ _______ _____ _____    ______ ____
ROOT
ATOM      1  N   UNL     1       0.020  -4.889  -1.146  0.00  0.00    -0.297 N 
ATOM      2  C   UNL     1       0.163  -6.268  -1.090  0.00  0.00    +0.159 A 
ATOM      3  C   UNL     1       0.283  -7.014  -2.258  0.00  0.00    +0.206 A 
ATOM      4  C   UNL     1       0.424  -8.394  -2.148  0.00  0.00    +0.159 A 
ATOM      5  N   UNL     1       0.439  -8.947  -0.936  0.00  0.00    -0.218 NA
ATOM      6  C   UNL     1       0.322  -8.206   0.147  0.00  0.00    +0.225 A 
ATOM      7  N   UNL     1       0.192  -6.896   0.084  0.00  0.00    -0.218 NA
ATOM      8  H   UNL     1      -0.084  -4.447  -2.003  0.00  0.00    +0.154 HD
ENDROOT
BRANCH   1  19
ATOM      9  C   UNL     1      -2.467   0.908   0.385  0.00  0.00    +0.063 C 
ATOM     10  C   UNL     1      -1.805  -0.441   0.276  0.00  0.00    +0.013 A 
ATOM     11  C   UNL     1      -1.859  -1.127  -0.934  0.00  0.00    +0.021 A 
ATOM     12  C   UNL     1      -1.264  -2.351  -1.051  0.00  0.00    +0.013 A 
ATOM     13  C   UNL     1      -0.609  -2.881   0.074  0.00  0.00    +0.020 A 
ATOM     14  C   UNL     1      -0.592  -2.132   1.276  0.00  0.00    +0.048 A 
ATOM     15  N   UNL     1      -1.190  -0.936   1.323  0.00  0.00    -0.358 N 
ATOM     16  C   UNL     1       0.062  -2.659   2.403  0.00  0.00    +0.026 A 
ATOM     17  C   UNL     1       0.669  -3.876   2.333  0.00  0.00    +0.004 A 
ATOM     18  C   UNL     1       0.658  -4.619   1.157  0.00  0.00    +0.024 A 
ATOM     19  C   UNL     1       0.028  -4.139   0.028  0.00  0.00    +0.042 A 
ATOM     20  H   UNL     1      -1.170  -0.427   2.148  0.00  0.00    +0.166 HD
ENDBRANCH   1  19
BRANCH   3  21
ATOM     21  N   UNL     1       0.262  -6.357  -3.585  0.00  0.00    +0.063 N 
ATOM     22  O   UNL     1       1.293  -5.979  -4.089  0.00  0.00    -0.126 OA
ATOM     23  O   UNL     1      -0.788  -6.198  -4.163  0.00  0.00    -0.126 OA
ENDBRANCH   3  21
BRANCH   4  24
ATOM     24  N   UNL     1       0.547  -9.182  -3.283  0.00  0.00    -0.297 N 
ATOM     25  H   UNL     1       0.621  -8.767  -4.156  0.00  0.00    +0.154 HD
BRANCH  24  26
ATOM     26  C   UNL     1       0.564 -10.572  -3.168  0.00  0.00    +0.040 A 
ATOM     27  C   UNL     1      -0.026 -11.188  -2.085  0.00  0.00    +0.024 A 
ATOM     28  C   UNL     1      -0.015 -12.573  -1.962  0.00  0.00    +0.002 A 
ATOM     29  C   UNL     1       0.578 -13.358  -2.903  0.00  0.00    +0.008 A 
ATOM     30  C   UNL     1       1.192 -12.770  -4.022  0.00  0.00    -0.016 A 
ATOM     31  C   UNL     1       1.182 -11.361  -4.162  0.00  0.00    +0.003 A 
ATOM     32  C   UNL     1       1.790 -10.775  -5.283  0.00  0.00    +0.010 A 
ATOM     33  C   UNL     1       2.377 -11.567  -6.223  0.00  0.00    +0.001 A 
ATOM     34  C   UNL     1       2.382 -12.954  -6.088  0.00  0.00    +0.001 A 
ATOM     35  C   UNL     1       1.811 -13.556  -5.009  0.00  0.00    +0.008 A 
ENDBRANCH  24  26
ENDBRANCH   4  24
TORSDOF 4
