REMARK  Name = ZINC22890441
REMARK  3 active torsions:
REMARK  status: ('A' for Active; 'I' for Inactive)
REMARK    1  A    between atoms: N_10  and  C_11
REMARK    2  A    between atoms: C_11  and  C_12
REMARK    3  A    between atoms: C_18  and  C_20
REMARK                            x       y       z     vdW  Elec       q    Type
REMARK                         _______ _______ _______ _____ _____    ______ ____
ROOT
ATOM      1  C   UNL     1       2.160   3.633   6.561  0.00  0.00    +0.004 A 
ATOM      2  C   UNL     1       2.544   3.826   5.241  0.00  0.00    +0.040 A 
ATOM      3  C   UNL     1       1.719   3.488   4.198  0.00  0.00    +0.150 A 
ATOM      4  C   UNL     1       0.442   2.926   4.440  0.00  0.00    +0.115 A 
ATOM      5  C   UNL     1       0.087   2.745   5.795  0.00  0.00    +0.044 A 
ATOM      6  C   UNL     1       0.919   3.087   6.832  0.00  0.00    +0.017 A 
ATOM      7  S   UNL     1      -1.539   2.038   5.669  0.00  0.00    -0.052 S 
ATOM      8  C   UNL     1      -1.641   2.029   3.884  0.00  0.00    +0.168 A 
ATOM      9  N   UNL     1      -0.482   2.535   3.535  0.00  0.00    -0.221 NA
ATOM     10  N   UNL     1      -2.679   1.593   3.076  0.00  0.00    -0.248 N 
ATOM     11  C   UNL     1      -3.801   1.092   3.630  0.00  0.00    +0.224 C 
ATOM     12  O   UNL     1      -3.944   1.115   4.834  0.00  0.00    -0.275 OA
ATOM     13  F   UNL     1       2.130   3.692   2.927  0.00  0.00    -0.203 F 
ENDROOT
BRANCH  11  14
ATOM     14  C   UNL     1      -4.877   0.505   2.754  0.00  0.00    +0.076 C 
ATOM     15  C   UNL     1      -5.687   1.635   2.084  0.00  0.00    +0.013 C 
ATOM     16  C   UNL     1      -7.141   1.101   2.069  0.00  0.00    +0.001 C 
ATOM     17  C   UNL     1      -7.250   0.365   3.428  0.00  0.00    +0.001 C 
ATOM     18  C   UNL     1      -5.871  -0.301   3.608  0.00  0.00    +0.013 C 
ENDBRANCH  11  14
BRANCH  10  19
ATOM     19  C   UNL     1      -2.556   1.675   1.618  0.00  0.00    +0.147 C 
BRANCH  19  20
ATOM     20  C   UNL     1      -1.817   0.440   1.098  0.00  0.00    +0.136 C 
ATOM     21  C   UNL     1      -1.675   0.505  -0.439  0.00  0.00    +0.035 C 
ATOM     22  C   UNL     1      -0.277  -0.091  -0.713  0.00  0.00    +0.031 C 
ATOM     23  C   UNL     1       0.261  -0.447   0.691  0.00  0.00    +0.160 C 
ATOM     24  O   UNL     1      -0.458   0.420   1.595  0.00  0.00    -0.375 OA
ENDBRANCH  19  20
ENDBRANCH  10  19
TORSDOF 3
