REMARK  Name = ZINC20914986
REMARK  8 active torsions:
REMARK  status: ('A' for Active; 'I' for Inactive)
REMARK    1  A    between atoms: C_13  and  N_17
REMARK    2  A    between atoms: C_18  and  C_20
REMARK    3  A    between atoms: C_20  and  S_21
REMARK    4  A    between atoms: S_21  and  C_22
REMARK    5  A    between atoms: N_26  and  N_27
REMARK    6  A    between atoms: N_28  and  N_29
REMARK    7  A    between atoms: C_30  and  C_31
REMARK    8  A    between atoms: C_35  and  O_37
REMARK                            x       y       z     vdW  Elec       q    Type
REMARK                         _______ _______ _______ _____ _____    ______ ____
ROOT
ATOM      1  C   UNL     1      -6.477  10.900   0.115  0.00  0.00    +0.173 C 
ENDROOT
BRANCH   1   3
ATOM      2  N   UNL     1      -8.587  12.190   0.147  0.00  0.00    -0.284 N 
ATOM      3  C   UNL     1      -7.239  12.199   0.140  0.00  0.00    +0.228 C 
ATOM      4  O   UNL     1      -6.640  13.254   0.155  0.00  0.00    -0.275 OA
ATOM      5  H   UNL     1      -9.131  11.238   0.060  0.00  0.00    +0.155 HD
BRANCH   2  18
ATOM      6  C   UNL     1     -14.704  12.348   3.745  0.00  0.00    +0.001 A 
ATOM      7  C   UNL     1     -14.012  11.156   3.634  0.00  0.00    +0.001 A 
ATOM      8  C   UNL     1     -12.817  11.100   2.938  0.00  0.00    +0.012 A 
ATOM      9  C   UNL     1     -12.306  12.251   2.345  0.00  0.00    +0.033 A 
ATOM     10  C   UNL     1     -13.009  13.463   2.458  0.00  0.00    +0.033 A 
ATOM     11  C   UNL     1     -14.209  13.502   3.162  0.00  0.00    +0.012 A 
ATOM     12  C   UNL     1     -12.467  14.693   1.842  0.00  0.00    +0.195 C 
ATOM     13  O   UNL     1     -13.073  15.741   1.940  0.00  0.00    -0.287 OA
ATOM     14  C   UNL     1     -11.195  14.640   1.091  0.00  0.00    +0.035 A 
ATOM     15  C   UNL     1     -10.686  15.787   0.492  0.00  0.00    +0.012 A 
ATOM     16  C   UNL     1      -9.493  15.734  -0.212  0.00  0.00    +0.003 A 
ATOM     17  C   UNL     1      -8.799  14.547  -0.326  0.00  0.00    +0.024 A 
ATOM     18  C   UNL     1      -9.290  13.385   0.265  0.00  0.00    +0.045 A 
ATOM     19  C   UNL     1     -10.496  13.423   0.974  0.00  0.00    +0.054 A 
ATOM     20  C   UNL     1     -11.031  12.201   1.599  0.00  0.00    +0.196 C 
ATOM     21  O   UNL     1     -10.423  11.152   1.502  0.00  0.00    -0.287 OA
ENDBRANCH   2  18
ENDBRANCH   1   3
BRANCH   1  22
ATOM     22  S   UNL     1      -4.696  11.243   0.111  0.00  0.00    -0.075 S 
BRANCH  22  23
ATOM     23  C   UNL     1      -3.954   9.645   0.081  0.00  0.00    +0.210 A 
ATOM     24  N   UNL     1      -4.592   8.499   0.066  0.00  0.00    -0.119 NA
ATOM     25  N   UNL     1      -3.638   7.473   0.038  0.00  0.00    -0.109 NA
ATOM     26  C   UNL     1      -2.449   8.026   0.047  0.00  0.00    +0.254 A 
ATOM     27  N   UNL     1      -2.614   9.383   0.070  0.00  0.00    -0.211 N 
ATOM     28  N   UNL     1      -1.236   7.352   0.029  0.00  0.00    -0.204 N 
ATOM     29  H   UNL     1      -0.292   7.917   0.033  0.00  0.00    +0.177 HD
BRANCH  27  30
ATOM     30  N   UNL     1      -1.613  10.313   0.080  0.00  0.00    -0.294 N 
ATOM     31  H   UNL     1      -0.562   9.990   0.069  0.00  0.00    +0.163 HD
ATOM     32  H   UNL     1      -1.859  11.385   0.098  0.00  0.00    +0.163 HD
ENDBRANCH  27  30
BRANCH  28  33
ATOM     33  N   UNL     1      -1.214   5.951   0.007  0.00  0.00    -0.188 NA
ATOM     34  C   UNL     1      -0.079   5.320  -0.010  0.00  0.00    +0.138 C 
BRANCH  34  35
ATOM     35  C   UNL     1      -0.055   3.846  -0.034  0.00  0.00    -0.002 A 
ATOM     36  C   UNL     1      -1.252   3.125  -0.039  0.00  0.00    +0.010 A 
ATOM     37  C   UNL     1      -1.226   1.746  -0.068  0.00  0.00    +0.004 A 
ATOM     38  C   UNL     1      -0.018   1.073  -0.080  0.00  0.00    +0.045 A 
ATOM     39  C   UNL     1       1.177   1.780  -0.074  0.00  0.00    +0.117 A 
ATOM     40  C   UNL     1       1.163   3.165  -0.051  0.00  0.00    +0.054 A 
BRANCH  39  41
ATOM     41  O   UNL     1       2.361   1.113  -0.091  0.00  0.00    -0.507 OA
ATOM     42  H   UNL     1       3.308   1.673  -0.086  0.00  0.00    +0.292 HD
ENDBRANCH  39  41
ENDBRANCH  34  35
ENDBRANCH  28  33
ENDBRANCH  22  23
ENDBRANCH   1  22
TORSDOF 8
