REMARK  Name = ZINC06868161
REMARK  5 active torsions:
REMARK  status: ('A' for Active; 'I' for Inactive)
REMARK    1  A    between atoms: C_1  and  C_2
REMARK    2  A    between atoms: C_5  and  C_8
REMARK    3  A    between atoms: C_10  and  C_13
REMARK    4  A    between atoms: C_14  and  N_25
REMARK    5  A    between atoms: N_15  and  C_18
REMARK                            x       y       z     vdW  Elec       q    Type
REMARK                         _______ _______ _______ _____ _____    ______ ____
ROOT
ATOM      1  C   UNL     1      -6.042   0.547   0.033  0.00  0.00    +0.191 A 
ATOM      2  C   UNL     1      -6.894  -0.547   0.026  0.00  0.00    +0.153 A 
ATOM      3  N   UNL     1      -8.161  -0.045   0.040  0.00  0.00    -0.198 N 
ATOM      4  N   UNL     1      -8.041   1.352   0.045  0.00  0.00    -0.058 NA
ATOM      5  N   UNL     1      -6.793   1.663   0.041  0.00  0.00    -0.122 NA
ENDROOT
BRANCH   3   6
ATOM      6  C   UNL     1      -9.354  -0.782   0.042  0.00  0.00    +0.072 A 
ATOM      7  C   UNL     1     -10.460  -0.313   0.739  0.00  0.00    +0.028 A 
ATOM      8  C   UNL     1     -11.634  -1.041   0.740  0.00  0.00    +0.005 A 
ATOM      9  C   UNL     1     -11.710  -2.235   0.048  0.00  0.00    +0.038 A 
ATOM     10  C   UNL     1     -10.609  -2.706  -0.648  0.00  0.00    +0.125 A 
ATOM     11  C   UNL     1      -9.432  -1.978  -0.657  0.00  0.00    +0.066 A 
ATOM     12  F   UNL     1     -10.686  -3.874  -1.323  0.00  0.00    -0.205 F 
ENDBRANCH   3   6
BRANCH   1  15
ATOM     13  C   UNL     1      -2.505   1.002   0.019  0.00  0.00    +0.202 A 
ATOM     14  N   UNL     1      -3.746   1.531   0.034  0.00  0.00    -0.186 NA
ATOM     15  C   UNL     1      -4.571   0.497   0.026  0.00  0.00    +0.282 A 
ATOM     16  O   UNL     1      -3.808  -0.609   0.017  0.00  0.00    -0.331 OA
ATOM     17  N   UNL     1      -2.635  -0.301   0.013  0.00  0.00    -0.056 NA
BRANCH  13  22
ATOM     18  C   UNL     1       2.452   3.934  -0.002  0.00  0.00    +0.044 C 
ATOM     19  C   UNL     1       1.155   3.166   0.008  0.00  0.00    -0.050 A 
ATOM     20  C   UNL     1       1.173   1.783   0.000  0.00  0.00    +0.004 A 
ATOM     21  C   UNL     1      -0.013   1.076   0.008  0.00  0.00    +0.012 A 
ATOM     22  C   UNL     1      -1.228   1.757   0.017  0.00  0.00    +0.022 A 
ATOM     23  C   UNL     1      -1.239   3.150   0.031  0.00  0.00    +0.012 A 
ATOM     24  C   UNL     1      -0.048   3.848   0.023  0.00  0.00    +0.004 A 
ENDBRANCH  13  22
ENDBRANCH   1  15
BRANCH   2  25
ATOM     25  N   UNL     1      -6.531  -1.881   0.012  0.00  0.00    -0.341 N 
ATOM     26  H   UNL     1      -5.593  -2.128   0.006  0.00  0.00    +0.144 HD
ATOM     27  H   UNL     1      -7.214  -2.570   0.008  0.00  0.00    +0.144 HD
ENDBRANCH   2  25
TORSDOF 4
