REMARK  Name = ZINC39354538
REMARK  7 active torsions:
REMARK  status: ('A' for Active; 'I' for Inactive)
REMARK    1  A    between atoms: C_1  and  C_2
REMARK    2  A    between atoms: C_2  and  C_3
REMARK    3  A    between atoms: C_3  and  C_4
REMARK    4  A    between atoms: C_5  and  C_21
REMARK    5  A    between atoms: C_6  and  O_20
REMARK    6  A    between atoms: N_26  and  C_29
REMARK    7  A    between atoms: C_29  and  C_30
REMARK                            x       y       z     vdW  Elec       q    Type
REMARK                         _______ _______ _______ _____ _____    ______ ____
ROOT
ATOM      1  C   UNL     1      -1.413  -2.041   0.005  0.00  0.00    +0.026 C 
ATOM      2  C   UNL     1      -1.493  -2.784   1.087  0.00  0.00    +0.009 C 
ATOM      3  C   UNL     1      -1.438  -4.231   0.650  0.00  0.00    +0.253 C 
ATOM      4  N   UNL     1      -1.317  -4.170  -0.816  0.00  0.00    -0.190 N 
ATOM      5  N   UNL     1      -1.314  -2.807  -1.141  0.00  0.00    -0.263 N 
ATOM      6  C   UNL     1      -1.231  -5.234  -1.689  0.00  0.00    +0.216 A 
ATOM      7  N   UNL     1      -1.115  -5.128  -3.046  0.00  0.00    -0.325 N 
ATOM      8  H   UNL     1      -1.078  -4.305  -3.557  0.00  0.00    +0.169 HD
ATOM      9  C   UNL     1      -1.057  -6.415  -3.555  0.00  0.00    +0.067 A 
ATOM     10  C   UNL     1      -0.941  -6.939  -4.833  0.00  0.00    +0.028 A 
ATOM     11  C   UNL     1      -0.912  -8.307  -5.015  0.00  0.00    +0.002 A 
ATOM     12  C   UNL     1      -0.997  -9.162  -3.927  0.00  0.00    +0.002 A 
ATOM     13  C   UNL     1      -1.113  -8.659  -2.650  0.00  0.00    +0.030 A 
ATOM     14  C   UNL     1      -1.144  -7.277  -2.449  0.00  0.00    +0.091 A 
ATOM     15  N   UNL     1      -1.243  -6.497  -1.341  0.00  0.00    -0.213 NA
ATOM     16  H   UNL     1      -1.249  -2.451  -2.041  0.00  0.00    +0.170 HD
ENDROOT
BRANCH   2  17
ATOM     17  C   UNL     1      -1.616  -2.286   2.504  0.00  0.00    +0.116 C 
ATOM     18  C   UNL     1      -0.453  -2.815   3.369  0.00  0.00    +0.113 C 
ATOM     19  C   UNL     1      -1.148  -3.639   4.431  0.00  0.00    +0.223 C 
ATOM     20  O   UNL     1      -0.595  -4.240   5.326  0.00  0.00    -0.275 OA
ATOM     21  N   UNL     1      -2.470  -3.599   4.224  0.00  0.00    -0.237 N 
ATOM     22  C   UNL     1      -2.847  -2.863   3.167  0.00  0.00    +0.230 C 
ATOM     23  O   UNL     1      -3.989  -2.689   2.800  0.00  0.00    -0.275 OA
BRANCH  21  24
ATOM     24  C   UNL     1      -3.428  -4.298   5.084  0.00  0.00    +0.151 C 
BRANCH  24  25
ATOM     25  C   UNL     1      -3.852  -3.389   6.208  0.00  0.00    -0.030 A 
ATOM     26  C   UNL     1      -3.140  -3.378   7.394  0.00  0.00    +0.005 A 
ATOM     27  C   UNL     1      -3.529  -2.544   8.425  0.00  0.00    +0.000 A 
ATOM     28  C   UNL     1      -4.628  -1.720   8.271  0.00  0.00    +0.000 A 
ATOM     29  C   UNL     1      -5.339  -1.730   7.086  0.00  0.00    +0.000 A 
ATOM     30  C   UNL     1      -4.948  -2.562   6.053  0.00  0.00    +0.005 A 
ENDBRANCH  24  25
ENDBRANCH  21  24
ENDBRANCH   2  17
BRANCH   3  31
ATOM     31  O   UNL     1      -0.299  -4.881   1.220  0.00  0.00    -0.369 OA
ATOM     32  H   UNL     1      -0.214  -5.812   0.974  0.00  0.00    +0.212 HD
ENDBRANCH   3  31
BRANCH   1  33
ATOM     33  C   UNL     1      -1.433  -0.534   0.013  0.00  0.00    +0.052 C 
BRANCH  33  35
ATOM     34  C   UNL     1      -0.019   1.526   0.010  0.00  0.00    +0.004 C 
ATOM     35  C   UNL     1       0.002  -0.004   0.002  0.00  0.00    +0.003 C 
ENDBRANCH  33  35
ENDBRANCH   1  33
TORSDOF 6
