REMARK  Name = ZINC39687092
REMARK  8 active torsions:
REMARK  status: ('A' for Active; 'I' for Inactive)
REMARK    1  A    between atoms: C_1  and  C_2
REMARK    2  A    between atoms: C_2  and  C_4
REMARK    3  A    between atoms: C_2  and  N_12
REMARK    4  A    between atoms: C_4  and  C_5
REMARK    5  A    between atoms: C_13  and  C_15
REMARK    6  A    between atoms: C_26  and  C_28
REMARK    7  A    between atoms: C_33  and  S_34
REMARK    8  A    between atoms: S_34  and  C_35
REMARK                            x       y       z     vdW  Elec       q    Type
REMARK                         _______ _______ _______ _____ _____    ______ ____
ROOT
ATOM      1  C   UNL     1      -3.463  -1.164  -1.129  0.00  0.00    +0.100 C 
ATOM      2  C   UNL     1      -4.365  -0.272  -0.247  0.00  0.00    +0.121 C 
ATOM      3  N   UNL     1      -4.985   0.686  -1.193  0.00  0.00    -0.296 N 
ATOM      4  C   UNL     1      -5.282  -0.126  -2.398  0.00  0.00    +0.115 C 
ATOM      5  C   UNL     1      -4.070  -1.068  -2.539  0.00  0.00    -0.004 C 
ATOM      6  C   UNL     1      -3.054  -0.477  -3.512  0.00  0.00    -0.010 C 
ATOM      7  C   UNL     1      -3.660  -0.445  -4.918  0.00  0.00    -0.082 C 
ATOM      8  N   UNL     1      -4.025  -1.806  -5.327  0.00  0.00    +0.379 N 
ATOM      9  C   UNL     1      -5.070  -2.333  -4.440  0.00  0.00    -0.082 C 
ATOM     10  C   UNL     1      -4.524  -2.445  -3.014  0.00  0.00    -0.010 C 
ATOM     11  C   UNL     1      -5.223   1.998  -1.002  0.00  0.00    +0.249 C 
ATOM     12  O   UNL     1      -4.832   2.546   0.011  0.00  0.00    -0.270 OA
ATOM     13  H   UNL     1      -4.368  -1.791  -6.276  0.00  0.00    -0.086 HD
ATOM     14  H   UNL     1      -3.212  -2.401  -5.275  0.00  0.00    -0.086 HD
ENDROOT
BRANCH  11  15
ATOM     15  C   UNL     1      -5.959   2.770  -2.021  0.00  0.00    +0.069 A 
ATOM     16  C   UNL     1      -6.994   2.177  -2.753  0.00  0.00    +0.017 A 
ATOM     17  C   UNL     1      -7.653   2.944  -3.697  0.00  0.00    +0.020 A 
ATOM     18  C   UNL     1      -7.276   4.262  -3.890  0.00  0.00    +0.112 A 
ATOM     19  N   UNL     1      -6.299   4.802  -3.190  0.00  0.00    -0.248 NA
ATOM     20  C   UNL     1      -5.637   4.115  -2.269  0.00  0.00    +0.114 A 
BRANCH  20  21
ATOM     21  S   UNL     1      -4.344   4.891  -1.358  0.00  0.00    -0.069 S 
BRANCH  21  22
ATOM     22  C   UNL     1      -4.200   6.485  -2.094  0.00  0.00    +0.014 A 
ATOM     23  C   UNL     1      -4.866   7.571  -1.539  0.00  0.00    +0.015 A 
ATOM     24  C   UNL     1      -4.751   8.819  -2.119  0.00  0.00    +0.001 A 
ATOM     25  C   UNL     1      -3.975   8.989  -3.250  0.00  0.00    +0.000 A 
ATOM     26  C   UNL     1      -3.311   7.911  -3.805  0.00  0.00    +0.001 A 
ATOM     27  C   UNL     1      -3.416   6.661  -3.228  0.00  0.00    +0.015 A 
ENDBRANCH  21  22
ENDBRANCH  20  21
ENDBRANCH  11  15
BRANCH   1  29
ATOM     28  N   UNL     1      -1.016  -1.495  -1.272  0.00  0.00    -0.312 N 
ATOM     29  C   UNL     1      -2.049  -0.642  -1.129  0.00  0.00    +0.218 C 
ATOM     30  O   UNL     1      -1.841   0.546  -1.001  0.00  0.00    -0.275 OA
ATOM     31  H   UNL     1      -1.182  -2.446  -1.374  0.00  0.00    +0.149 HD
BRANCH  28  33
ATOM     32  C   UNL     1       0.855  -0.859   0.169  0.00  0.00    +0.028 C 
ATOM     33  C   UNL     1       0.358  -0.988  -1.272  0.00  0.00    +0.074 C 
BRANCH  33  34
ATOM     34  C   UNL     1       1.260  -1.959  -2.037  0.00  0.00    +0.060 C 
BRANCH  34  35
ATOM     35  C   UNL     1       0.847  -1.993  -3.486  0.00  0.00    -0.010 A 
ATOM     36  C   UNL     1      -0.029  -2.964  -3.933  0.00  0.00    +0.006 A 
ATOM     37  C   UNL     1      -0.408  -2.996  -5.261  0.00  0.00    +0.000 A 
ATOM     38  C   UNL     1       0.089  -2.056  -6.145  0.00  0.00    +0.003 A 
ATOM     39  C   UNL     1       0.965  -1.083  -5.701  0.00  0.00    +0.038 A 
ATOM     40  C   UNL     1       1.341  -1.048  -4.369  0.00  0.00    +0.127 A 
ATOM     41  F   UNL     1       2.193  -0.095  -3.932  0.00  0.00    -0.205 F 
ENDBRANCH  34  35
ENDBRANCH  33  34
ENDBRANCH  28  33
ENDBRANCH   1  29
TORSDOF 7
