REMARK  Name = ZINC63710096
REMARK  5 active torsions:
REMARK  status: ('A' for Active; 'I' for Inactive)
REMARK    1  A    between atoms: C_6  and  N_7
REMARK    2  A    between atoms: C_8  and  C_10
REMARK    3  A    between atoms: C_10  and  S_11
REMARK    4  A    between atoms: S_11  and  C_12
REMARK    5  A    between atoms: N_22  and  C_23
REMARK                            x       y       z     vdW  Elec       q    Type
REMARK                         _______ _______ _______ _____ _____    ______ ____
ROOT
ATOM      1  C   UNL     1      -3.660  -5.117  -0.414  0.00  0.00    +0.261 C 
ATOM      2  N   UNL     1      -4.259  -4.668  -1.673  0.00  0.00    -0.230 NA
ATOM      3  C   UNL     1      -5.491  -4.276  -1.712  0.00  0.00    +0.186 C 
ATOM      4  C   UNL     1      -6.317  -4.275  -0.475  0.00  0.00    +0.103 C 
ATOM      5  C   UNL     1      -7.533  -3.814  -0.869  0.00  0.00    +0.151 C 
ATOM      6  N   UNL     1      -7.479  -3.556  -2.189  0.00  0.00    -0.155 NA
ATOM      7  N   UNL     1      -6.325  -3.811  -2.693  0.00  0.00    -0.129 NA
ATOM      8  C   UNL     1      -5.737  -4.720   0.795  0.00  0.00    +0.258 C 
ATOM      9  O   UNL     1      -6.405  -4.723   1.811  0.00  0.00    -0.269 OA
ATOM     10  N   UNL     1      -4.449  -5.127   0.820  0.00  0.00    -0.236 N 
ENDROOT
BRANCH  10  11
ATOM     11  C   UNL     1      -3.872  -5.557   2.020  0.00  0.00    +0.040 A 
ATOM     12  C   UNL     1      -3.662  -4.653   3.054  0.00  0.00    +0.025 A 
ATOM     13  C   UNL     1      -3.093  -5.080   4.237  0.00  0.00    +0.022 A 
ATOM     14  C   UNL     1      -2.731  -6.407   4.394  0.00  0.00    +0.041 A 
ATOM     15  C   UNL     1      -2.938  -7.309   3.365  0.00  0.00    +0.022 A 
ATOM     16  C   UNL     1      -3.512  -6.889   2.181  0.00  0.00    +0.025 A 
ATOM     17 CL   UNL     1      -2.014  -6.940   5.882  0.00  0.00    -0.084 Cl
ENDBRANCH  10  11
BRANCH   1  18
ATOM     18  S   UNL     1      -2.203  -4.079  -0.113  0.00  0.00    -0.105 S 
BRANCH  18  19
ATOM     19  C   UNL     1      -2.891  -2.420   0.141  0.00  0.00    +0.168 C 
BRANCH  19  21
ATOM     20  N   UNL     1      -2.047  -0.146   0.624  0.00  0.00    -0.285 N 
ATOM     21  C   UNL     1      -1.771  -1.447   0.405  0.00  0.00    +0.227 C 
ATOM     22  O   UNL     1      -0.622  -1.835   0.421  0.00  0.00    -0.275 OA
ATOM     23  H   UNL     1      -2.968   0.151   0.686  0.00  0.00    +0.155 HD
BRANCH  20  29
ATOM     24  C   UNL     1       0.177   0.603   0.051  0.00  0.00    +0.025 A 
ATOM     25  C   UNL     1       1.205   1.515   0.189  0.00  0.00    +0.022 A 
ATOM     26  C   UNL     1       1.059   2.602   1.034  0.00  0.00    +0.041 A 
ATOM     27  C   UNL     1      -0.116   2.777   1.742  0.00  0.00    +0.022 A 
ATOM     28  C   UNL     1      -1.147   1.868   1.609  0.00  0.00    +0.025 A 
ATOM     29  C   UNL     1      -1.003   0.777   0.762  0.00  0.00    +0.033 A 
ATOM     30 CL   UNL     1       2.354   3.746   1.205  0.00  0.00    -0.084 Cl
ENDBRANCH  20  29
ENDBRANCH  19  21
ENDBRANCH  18  19
ENDBRANCH   1  18
TORSDOF 5
