REMARK  Name = ZINC21222561
REMARK  8 active torsions:
REMARK  status: ('A' for Active; 'I' for Inactive)
REMARK    1  A    between atoms: C_1  and  C_2
REMARK    2  A    between atoms: C_2  and  C_3
REMARK    3  A    between atoms: C_2  and  O_4
REMARK    4  A    between atoms: O_4  and  C_5
REMARK    5  A    between atoms: C_8  and  C_13
REMARK    6  A    between atoms: C_10  and  O_11
REMARK    7  A    between atoms: O_11  and  C_12
REMARK    8  A    between atoms: C_18  and  C_28
REMARK                            x       y       z     vdW  Elec       q    Type
REMARK                         _______ _______ _______ _____ _____    ______ ____
ROOT
ATOM      1  C   UNL     1       5.824  -1.922  -3.034  0.00  0.00    +0.032 C 
ATOM      2  C   UNL     1       5.398  -2.053  -1.573  0.00  0.00    +0.059 C 
ATOM      3  C   UNL     1       3.933  -2.451  -1.491  0.00  0.00    +0.017 C 
ATOM      4  C   UNL     1       3.380  -3.217  -2.446  0.00  0.00    +0.037 C 
ATOM      5  C   UNL     1       1.945  -3.687  -2.486  0.00  0.00    +0.139 C 
ATOM      6  N   UNL     1       1.210  -3.471  -1.258  0.00  0.00    -0.331 N 
ATOM      7  C   UNL     1       0.952  -2.183  -0.793  0.00  0.00    +0.049 A 
ATOM      8  C   UNL     1      -0.336  -1.674  -0.753  0.00  0.00    +0.025 A 
ATOM      9  C   UNL     1      -0.539  -0.367  -0.345  0.00  0.00    +0.002 A 
ATOM     10  C   UNL     1       0.534   0.431   0.005  0.00  0.00    +0.002 A 
ATOM     11  C   UNL     1       1.822  -0.075  -0.030  0.00  0.00    +0.025 A 
ATOM     12  C   UNL     1       2.023  -1.390  -0.412  0.00  0.00    +0.052 A 
ATOM     13  N   UNL     1       3.280  -1.986  -0.396  0.00  0.00    -0.316 N 
ATOM     14  C   UNL     1       4.156  -3.658  -3.545  0.00  0.00    +0.163 C 
ATOM     15  O   UNL     1       3.636  -4.368  -4.383  0.00  0.00    -0.292 OA
ATOM     16  C   UNL     1       5.598  -3.280  -3.709  0.00  0.00    +0.088 C 
ATOM     17  H   UNL     1       0.845  -4.332  -0.678  0.00  0.00    +0.147 HD
ATOM     18  H   UNL     1       3.744  -2.067   0.598  0.00  0.00    +0.152 HD
ENDROOT
BRANCH   5  19
ATOM     19  C   UNL     1       1.236  -2.962  -3.601  0.00  0.00    +0.012 A 
ATOM     20  C   UNL     1       1.738  -1.765  -4.076  0.00  0.00    +0.008 A 
ATOM     21  C   UNL     1       1.091  -1.103  -5.103  0.00  0.00    +0.001 A 
ATOM     22  C   UNL     1      -0.065  -1.632  -5.648  0.00  0.00    +0.003 A 
ATOM     23  C   UNL     1      -0.571  -2.825  -5.170  0.00  0.00    +0.039 A 
ATOM     24  C   UNL     1       0.079  -3.492  -4.145  0.00  0.00    +0.129 A 
ATOM     25  F   UNL     1      -0.415  -4.659  -3.677  0.00  0.00    -0.205 F 
ENDBRANCH   5  19
BRANCH   1  29
ATOM     26  C   UNL     1       9.963  -0.871  -3.249  0.00  0.00    +0.162 A 
ATOM     27  C   UNL     1       9.573  -2.032  -2.600  0.00  0.00    +0.050 A 
ATOM     28  C   UNL     1       8.234  -2.369  -2.532  0.00  0.00    +0.008 A 
ATOM     29  C   UNL     1       7.282  -1.550  -3.111  0.00  0.00    -0.040 A 
ATOM     30  C   UNL     1       7.665  -0.394  -3.764  0.00  0.00    +0.053 A 
ATOM     31  C   UNL     1       9.005  -0.047  -3.831  0.00  0.00    +0.162 A 
BRANCH  31  32
ATOM     32  O   UNL     1       9.383   1.092  -4.470  0.00  0.00    -0.491 OA
ATOM     33  C   UNL     1       8.345   1.889  -5.044  0.00  0.00    +0.277 C 
ENDBRANCH  31  32
BRANCH  26  34
ATOM     34  O   UNL     1      11.280  -0.538  -3.317  0.00  0.00    -0.486 OA
BRANCH  34  36
ATOM     35  C   UNL     1      12.576  -2.573  -3.470  0.00  0.00    +0.051 C 
ATOM     36  C   UNL     1      12.197  -1.370  -2.603  0.00  0.00    +0.167 C 
ATOM     37  C   UNL     1      13.456  -0.569  -2.264  0.00  0.00    +0.051 C 
ENDBRANCH  34  36
ENDBRANCH  26  34
ENDBRANCH   1  29
TORSDOF 5
