REMARK  Name = ZINC12566331
REMARK  12 active torsions:
REMARK  status: ('A' for Active; 'I' for Inactive)
REMARK    1  A    between atoms: C_1  and  C_2
REMARK    2  A    between atoms: C_2  and  O_3
REMARK    3  A    between atoms: O_3  and  C_4
REMARK    4  A    between atoms: C_4  and  C_6
REMARK    5  A    between atoms: C_10  and  N_11
REMARK    6  A    between atoms: C_12  and  C_14
REMARK    7  A    between atoms: C_14  and  C_16
REMARK    8  A    between atoms: C_14  and  N_72
REMARK    9  A    between atoms: C_17  and  C_19
REMARK   10  A    between atoms: C_17  and  C_20
REMARK   11  A    between atoms: C_17  and  N_72
REMARK   12  A    between atoms: C_31  and  C_35
REMARK                            x       y       z     vdW  Elec       q    Type
REMARK                         _______ _______ _______ _____ _____    ______ ____
ROOT
ATOM      1  N   UNL     1      -2.307  -5.916   0.764  0.00  0.00    -0.281 N 
ATOM      2  C   UNL     1      -3.572  -6.203   0.398  0.00  0.00    +0.203 C 
ATOM      3  O   UNL     1      -4.300  -5.323  -0.011  0.00  0.00    -0.277 OA
ATOM      4  H   UNL     1      -1.725  -6.620   1.091  0.00  0.00    +0.155 HD
ENDROOT
BRANCH   1   9
ATOM      5  C   UNL     1      -0.579  -4.127   1.000  0.00  0.00    +0.091 A 
ATOM      6  C   UNL     1      -0.341  -2.706   0.810  0.00  0.00    -0.021 A 
ATOM      7  C   UNL     1      -1.390  -2.006   0.327  0.00  0.00    -0.004 A 
ATOM      8  S   UNL     1      -2.679  -3.203   0.126  0.00  0.00    -0.077 S 
ATOM      9  C   UNL     1      -1.838  -4.615   0.674  0.00  0.00    +0.086 A 
ATOM     10  C   UNL     1      -1.437  -0.538   0.030  0.00  0.00    +0.046 C 
ATOM     11  C   UNL     1       0.002  -0.004   0.002  0.00  0.00    -0.009 C 
ATOM     12  C   UNL     1       0.742  -0.514   1.242  0.00  0.00    +0.008 C 
ATOM     13  C   UNL     1       0.984  -2.020   1.120  0.00  0.00    +0.037 C 
ATOM     14  C   UNL     1      -0.019   1.526   0.010  0.00  0.00    +0.008 C 
BRANCH   5  15
ATOM     15  C   UNL     1       0.468  -5.010   1.516  0.00  0.00    +0.342 C 
ATOM     16  O   UNL     1       0.575  -5.191   2.715  0.00  0.00    -0.245 OA
BRANCH  15  17
ATOM     17  O   UNL     1       1.313  -5.625   0.664  0.00  0.00    -0.461 OA
BRANCH  17  19
ATOM     18  C   UNL     1       3.185  -7.090   0.132  0.00  0.00    +0.048 C 
ATOM     19  C   UNL     1       2.327  -6.486   1.246  0.00  0.00    +0.229 C 
ENDBRANCH  17  19
ENDBRANCH  15  17
ENDBRANCH   5  15
ENDBRANCH   1   9
BRANCH   2  20
ATOM     20  C   UNL     1      -4.082  -7.618   0.497  0.00  0.00    +0.014 C 
ATOM     21  C   UNL     1      -3.226  -8.531  -0.383  0.00  0.00    -0.004 C 
BRANCH  20  22
ATOM     22  N   UNL     1      -5.482  -7.660   0.035  0.00  0.00    +0.388 N 
ATOM     23  H   UNL     1      -5.499  -7.756  -0.987  0.00  0.00    -0.084 HD
ATOM     24  H   UNL     1      -5.955  -6.790   0.305  0.00  0.00    -0.084 HD
BRANCH  22  25
ATOM     25  C   UNL     1      -6.187  -8.805   0.642  0.00  0.00    -0.068 C 
ATOM     26  C   UNL     1      -6.719  -8.405   2.020  0.00  0.00    -0.013 C 
BRANCH  25  27
ATOM     27  C   UNL     1      -7.356  -9.210  -0.258  0.00  0.00    -0.041 C 
ATOM     28  C   UNL     1      -6.824  -9.611  -1.635  0.00  0.00    +0.009 C 
ATOM     29  C   UNL     1      -7.993 -10.016  -2.535  0.00  0.00    -0.010 C 
ATOM     30  C   UNL     1      -8.732 -11.201  -1.910  0.00  0.00    +0.007 C 
ATOM     31  C   UNL     1      -9.264 -10.800  -0.532  0.00  0.00    -0.010 C 
ATOM     32  C   UNL     1      -8.095 -10.395   0.368  0.00  0.00    +0.009 C 
ATOM     33  C   UNL     1     -10.226  -9.620  -0.680  0.00  0.00    +0.007 C 
ATOM     34  C   UNL     1      -9.488  -8.435  -1.306  0.00  0.00    -0.010 C 
ATOM     35  C   UNL     1      -8.956  -8.835  -2.683  0.00  0.00    +0.007 C 
ATOM     36  C   UNL     1      -8.319  -8.030  -0.406  0.00  0.00    +0.009 C 
ENDBRANCH  25  27
ENDBRANCH  22  25
ENDBRANCH  20  22
ENDBRANCH   2  20
TORSDOF 8
