REMARK  Name = ZINC05458082
REMARK  8 active torsions:
REMARK  status: ('A' for Active; 'I' for Inactive)
REMARK    1  A    between atoms: C_1  and  C_2
REMARK    2  A    between atoms: C_2  and  O_3
REMARK    3  A    between atoms: O_3  and  C_4
REMARK    4  A    between atoms: C_4  and  C_6
REMARK    5  A    between atoms: C_12  and  C_13
REMARK    6  A    between atoms: C_15  and  N_22
REMARK    7  A    between atoms: C_16  and  C_20
REMARK    8  A    between atoms: C_17  and  C_19
REMARK                            x       y       z     vdW  Elec       q    Type
REMARK                         _______ _______ _______ _____ _____    ______ ____
ROOT
ATOM      1  C   UNL     1      -1.226   3.692   0.024  0.00  0.00    +0.075 C 
ATOM      2  C   UNL     1       0.022   4.251  -0.051  0.00  0.00    +0.100 A 
ATOM      3  N   UNL     1       1.197   3.527  -0.064  0.00  0.00    -0.257 N 
ATOM      4  C   UNL     1       2.355   4.213  -0.141  0.00  0.00    +0.271 A 
ATOM      5  O   UNL     1       3.424   3.633  -0.156  0.00  0.00    -0.266 OA
ATOM      6  C   UNL     1       2.292   5.684  -0.206  0.00  0.00    +0.075 A 
ATOM      7  C   UNL     1       3.287   6.575  -0.286  0.00  0.00    -0.010 C 
ATOM      8  C   UNL     1       2.977   8.049  -0.342  0.00  0.00    +0.036 C 
ATOM      9  S   UNL     1       0.528   5.956  -0.149  0.00  0.00    -0.066 S 
ATOM     10  C   UNL     1       1.136   2.130   0.003  0.00  0.00    +0.118 C 
ATOM     11  C   UNL     1      -0.016   1.429   0.080  0.00  0.00    +0.075 C 
ATOM     12  C   UNL     1      -1.331   2.181   0.091  0.00  0.00    +0.069 C 
ATOM     13  C   UNL     1      -2.081   1.814   1.373  0.00  0.00    +0.018 C 
ENDROOT
BRANCH  10  14
ATOM     14  N   UNL     1       2.318   1.430  -0.012  0.00  0.00    -0.343 N 
ATOM     15  H   UNL     1       2.345   0.530  -0.372  0.00  0.00    +0.144 HD
ATOM     16  H   UNL     1       3.127   1.837   0.338  0.00  0.00    +0.144 HD
ENDBRANCH  10  14
BRANCH   1  17
ATOM     17  C   UNL     1      -2.375   4.495   0.032  0.00  0.00    +0.338 C 
ATOM     18  O   UNL     1      -2.272   5.707  -0.028  0.00  0.00    -0.245 OA
BRANCH  17  19
ATOM     19  O   UNL     1      -3.597   3.924   0.107  0.00  0.00    -0.462 OA
BRANCH  19  21
ATOM     20  C   UNL     1      -6.011   3.980   0.199  0.00  0.00    +0.048 C 
ATOM     21  C   UNL     1      -4.724   4.802   0.110  0.00  0.00    +0.229 C 
ENDBRANCH  19  21
ENDBRANCH  17  19
ENDBRANCH   1  17
BRANCH  11  22
ATOM     22  C   UNL     1       0.005  -0.001   0.143  0.00  0.00    +0.099 C 
ATOM     23  N   UNL     1       0.022  -1.136   0.194  0.00  0.00    -0.191 NA
ENDBRANCH  11  22
TORSDOF 5
