REMARK  Name = ZINC13155753
REMARK  5 active torsions:
REMARK  status: ('A' for Active; 'I' for Inactive)
REMARK    1  A    between atoms: C_1  and  C_2
REMARK    2  A    between atoms: C_2  and  C_4
REMARK    3  A    between atoms: C_2  and  O_16
REMARK    4  A    between atoms: O_16  and  C_17
REMARK    5  A    between atoms: C_17  and  C_19
REMARK                            x       y       z     vdW  Elec       q    Type
REMARK                         _______ _______ _______ _____ _____    ______ ____
ROOT
ATOM      1  C   UNL     1      -7.360   3.758  -1.380  0.00  0.00    +0.062 C 
ATOM      2  C   UNL     1      -6.894   3.734   0.077  0.00  0.00    +0.259 C 
ENDROOT
BRANCH   2   3
ATOM      3  C   UNL     1      -7.404   4.961   0.788  0.00  0.00    +0.260 C 
ATOM      4  O   UNL     1      -6.639   5.855   1.080  0.00  0.00    -0.271 OA
ATOM      5  N   UNL     1      -8.712   5.065   1.099  0.00  0.00    -0.268 N 
ATOM      6  C   UNL     1      -9.636   3.957   0.821  0.00  0.00    +0.114 C 
ATOM      7  C   UNL     1     -10.906   4.544   0.202  0.00  0.00    +0.024 C 
ATOM      8  C   UNL     1     -11.573   5.469   1.220  0.00  0.00    +0.038 C 
ATOM      9  C   UNL     1     -10.579   6.463   1.760  0.00  0.00    -0.026 A 
ATOM     10  C   UNL     1      -9.214   6.234   1.688  0.00  0.00    +0.040 A 
ATOM     11  C   UNL     1      -8.323   7.170   2.201  0.00  0.00    +0.024 A 
ATOM     12  C   UNL     1      -8.798   8.329   2.782  0.00  0.00    +0.002 A 
ATOM     13  C   UNL     1     -10.159   8.557   2.852  0.00  0.00    +0.000 A 
ATOM     14  C   UNL     1     -11.046   7.628   2.343  0.00  0.00    +0.005 A 
ENDBRANCH   2   3
BRANCH   2  15
ATOM     15  O   UNL     1      -5.443   3.718   0.121  0.00  0.00    -0.447 OA
BRANCH  15  16
ATOM     16  C   UNL     1      -4.844   2.510   0.124  0.00  0.00    +0.376 C 
ATOM     17  O   UNL     1      -5.516   1.498   0.091  0.00  0.00    -0.241 OA
BRANCH  16  18
ATOM     18  C   UNL     1      -3.379   2.417   0.168  0.00  0.00    +0.213 A 
ATOM     19  C   UNL     1      -2.669   1.258   0.175  0.00  0.00    +0.065 A 
ATOM     20  C   UNL     1      -1.260   1.647   0.223  0.00  0.00    +0.021 A 
ATOM     21  C   UNL     1      -0.055   0.940   0.251  0.00  0.00    +0.011 A 
ATOM     22  C   UNL     1       1.128   1.621   0.290  0.00  0.00    +0.001 A 
ATOM     23  C   UNL     1       1.141   3.010   0.308  0.00  0.00    +0.004 A 
ATOM     24  C   UNL     1      -0.036   3.725   0.287  0.00  0.00    +0.047 A 
ATOM     25  C   UNL     1      -1.254   3.054   0.247  0.00  0.00    +0.136 A 
ATOM     26  O   UNL     1      -2.535   3.469   0.218  0.00  0.00    -0.448 OA
ENDBRANCH  16  18
ENDBRANCH  15  16
ENDBRANCH   2  15
TORSDOF 4
