REMARK  Name = ZINC20881538
REMARK  8 active torsions:
REMARK  status: ('A' for Active; 'I' for Inactive)
REMARK    1  A    between atoms: C_1  and  C_2
REMARK    2  A    between atoms: C_2  and  O_3
REMARK    3  A    between atoms: O_3  and  C_4
REMARK    4  A    between atoms: C_7  and  C_10
REMARK    5  A    between atoms: C_15  and  C_25
REMARK    6  A    between atoms: C_28  and  C_31
REMARK    7  A    between atoms: C_31  and  C_32
REMARK    8  A    between atoms: C_31  and  C_33
REMARK                            x       y       z     vdW  Elec       q    Type
REMARK                         _______ _______ _______ _____ _____    ______ ____
ROOT
ATOM      1  C   UNL     1      -4.930   5.622  -1.454  0.00  0.00    +0.032 C 
ATOM      2  C   UNL     1      -4.237   4.328  -1.032  0.00  0.00    +0.059 C 
ATOM      3  C   UNL     1      -2.772   4.600  -0.731  0.00  0.00    +0.017 C 
ATOM      4  C   UNL     1      -2.103   5.545  -1.409  0.00  0.00    +0.036 C 
ATOM      5  C   UNL     1      -0.644   5.899  -1.233  0.00  0.00    +0.136 C 
ATOM      6  N   UNL     1      -0.025   5.313  -0.063  0.00  0.00    -0.331 N 
ATOM      7  C   UNL     1       0.118   3.933   0.061  0.00  0.00    +0.049 A 
ATOM      8  C   UNL     1       1.366   3.332   0.045  0.00  0.00    +0.025 A 
ATOM      9  C   UNL     1       1.458   1.952   0.109  0.00  0.00    +0.002 A 
ATOM     10  C   UNL     1       0.316   1.176   0.172  0.00  0.00    +0.002 A 
ATOM     11  C   UNL     1      -0.934   1.773   0.186  0.00  0.00    +0.025 A 
ATOM     12  C   UNL     1      -1.026   3.154   0.155  0.00  0.00    +0.052 A 
ATOM     13  N   UNL     1      -2.243   3.819   0.245  0.00  0.00    -0.316 N 
ATOM     14  C   UNL     1      -2.763   6.322  -2.391  0.00  0.00    +0.163 C 
ATOM     15  O   UNL     1      -2.128   7.161  -2.999  0.00  0.00    -0.292 OA
ATOM     16  C   UNL     1      -4.218   6.146  -2.707  0.00  0.00    +0.088 C 
ATOM     17  H   UNL     1       0.342   5.960   0.748  0.00  0.00    +0.147 HD
ATOM     18  H   UNL     1      -2.786   3.678   1.191  0.00  0.00    +0.152 HD
ENDROOT
BRANCH   1  22
ATOM     19  C   UNL     1      -9.037   4.843  -2.343  0.00  0.00    +0.121 A 
ATOM     20  C   UNL     1      -8.701   5.765  -1.363  0.00  0.00    +0.046 A 
ATOM     21  C   UNL     1      -7.373   6.016  -1.077  0.00  0.00    +0.007 A 
ATOM     22  C   UNL     1      -6.378   5.347  -1.768  0.00  0.00    -0.043 A 
ATOM     23  C   UNL     1      -6.710   4.431  -2.749  0.00  0.00    +0.007 A 
ATOM     24  C   UNL     1      -8.037   4.173  -3.034  0.00  0.00    +0.046 A 
BRANCH  19  25
ATOM     25  O   UNL     1     -10.343   4.594  -2.625  0.00  0.00    -0.492 OA
BRANCH  25  27
ATOM     26  C   UNL     1     -12.127   3.488  -3.821  0.00  0.00    +0.048 C 
ATOM     27  C   UNL     1     -10.614   3.632  -3.646  0.00  0.00    +0.225 C 
ENDBRANCH  25  27
ENDBRANCH  19  25
ENDBRANCH   1  22
BRANCH   5  28
ATOM     28  C   UNL     1       0.108   5.436  -2.454  0.00  0.00    -0.023 A 
ATOM     29  C   UNL     1       0.697   6.362  -3.295  0.00  0.00    +0.006 A 
ATOM     30  C   UNL     1       1.391   5.937  -4.413  0.00  0.00    +0.004 A 
ATOM     31  C   UNL     1       1.487   4.587  -4.694  0.00  0.00    -0.045 A 
ATOM     32  C   UNL     1       0.894   3.662  -3.857  0.00  0.00    +0.004 A 
ATOM     33  C   UNL     1       0.204   4.086  -2.736  0.00  0.00    +0.006 A 
BRANCH  31  34
ATOM     34  C   UNL     1       2.240   4.125  -5.915  0.00  0.00    +0.013 C 
ATOM     35  C   UNL     1       1.594   4.719  -7.168  0.00  0.00    +0.012 C 
ATOM     36  C   UNL     1       3.695   4.588  -5.823  0.00  0.00    +0.012 C 
ENDBRANCH  31  34
ENDBRANCH   5  28
TORSDOF 5
