REMARK  Name = ZINC15555620
REMARK  10 active torsions:
REMARK  status: ('A' for Active; 'I' for Inactive)
REMARK    1  A    between atoms: C_1  and  C_2
REMARK    2  A    between atoms: C_5  and  S_7
REMARK    3  A    between atoms: S_7  and  C_8
REMARK    4  A    between atoms: C_11  and  C_17
REMARK    5  A    between atoms: C_13  and  N_14
REMARK    6  A    between atoms: N_19  and  C_20
REMARK    7  A    between atoms: C_20  and  C_22
REMARK    8  A    between atoms: C_20  and  C_23
REMARK    9  A    between atoms: C_26  and  S_29
REMARK   10  A    between atoms: S_29  and  N_32
REMARK                            x       y       z     vdW  Elec       q    Type
REMARK                         _______ _______ _______ _____ _____    ______ ____
ROOT
ATOM      1  C   UNL     1      -4.893   0.031   1.820  0.00  0.00    +0.245 C 
ATOM      2  O   UNL     1      -5.157  -1.151   1.714  0.00  0.00    -0.270 OA
ATOM      3  N   UNL     1      -3.816   0.540   1.190  0.00  0.00    -0.305 N 
ATOM      4  H   UNL     1      -3.605   1.483   1.275  0.00  0.00    +0.150 HD
ENDROOT
BRANCH   1   8
ATOM      5  C   UNL     1      -7.359   2.558   4.171  0.00  0.00    +0.045 A 
ATOM      6  C   UNL     1      -6.244   3.080   3.519  0.00  0.00    +0.018 A 
ATOM      7  C   UNL     1      -5.446   2.267   2.765  0.00  0.00    +0.014 A 
ATOM      8  C   UNL     1      -5.752   0.908   2.638  0.00  0.00    +0.039 A 
ATOM      9  C   UNL     1      -6.870   0.382   3.292  0.00  0.00    +0.047 A 
ATOM     10  C   UNL     1      -7.667   1.205   4.054  0.00  0.00    +0.141 A 
BRANCH  10  11
ATOM     11  N   UNL     1      -8.852   0.653   4.749  0.00  0.00    +0.058 N 
ATOM     12  O   UNL     1      -9.121  -0.530   4.647  0.00  0.00    -0.126 OA
ATOM     13  O   UNL     1      -9.557   1.382   5.423  0.00  0.00    -0.126 OA
ENDBRANCH  10  11
BRANCH   5  14
ATOM     14  S   UNL     1      -8.379   3.612   5.147  0.00  0.00    -0.061 S 
BRANCH  14  19
ATOM     15  C   UNL     1     -13.139   5.411   3.875  0.00  0.00    +0.066 C 
ATOM     16  C   UNL     1     -11.872   4.669   3.534  0.00  0.00    +0.047 A 
ATOM     17  C   UNL     1     -11.702   4.114   2.310  0.00  0.00    +0.070 A 
ATOM     18  S   UNL     1     -10.071   3.406   2.489  0.00  0.00    -0.069 S 
ATOM     19  C   UNL     1      -9.791   3.898   4.131  0.00  0.00    +0.139 A 
ATOM     20  N   UNL     1     -10.903   4.546   4.421  0.00  0.00    -0.238 NA
ENDBRANCH  14  19
ENDBRANCH   5  14
ENDBRANCH   1   8
BRANCH   3  21
ATOM     21  C   UNL     1      -2.963  -0.331   0.378  0.00  0.00    +0.100 C 
ATOM     22  C   UNL     1      -3.548  -0.449  -1.030  0.00  0.00    +0.033 C 
BRANCH  21  23
ATOM     23  C   UNL     1      -1.577   0.255   0.299  0.00  0.00    -0.027 A 
ATOM     24  C   UNL     1      -0.472  -0.572   0.371  0.00  0.00    +0.007 A 
ATOM     25  C   UNL     1       0.800  -0.035   0.293  0.00  0.00    +0.029 A 
ATOM     26  C   UNL     1       0.966   1.330   0.147  0.00  0.00    +0.105 A 
ATOM     27  C   UNL     1      -0.139   2.157   0.080  0.00  0.00    +0.029 A 
ATOM     28  C   UNL     1      -1.411   1.620   0.159  0.00  0.00    +0.007 A 
BRANCH  26  29
ATOM     29  S   UNL     1       2.586   2.014   0.047  0.00  0.00    +0.056 S 
ATOM     30  O   UNL     1       2.481   3.369   0.461  0.00  0.00    -0.153 OA
ATOM     31  O   UNL     1       3.458   1.089   0.682  0.00  0.00    -0.153 OA
BRANCH  29  32
ATOM     32  N   UNL     1       3.009   2.039  -1.554  0.00  0.00    -0.204 NA
ATOM     33  H   UNL     1       2.390   1.709  -2.224  0.00  0.00    +0.144 HD
ATOM     34  H   UNL     1       3.875   2.385  -1.822  0.00  0.00    +0.144 HD
ENDBRANCH  29  32
ENDBRANCH  26  29
ENDBRANCH  21  23
ENDBRANCH   3  21
TORSDOF 8
