REMARK  Name = ZINC17961446
REMARK  11 active torsions:
REMARK  status: ('A' for Active; 'I' for Inactive)
REMARK    1  A    between atoms: C_1  and  C_2
REMARK    2  A    between atoms: C_2  and  C_3
REMARK    3  A    between atoms: C_3  and  N_4
REMARK    4  A    between atoms: C_8  and  S_28
REMARK    5  A    between atoms: C_12  and  C_13
REMARK    6  A    between atoms: C_13  and  C_14
REMARK    7  A    between atoms: C_14  and  C_15
REMARK    8  A    between atoms: N_17  and  C_18
REMARK    9  A    between atoms: C_18  and  C_20
REMARK   10  A    between atoms: C_18  and  C_21
REMARK   11  A    between atoms: S_28  and  N_31
REMARK                            x       y       z     vdW  Elec       q    Type
REMARK                         _______ _______ _______ _____ _____    ______ ____
ROOT
ATOM      1  N   UNL     1      -1.499   5.321  -4.672  0.00  0.00    -0.328 N 
ATOM      2  C   UNL     1      -1.599   4.316  -3.730  0.00  0.00    +0.069 A 
ATOM      3  C   UNL     1      -2.087   3.017  -3.751  0.00  0.00    +0.030 A 
ATOM      4  C   UNL     1      -2.039   2.251  -2.605  0.00  0.00    +0.030 A 
ATOM      5  C   UNL     1      -1.507   2.771  -1.433  0.00  0.00    +0.107 A 
ATOM      6  C   UNL     1      -1.027   4.049  -1.393  0.00  0.00    +0.058 A 
ATOM      7  C   UNL     1      -1.060   4.842  -2.544  0.00  0.00    +0.091 A 
ATOM      8  N   UNL     1      -0.667   6.113  -2.817  0.00  0.00    -0.232 NA
ATOM      9  C   UNL     1      -0.924   6.392  -4.061  0.00  0.00    +0.111 A 
ENDROOT
BRANCH   5  10
ATOM     10  S   UNL     1      -1.456   1.774   0.019  0.00  0.00    +0.056 S 
ATOM     11  O   UNL     1      -2.472   0.792  -0.128  0.00  0.00    -0.153 OA
ATOM     12  O   UNL     1      -1.413   2.667   1.123  0.00  0.00    -0.153 OA
BRANCH  10  13
ATOM     13  N   UNL     1      -0.011   0.966   0.007  0.00  0.00    -0.204 NA
ATOM     14  H   UNL     1       0.002  -0.004   0.002  0.00  0.00    +0.144 HD
ATOM     15  H   UNL     1       0.822   1.462   0.002  0.00  0.00    +0.144 HD
ENDBRANCH  10  13
ENDBRANCH   5  10
BRANCH   1  16
ATOM     16  C   UNL     1      -1.931   5.247  -6.069  0.00  0.00    +0.123 C 
BRANCH  16  18
ATOM     17  C   UNL     1      -3.839   5.628  -7.637  0.00  0.00    +0.005 C 
ATOM     18  C   UNL     1      -3.387   5.706  -6.177  0.00  0.00    +0.018 C 
ENDBRANCH  16  18
ENDBRANCH   1  16
BRANCH   9  19
ATOM     19  C   UNL     1      -0.627   7.710  -4.729  0.00  0.00    +0.083 C 
BRANCH  19  20
ATOM     20  C   UNL     1      -1.832   8.641  -4.578  0.00  0.00    +0.103 C 
BRANCH  20  21
ATOM     21  C   UNL     1      -1.535   9.959  -5.246  0.00  0.00    +0.214 C 
ATOM     22  O   UNL     1      -0.466  10.136  -5.789  0.00  0.00    -0.276 OA
ATOM     23  N   UNL     1      -2.458  10.941  -5.239  0.00  0.00    -0.309 N 
ATOM     24  H   UNL     1      -3.314  10.799  -4.804  0.00  0.00    +0.149 HD
BRANCH  23  25
ATOM     25  C   UNL     1      -2.170  12.222  -5.888  0.00  0.00    +0.100 C 
ATOM     26  C   UNL     1      -2.499  12.123  -7.379  0.00  0.00    +0.033 C 
BRANCH  25  27
ATOM     27  C   UNL     1      -3.009  13.304  -5.259  0.00  0.00    -0.027 A 
ATOM     28  C   UNL     1      -4.326  13.050  -4.923  0.00  0.00    +0.006 A 
ATOM     29  C   UNL     1      -5.094  14.040  -4.341  0.00  0.00    +0.015 A 
ATOM     30  C   UNL     1      -4.549  15.290  -4.106  0.00  0.00    +0.018 A 
ATOM     31  C   UNL     1      -3.234  15.546  -4.448  0.00  0.00    +0.015 A 
ATOM     32  C   UNL     1      -2.464  14.553  -5.025  0.00  0.00    +0.006 A 
ATOM     33 BR   UNL     1      -5.603  16.648  -3.318  0.00  0.00    -0.050 Br
ENDBRANCH  25  27
ENDBRANCH  23  25
ENDBRANCH  20  21
ENDBRANCH  19  20
ENDBRANCH   9  19
TORSDOF 9
