REMARK  Name = ZINC13123278
REMARK  4 active torsions:
REMARK  status: ('A' for Active; 'I' for Inactive)
REMARK    1  A    between atoms: C_1  and  C_2
REMARK    2  A    between atoms: C_4  and  C_21
REMARK    3  A    between atoms: C_10  and  N_12
REMARK    4  A    between atoms: C_13  and  C_15
REMARK                            x       y       z     vdW  Elec       q    Type
REMARK                         _______ _______ _______ _____ _____    ______ ____
ROOT
ATOM      1  C   UNL     1      -0.018   1.503   0.010  0.00  0.00    +0.065 C 
ATOM      2  C   UNL     1       0.002  -0.004   0.002  0.00  0.00    +0.040 C 
ATOM      3  C   UNL     1      -1.156  -0.668   0.004  0.00  0.00    +0.025 C 
ATOM      4  C   UNL     1      -1.093  -2.184  -0.005  0.00  0.00    +0.156 C 
ATOM      5  N   UNL     1       0.249  -2.780  -0.015  0.00  0.00    -0.180 N 
ATOM      6  C   UNL     1       1.332  -1.950  -0.016  0.00  0.00    +0.210 C 
ATOM      7  N   UNL     1       1.190  -0.643  -0.013  0.00  0.00    -0.222 NA
ATOM      8  N   UNL     1       2.443  -2.753  -0.026  0.00  0.00    -0.254 N 
ATOM      9  C   UNL     1       2.022  -4.070  -0.032  0.00  0.00    +0.241 C 
ATOM     10  N   UNL     1       0.714  -4.096  -0.025  0.00  0.00    -0.140 NA
ATOM     11  H   UNL     1       3.364  -2.451  -0.029  0.00  0.00    +0.158 HD
ENDROOT
BRANCH   4  12
ATOM     12  C   UNL     1      -1.829  -2.676  -1.225  0.00  0.00    -0.021 A 
ATOM     13  C   UNL     1      -1.206  -2.666  -2.459  0.00  0.00    +0.007 A 
ATOM     14  C   UNL     1      -1.881  -3.117  -3.578  0.00  0.00    +0.020 A 
ATOM     15  C   UNL     1      -3.179  -3.579  -3.463  0.00  0.00    +0.041 A 
ATOM     16  C   UNL     1      -3.803  -3.589  -2.227  0.00  0.00    +0.020 A 
ATOM     17  C   UNL     1      -3.125  -3.143  -1.108  0.00  0.00    +0.007 A 
ATOM     18 CL   UNL     1      -4.027  -4.145  -4.868  0.00  0.00    -0.084 Cl
ENDBRANCH   4  12
BRANCH   9  19
ATOM     19  N   UNL     1       2.835  -5.160  -0.042  0.00  0.00    -0.174 NA
ATOM     20  C   UNL     1       2.316  -6.365  -0.047  0.00  0.00    +0.280 C 
ATOM     21  O   UNL     1       0.973  -6.523  -0.040  0.00  0.00    -0.265 OA
BRANCH  20  22
ATOM     22  C   UNL     1       3.198  -7.548  -0.058  0.00  0.00    +0.041 A 
ATOM     23  C   UNL     1       4.586  -7.389  -0.059  0.00  0.00    +0.013 A 
ATOM     24  C   UNL     1       5.404  -8.499  -0.069  0.00  0.00    +0.001 A 
ATOM     25  C   UNL     1       4.854  -9.769  -0.079  0.00  0.00    +0.000 A 
ATOM     26  C   UNL     1       3.480  -9.934  -0.079  0.00  0.00    +0.001 A 
ATOM     27  C   UNL     1       2.649  -8.833  -0.063  0.00  0.00    +0.013 A 
ENDBRANCH  20  22
ENDBRANCH   9  19
TORSDOF 3
