REMARK  Name = ZINC16842462
REMARK  8 active torsions:
REMARK  status: ('A' for Active; 'I' for Inactive)
REMARK    1  A    between atoms: C_3  and  S_6
REMARK    2  A    between atoms: S_6  and  C_9
REMARK    3  A    between atoms: C_12  and  S_16
REMARK    4  A    between atoms: C_14  and  N_15
REMARK    5  A    between atoms: S_16  and  C_17
REMARK    6  A    between atoms: C_17  and  C_18
REMARK    7  A    between atoms: N_20  and  C_21
REMARK    8  A    between atoms: C_24  and  C_27
REMARK                            x       y       z     vdW  Elec       q    Type
REMARK                         _______ _______ _______ _____ _____    ______ ____
ROOT
ATOM      1  C   UNL     1      -2.686   4.454   1.851  0.00  0.00    +0.152 A 
ATOM      2  C   UNL     1      -2.658   5.748   2.334  0.00  0.00    +0.144 A 
ATOM      3  N   UNL     1      -2.916   5.968   3.615  0.00  0.00    -0.228 NA
ATOM      4  C   UNL     1      -3.190   4.964   4.436  0.00  0.00    +0.190 A 
ATOM      5  N   UNL     1      -3.221   3.709   4.013  0.00  0.00    -0.205 NA
ATOM      6  C   UNL     1      -2.977   3.417   2.740  0.00  0.00    +0.146 A 
ENDROOT
BRANCH   1   7
ATOM      7  S   UNL     1      -2.355   4.119   0.153  0.00  0.00    +0.036 S 
ATOM      8  O   UNL     1      -2.075   5.369  -0.461  0.00  0.00    -0.164 OA
ATOM      9  O   UNL     1      -3.394   3.263  -0.302  0.00  0.00    -0.164 OA
BRANCH   7  12
ATOM     10  C   UNL     1       0.578   1.314   0.058  0.00  0.00    +0.009 A 
ATOM     11  C   UNL     1      -0.701   1.835   0.118  0.00  0.00    +0.035 A 
ATOM     12  C   UNL     1      -0.865   3.181   0.088  0.00  0.00    +0.131 A 
ATOM     13  S   UNL     1       0.821   3.755  -0.042  0.00  0.00    -0.078 S 
ATOM     14  C   UNL     1       1.630   2.164  -0.040  0.00  0.00    +0.047 A 
ENDBRANCH   7  12
ENDBRANCH   1   7
BRANCH   6  15
ATOM     15  N   UNL     1      -3.010   2.104   2.301  0.00  0.00    -0.342 N 
ATOM     16  H   UNL     1      -2.831   1.899   1.370  0.00  0.00    +0.144 HD
ATOM     17  H   UNL     1      -3.213   1.389   2.925  0.00  0.00    +0.144 HD
ENDBRANCH   6  15
BRANCH   4  18
ATOM     18  S   UNL     1      -3.519   5.308   6.133  0.00  0.00    -0.077 S 
BRANCH  18  19
ATOM     19  C   UNL     1      -3.343   7.110   6.128  0.00  0.00    +0.173 C 
BRANCH  19  20
ATOM     20  C   UNL     1      -3.589   7.642   7.516  0.00  0.00    +0.227 C 
ATOM     21  O   UNL     1      -3.856   6.878   8.420  0.00  0.00    -0.275 OA
ATOM     22  N   UNL     1      -3.511   8.966   7.754  0.00  0.00    -0.285 N 
ATOM     23  H   UNL     1      -3.223   9.569   7.051  0.00  0.00    +0.155 HD
BRANCH  22  24
ATOM     24  C   UNL     1      -3.845   9.470   9.011  0.00  0.00    +0.033 A 
ATOM     25  C   UNL     1      -4.851   8.865   9.757  0.00  0.00    +0.024 A 
ATOM     26  C   UNL     1      -5.181   9.357  11.000  0.00  0.00    +0.020 A 
ATOM     27  C   UNL     1      -4.510  10.472  11.508  0.00  0.00    +0.052 A 
ATOM     28  C   UNL     1      -3.503  11.082  10.754  0.00  0.00    +0.020 A 
ATOM     29  C   UNL     1      -3.175  10.581   9.514  0.00  0.00    +0.024 A 
BRANCH  27  30
ATOM     30  C   UNL     1      -4.853  10.990  12.799  0.00  0.00    +0.099 C 
ATOM     31  N   UNL     1      -5.125  11.400  13.822  0.00  0.00    -0.191 NA
ENDBRANCH  27  30
ENDBRANCH  22  24
ENDBRANCH  19  20
ENDBRANCH  18  19
ENDBRANCH   4  18
TORSDOF 8
