REMARK  Name = ZINC13032054
REMARK  13 active torsions:
REMARK  status: ('A' for Active; 'I' for Inactive)
REMARK    1  A    between atoms: C_1  and  C_2
REMARK    2  A    between atoms: C_2  and  C_3
REMARK    3  A    between atoms: C_3  and  C_4
REMARK    4  A    between atoms: C_4  and  N_5
REMARK    5  A    between atoms: C_6  and  N_36
REMARK    6  A    between atoms: C_7  and  N_14
REMARK    7  A    between atoms: N_14  and  C_15
REMARK    8  A    between atoms: C_15  and  C_16
REMARK    9  A    between atoms: C_16  and  C_17
REMARK   10  A    between atoms: C_17  and  C_18
REMARK   11  A    between atoms: C_19  and  C_21
REMARK   12  A    between atoms: C_21  and  N_69
REMARK   13  A    between atoms: C_25  and  C_27
REMARK                            x       y       z     vdW  Elec       q    Type
REMARK                         _______ _______ _______ _____ _____    ______ ____
ROOT
ATOM      1  N   UNL     1      -1.643  -1.883   0.030  0.00  0.00    -0.266 N 
ATOM      2  C   UNL     1      -1.839  -2.603  -1.094  0.00  0.00    +0.203 C 
ATOM      3  O   UNL     1      -2.210  -3.756  -1.020  0.00  0.00    -0.277 OA
ENDROOT
BRANCH   1   6
ATOM      4  N   UNL     1      -2.877  -2.776   3.374  0.00  0.00    -0.280 N 
ATOM      5  C   UNL     1      -2.788  -2.156   2.149  0.00  0.00    +0.127 A 
ATOM      6  C   UNL     1      -1.762  -2.501   1.293  0.00  0.00    +0.140 A 
ATOM      7  C   UNL     1      -0.841  -3.484   1.699  0.00  0.00    +0.277 A 
ATOM      8  O   UNL     1       0.072  -3.812   0.959  0.00  0.00    -0.266 OA
ATOM      9  N   UNL     1      -0.970  -4.056   2.912  0.00  0.00    -0.273 N 
ATOM     10  H   UNL     1      -0.310  -4.749   3.204  0.00  0.00    +0.173 HD
ATOM     11  C   UNL     1      -1.976  -3.707   3.733  0.00  0.00    +0.331 A 
ATOM     12  O   UNL     1      -2.071  -4.243   4.821  0.00  0.00    -0.246 OA
BRANCH   5  13
ATOM     13  N   UNL     1      -3.709  -1.204   1.783  0.00  0.00    -0.343 N 
ATOM     14  H   UNL     1      -3.601  -0.720   0.949  0.00  0.00    +0.144 HD
ATOM     15  H   UNL     1      -4.467  -1.016   2.358  0.00  0.00    +0.144 HD
ENDBRANCH   5  13
BRANCH   4  16
ATOM     16  C   UNL     1      -3.961  -2.419   4.293  0.00  0.00    +0.128 C 
BRANCH  16  17
ATOM     17  C   UNL     1      -5.168  -3.321   4.033  0.00  0.00    +0.021 C 
BRANCH  17  19
ATOM     18  C   UNL     1      -7.508  -3.851   4.732  0.00  0.00    +0.004 C 
ATOM     19  C   UNL     1      -6.300  -2.949   4.993  0.00  0.00    -0.002 C 
ENDBRANCH  17  19
ENDBRANCH  16  17
ENDBRANCH   4  16
ENDBRANCH   1   6
BRANCH   1  20
ATOM     20  C   UNL     1      -1.308  -0.460  -0.060  0.00  0.00    +0.114 C 
BRANCH  20  21
ATOM     21  C   UNL     1       0.212  -0.290  -0.022  0.00  0.00    +0.019 C 
BRANCH  21  22
ATOM     22  C   UNL     1       0.562   1.196  -0.117  0.00  0.00    -0.002 C 
ATOM     23  C   UNL     1       2.082   1.365  -0.079  0.00  0.00    +0.004 C 
ENDBRANCH  21  22
ENDBRANCH  20  21
ENDBRANCH   1  20
BRANCH   2  24
ATOM     24  C   UNL     1      -1.595  -1.976  -2.443  0.00  0.00    +0.020 C 
BRANCH  24  29
ATOM     25  C   UNL     1      -0.933  -4.076  -3.469  0.00  0.00    -0.077 C 
ATOM     26  C   UNL     1      -0.714  -4.522  -4.926  0.00  0.00    -0.020 C 
ATOM     27  C   UNL     1      -1.581  -3.565  -5.776  0.00  0.00    -0.010 C 
ATOM     28  C   UNL     1      -1.759  -2.340  -4.845  0.00  0.00    -0.011 C 
ATOM     29  N   UNL     1      -1.889  -2.965  -3.523  0.00  0.00    +0.391 N 
ATOM     30  H   UNL     1      -2.844  -3.321  -3.402  0.00  0.00    -0.080 HD
BRANCH  28  31
ATOM     31  C   UNL     1      -3.004  -1.572  -5.207  0.00  0.00    +0.066 A 
ATOM     32  N   UNL     1      -3.096  -0.385  -5.737  0.00  0.00    -0.246 NA
ATOM     33  C   UNL     1      -4.283   0.194  -6.015  0.00  0.00    +0.078 A 
ATOM     34  C   UNL     1      -4.544   1.461  -6.583  0.00  0.00    +0.029 A 
ATOM     35  C   UNL     1      -5.822   1.879  -6.792  0.00  0.00    +0.002 A 
ATOM     36  C   UNL     1      -6.911   1.085  -6.458  0.00  0.00    +0.001 A 
ATOM     37  C   UNL     1      -6.697  -0.161  -5.900  0.00  0.00    +0.017 A 
ATOM     38  C   UNL     1      -5.410  -0.592  -5.685  0.00  0.00    +0.039 A 
ATOM     39  S   UNL     1      -4.660  -2.060  -5.027  0.00  0.00    -0.074 S 
ENDBRANCH  28  31
ENDBRANCH  24  29
ENDBRANCH   2  24
TORSDOF 11
