REMARK  Name = ZINC66925114
REMARK  7 active torsions:
REMARK  status: ('A' for Active; 'I' for Inactive)
REMARK    1  A    between atoms: C_1  and  C_2
REMARK    2  A    between atoms: C_8  and  C_27
REMARK    3  A    between atoms: C_8  and  C_28
REMARK    4  A    between atoms: C_10  and  N_12
REMARK    5  A    between atoms: N_15  and  N_16
REMARK    6  A    between atoms: C_17  and  C_19
REMARK    7  A    between atoms: C_19  and  C_20
REMARK                            x       y       z     vdW  Elec       q    Type
REMARK                         _______ _______ _______ _____ _____    ______ ____
ROOT
ATOM      1  N   UNL     1      -2.496  -3.308   0.956  0.00  0.00    -0.291 N 
ATOM      2  C   UNL     1      -3.661  -2.739   0.591  0.00  0.00    +0.316 C 
ATOM      3  O   UNL     1      -3.801  -2.309  -0.538  0.00  0.00    -0.251 OA
ATOM      4  N   UNL     1      -4.673  -2.646   1.477  0.00  0.00    -0.218 N 
ATOM      5  H   UNL     1      -2.384  -3.651   1.856  0.00  0.00    +0.151 HD
ATOM      6  H   UNL     1      -5.512  -2.236   1.214  0.00  0.00    +0.174 HD
ENDROOT
BRANCH   1  16
ATOM      7  C   UNL     1      -0.018   1.503   0.010  0.00  0.00    +0.086 C 
ATOM      8  C   UNL     1       0.002  -0.004   0.002  0.00  0.00    +0.103 A 
ATOM      9  C   UNL     1      -1.081  -0.806   0.003  0.00  0.00    +0.050 A 
ATOM     10  C   UNL     1      -0.602  -2.129  -0.007  0.00  0.00    +0.014 A 
ATOM     11  C   UNL     1       0.745  -2.064  -0.014  0.00  0.00    +0.111 A 
ATOM     12  O   UNL     1       1.104  -0.775  -0.013  0.00  0.00    -0.464 OA
ATOM     13  C   UNL     1       1.646  -3.276  -0.028  0.00  0.00    +0.081 C 
ATOM     14  C   UNL     1       0.815  -4.493  -0.450  0.00  0.00    -0.026 C 
ATOM     15  C   UNL     1      -0.462  -4.558   0.393  0.00  0.00    +0.034 C 
ATOM     16  C   UNL     1      -1.397  -3.409  -0.008  0.00  0.00    +0.109 C 
ATOM     17  C   UNL     1       0.444  -4.369  -1.929  0.00  0.00    +0.011 C 
ATOM     18  C   UNL     1       1.633  -5.768  -0.235  0.00  0.00    +0.011 C 
ENDBRANCH   1  16
BRANCH   4  19
ATOM     19  N   UNL     1      -4.512  -3.142   2.777  0.00  0.00    -0.233 N 
ATOM     20  C   UNL     1      -5.523  -3.049   3.664  0.00  0.00    +0.234 C 
ATOM     21  O   UNL     1      -6.572  -2.537   3.335  0.00  0.00    -0.274 OA
ATOM     22  H   UNL     1      -3.673  -3.551   3.040  0.00  0.00    +0.173 HD
BRANCH  20  23
ATOM     23  C   UNL     1      -5.350  -3.582   5.063  0.00  0.00    +0.135 C 
BRANCH  23  24
ATOM     24  C   UNL     1      -6.617  -3.357   5.846  0.00  0.00    -0.003 A 
ATOM     25  C   UNL     1      -6.749  -2.232   6.639  0.00  0.00    +0.007 A 
ATOM     26  C   UNL     1      -7.912  -2.025   7.358  0.00  0.00    +0.000 A 
ATOM     27  C   UNL     1      -8.944  -2.942   7.285  0.00  0.00    +0.003 A 
ATOM     28  C   UNL     1      -8.814  -4.067   6.492  0.00  0.00    +0.038 A 
ATOM     29  C   UNL     1      -7.652  -4.273   5.768  0.00  0.00    +0.127 A 
ATOM     30  F   UNL     1      -7.527  -5.370   4.989  0.00  0.00    -0.205 F 
ENDBRANCH  23  24
ENDBRANCH  20  23
ENDBRANCH   4  19
TORSDOF 4
