REMARK  Name = ZINC39675791
REMARK  11 active torsions:
REMARK  status: ('A' for Active; 'I' for Inactive)
REMARK    1  A    between atoms: C_1  and  C_2
REMARK    2  A    between atoms: C_2  and  C_3
REMARK    3  A    between atoms: C_3  and  C_5
REMARK    4  A    between atoms: C_3  and  C_11
REMARK    5  A    between atoms: C_15  and  C_24
REMARK    6  A    between atoms: N_26  and  C_27
REMARK    7  A    between atoms: C_27  and  C_28
REMARK    8  A    between atoms: C_28  and  C_30
REMARK    9  A    between atoms: C_28  and  N_36
REMARK   10  A    between atoms: N_36  and  C_37
REMARK   11  A    between atoms: N_36  and  C_38
REMARK                            x       y       z     vdW  Elec       q    Type
REMARK                         _______ _______ _______ _____ _____    ______ ____
ROOT
ATOM      1  C   UNL     1       2.390  -0.024  -1.055  0.00  0.00    +0.223 C 
ATOM      2  O   UNL     1       3.326  -0.745  -1.329  0.00  0.00    -0.275 OA
ATOM      3  N   UNL     1       2.573   1.307  -0.945  0.00  0.00    -0.300 N 
ATOM      4  C   UNL     1       1.546   2.349  -0.711  0.00  0.00    +0.121 C 
ATOM      5  C   UNL     1       2.216   3.345   0.263  0.00  0.00    +0.100 C 
ATOM      6  C   UNL     1       3.726   3.151   0.045  0.00  0.00    -0.004 C 
ATOM      7  C   UNL     1       3.849   2.058  -1.026  0.00  0.00    +0.115 C 
ATOM      8  C   UNL     1       4.391   2.690   1.339  0.00  0.00    -0.010 C 
ATOM      9  C   UNL     1       5.899   2.559   1.113  0.00  0.00    -0.082 C 
ATOM     10  N   UNL     1       6.447   3.854   0.692  0.00  0.00    +0.379 N 
ATOM     11  C   UNL     1       5.871   4.246  -0.599  0.00  0.00    -0.082 C 
ATOM     12  C   UNL     1       4.360   4.448  -0.446  0.00  0.00    -0.010 C 
ATOM     13  H   UNL     1       6.224   4.553   1.385  0.00  0.00    -0.086 HD
ATOM     14  H   UNL     1       7.450   3.780   0.603  0.00  0.00    -0.086 HD
ENDROOT
BRANCH   5  15
ATOM     15  C   UNL     1       1.812   4.758  -0.073  0.00  0.00    +0.218 C 
ATOM     16  O   UNL     1       1.483   5.042  -1.205  0.00  0.00    -0.275 OA
ATOM     17  N   UNL     1       1.817   5.705   0.886  0.00  0.00    -0.316 N 
ATOM     18  H   UNL     1       2.081   5.478   1.791  0.00  0.00    +0.149 HD
BRANCH  17  19
ATOM     19  C   UNL     1       1.425   7.079   0.560  0.00  0.00    +0.093 C 
BRANCH  19  20
ATOM     20  C   UNL     1       1.639   7.973   1.783  0.00  0.00    -0.021 C 
BRANCH  20  21
ATOM     21  C   UNL     1       3.106   8.013   2.126  0.00  0.00    -0.059 A 
ATOM     22  C   UNL     1       3.958   8.841   1.421  0.00  0.00    +0.002 A 
ATOM     23  C   UNL     1       5.304   8.878   1.736  0.00  0.00    +0.000 A 
ATOM     24  C   UNL     1       5.796   8.087   2.756  0.00  0.00    +0.000 A 
ATOM     25  C   UNL     1       4.944   7.259   3.462  0.00  0.00    +0.000 A 
ATOM     26  C   UNL     1       3.597   7.226   3.150  0.00  0.00    +0.002 A 
ENDBRANCH  20  21
BRANCH  20  27
ATOM     27  N   UNL     1       1.169   9.333   1.483  0.00  0.00    +0.382 N 
ATOM     28  C   UNL     1      -0.279   9.307   1.236  0.00  0.00    -0.096 C 
ATOM     29  C   UNL     1       1.456  10.213   2.623  0.00  0.00    -0.096 C 
ATOM     30  H   UNL     1       1.644   9.679   0.663  0.00  0.00    -0.082 HD
ENDBRANCH  20  27
ENDBRANCH  19  20
ENDBRANCH  17  19
ENDBRANCH   5  15
BRANCH   1  31
ATOM     31  C   UNL     1       1.021  -0.616  -0.837  0.00  0.00    +0.105 C 
BRANCH  31  32
ATOM     32  C   UNL     1       0.318  -0.757  -2.162  0.00  0.00    -0.036 A 
ATOM     33  C   UNL     1       0.865  -1.548  -3.155  0.00  0.00    +0.004 A 
ATOM     34  C   UNL     1       0.220  -1.677  -4.370  0.00  0.00    +0.000 A 
ATOM     35  C   UNL     1      -0.973  -1.015  -4.593  0.00  0.00    +0.000 A 
ATOM     36  C   UNL     1      -1.521  -0.224  -3.600  0.00  0.00    +0.000 A 
ATOM     37  C   UNL     1      -0.877  -0.099  -2.383  0.00  0.00    +0.004 A 
ENDBRANCH  31  32
BRANCH  31  39
ATOM     38  C   UNL     1       1.734  -1.835   1.225  0.00  0.00    +0.005 C 
ATOM     39  C   UNL     1       1.160  -1.993  -0.184  0.00  0.00    +0.014 C 
ENDBRANCH  31  39
ENDBRANCH   1  31
TORSDOF 8
