REMARK  Name = ZINC39725194
REMARK  4 active torsions:
REMARK  status: ('A' for Active; 'I' for Inactive)
REMARK    1  A    between atoms: C_9  and  C_12
REMARK    2  A    between atoms: N_14  and  C_15
REMARK    3  A    between atoms: N_14  and  C_22
REMARK    4  A    between atoms: C_15  and  C_16
REMARK                            x       y       z     vdW  Elec       q    Type
REMARK                         _______ _______ _______ _____ _____    ______ ____
ROOT
ATOM      1  C   UNL     1       0.206  -2.866   0.022  0.00  0.00    +0.246 C 
ATOM      2  O   UNL     1      -0.871  -2.316   0.143  0.00  0.00    -0.270 OA
ATOM      3  N   UNL     1       0.267  -4.205  -0.120  0.00  0.00    -0.268 N 
ENDROOT
BRANCH   1  12
ATOM      4  C   UNL     1       2.154  -1.652  -3.566  0.00  0.00    +0.001 A 
ATOM      5  C   UNL     1       3.331  -0.895  -3.503  0.00  0.00    +0.002 A 
ATOM      6  C   UNL     1       3.898  -0.517  -2.332  0.00  0.00    +0.024 A 
ATOM      7  C   UNL     1       3.309  -0.883  -1.102  0.00  0.00    +0.041 A 
ATOM      8  N   UNL     1       3.869  -0.510   0.040  0.00  0.00    -0.285 N 
ATOM      9  C   UNL     1       3.370  -0.818   1.231  0.00  0.00    +0.222 C 
ATOM     10  O   UNL     1       3.934  -0.444   2.241  0.00  0.00    -0.275 OA
ATOM     11  C   UNL     1       2.101  -1.633   1.330  0.00  0.00    +0.137 C 
ATOM     12  C   UNL     1       1.448  -2.067   0.032  0.00  0.00    +0.032 C 
ATOM     13  C   UNL     1       2.066  -1.682  -1.140  0.00  0.00    +0.005 A 
ATOM     14  C   UNL     1       1.510  -2.053  -2.442  0.00  0.00    +0.010 A 
ATOM     15  H   UNL     1       4.685   0.014   0.003  0.00  0.00    +0.155 HD
ENDBRANCH   1  12
BRANCH   3  16
ATOM     16  C   UNL     1      -0.967  -4.984  -0.251  0.00  0.00    +0.227 C 
ATOM     17  N   UNL     1      -2.145  -4.168   0.071  0.00  0.00    -0.316 N 
ATOM     18  C   UNL     1      -3.084  -3.965  -0.940  0.00  0.00    +0.043 A 
ATOM     19  C   UNL     1      -4.268  -3.216  -0.819  0.00  0.00    +0.024 A 
ATOM     20  C   UNL     1      -5.133  -3.076  -1.879  0.00  0.00    +0.002 A 
ATOM     21  C   UNL     1      -4.868  -3.666  -3.100  0.00  0.00    +0.001 A 
ATOM     22  C   UNL     1      -3.709  -4.410  -3.249  0.00  0.00    +0.016 A 
ATOM     23  C   UNL     1      -2.844  -4.550  -2.187  0.00  0.00    +0.032 A 
ATOM     24  S   UNL     1      -1.296  -5.411  -2.007  0.00  0.00    -0.081 S 
ATOM     25  H   UNL     1      -2.265  -3.784   0.953  0.00  0.00    +0.149 HD
ENDBRANCH   3  16
BRANCH   3  26
ATOM     26  C   UNL     1       1.566  -4.881  -0.144  0.00  0.00    +0.142 C 
BRANCH  26  27
ATOM     27  C   UNL     1       1.930  -5.336   1.271  0.00  0.00    +0.136 C 
ATOM     28  C   UNL     1       3.318  -6.012   1.263  0.00  0.00    +0.035 C 
ATOM     29  C   UNL     1       3.116  -7.191   2.254  0.00  0.00    +0.031 C 
ATOM     30  C   UNL     1       1.637  -7.557   1.978  0.00  0.00    +0.160 C 
ATOM     31  O   UNL     1       0.979  -6.303   1.730  0.00  0.00    -0.375 OA
ENDBRANCH  26  27
ENDBRANCH   3  26
TORSDOF 4
