REMARK  Name = ZINC12450931
REMARK  9 active torsions:
REMARK  status: ('A' for Active; 'I' for Inactive)
REMARK    1  A    between atoms: C_1  and  C_2
REMARK    2  A    between atoms: C_2  and  C_4
REMARK    3  A    between atoms: C_2  and  C_29
REMARK    4  A    between atoms: C_4  and  N_64
REMARK    5  A    between atoms: C_7  and  C_10
REMARK    6  A    between atoms: C_7  and  O_28
REMARK    7  A    between atoms: C_17  and  C_19
REMARK    8  A    between atoms: N_21  and  C_22
REMARK    9  A    between atoms: C_22  and  C_23
REMARK                            x       y       z     vdW  Elec       q    Type
REMARK                         _______ _______ _______ _____ _____    ______ ____
ROOT
ATOM      1  C   UNL     1      -0.184   1.445  -0.042  0.00  0.00    -0.015 A 
ATOM      2  C   UNL     1       0.985   2.194  -0.006  0.00  0.00    +0.010 A 
ATOM      3  C   UNL     1       0.938   3.571   0.002  0.00  0.00    +0.047 A 
ATOM      4  C   UNL     1      -0.290   4.223  -0.026  0.00  0.00    +0.136 A 
ATOM      5  C   UNL     1      -1.471   3.458  -0.062  0.00  0.00    +0.021 A 
ATOM      6  C   UNL     1      -1.402   2.063  -0.075  0.00  0.00    +0.018 A 
ATOM      7  C   UNL     1      -2.568   4.425  -0.085  0.00  0.00    +0.063 A 
ATOM      8  C   UNL     1      -1.988   5.652  -0.061  0.00  0.00    +0.190 A 
ATOM      9  O   UNL     1      -0.646   5.522  -0.026  0.00  0.00    -0.450 OA
ENDROOT
BRANCH   1  12
ATOM     10  C   UNL     1       1.288  -2.030  -0.689  0.00  0.00    -0.076 C 
ATOM     11  C   UNL     1       1.187  -0.503  -0.738  0.00  0.00    +0.021 C 
ATOM     12  C   UNL     1      -0.107  -0.060  -0.050  0.00  0.00    +0.088 C 
ATOM     13  C   UNL     1      -0.117  -0.581   1.390  0.00  0.00    +0.021 C 
ATOM     14  C   UNL     1       0.024  -2.105   1.377  0.00  0.00    -0.076 C 
ATOM     15  N   UNL     1       1.300  -2.465   0.724  0.00  0.00    +0.380 N 
ATOM     16  H   UNL     1       2.069  -1.990   1.212  0.00  0.00    -0.082 HD
BRANCH  12  17
ATOM     17  O   UNL     1      -1.230  -0.591  -0.757  0.00  0.00    -0.384 OA
ATOM     18  H   UNL     1      -2.085  -0.351  -0.374  0.00  0.00    +0.211 HD
ENDBRANCH  12  17
BRANCH  15  19
ATOM     19  C   UNL     1       1.512  -3.925   0.800  0.00  0.00    -0.071 C 
BRANCH  19  21
ATOM     20  C   UNL     1       1.595  -5.884   2.349  0.00  0.00    +0.010 C 
ATOM     21  C   UNL     1       1.403  -4.369   2.260  0.00  0.00    -0.001 C 
BRANCH  21  22
ATOM     22  C   UNL     1       2.467  -3.679   3.076  0.00  0.00    -0.046 A 
ATOM     23  C   UNL     1       3.802  -3.870   2.772  0.00  0.00    +0.004 A 
ATOM     24  C   UNL     1       4.777  -3.234   3.517  0.00  0.00    +0.000 A 
ATOM     25  C   UNL     1       4.418  -2.415   4.572  0.00  0.00    +0.000 A 
ATOM     26  C   UNL     1       3.083  -2.228   4.878  0.00  0.00    +0.000 A 
ATOM     27  C   UNL     1       2.107  -2.861   4.130  0.00  0.00    +0.004 A 
ENDBRANCH  21  22
ENDBRANCH  19  21
ENDBRANCH  15  19
ENDBRANCH   1  12
BRANCH   8  28
ATOM     28  C   UNL     1      -2.714   6.931  -0.070  0.00  0.00    +0.280 C 
ATOM     29  O   UNL     1      -3.930   6.940  -0.102  0.00  0.00    -0.267 OA
ATOM     30  N   UNL     1      -2.032   8.093  -0.043  0.00  0.00    -0.304 N 
ATOM     31  H   UNL     1      -1.062   8.086  -0.018  0.00  0.00    +0.149 HD
BRANCH  30  32
ATOM     32  C   UNL     1      -2.755   9.367  -0.053  0.00  0.00    +0.147 C 
BRANCH  32  33
ATOM     33  C   UNL     1      -1.768  10.505  -0.019  0.00  0.00    +0.007 A 
ATOM     34  C   UNL     1      -1.177  11.154  -1.052  0.00  0.00    +0.013 A 
ATOM     35  C   UNL     1      -0.296  12.184  -0.780  0.00  0.00    +0.008 A 
ATOM     36  C   UNL     1      -0.040  12.507   0.511  0.00  0.00    +0.045 A 
ATOM     37  S   UNL     1      -1.067  11.343   1.393  0.00  0.00    -0.100 S 
ENDBRANCH  32  33
ENDBRANCH  30  32
ENDBRANCH   8  28
TORSDOF 8
