REMARK  Name = ZINC13790121
REMARK  5 active torsions:
REMARK  status: ('A' for Active; 'I' for Inactive)
REMARK    1  A    between atoms: C_1  and  S_2
REMARK    2  A    between atoms: S_2  and  N_5
REMARK    3  A    between atoms: C_9  and  C_12
REMARK    4  A    between atoms: N_14  and  C_15
REMARK    5  A    between atoms: C_16  and  C_24
REMARK                            x       y       z     vdW  Elec       q    Type
REMARK                         _______ _______ _______ _____ _____    ______ ____
ROOT
ATOM      1  C   UNL     1      -0.022   1.780   0.012  0.00  0.00    +0.082 A 
ATOM      2  C   UNL     1       1.327   2.093   0.001  0.00  0.00    +0.039 A 
ATOM      3  C   UNL     1       2.280   0.999  -0.014  0.00  0.00    -0.026 A 
ATOM      4  C   UNL     1       1.757  -0.249  -0.016  0.00  0.00    -0.005 A 
ATOM      5  S   UNL     1       0.002  -0.004   0.002  0.00  0.00    -0.077 S 
ATOM      6  C   UNL     1       2.505  -1.546  -0.032  0.00  0.00    +0.043 C 
ATOM      7  C   UNL     1       3.963  -1.260  -0.420  0.00  0.00    +0.005 C 
ATOM      8  C   UNL     1       4.473  -0.085   0.420  0.00  0.00    +0.005 C 
ATOM      9  C   UNL     1       3.791   1.209  -0.028  0.00  0.00    +0.037 C 
ENDROOT
BRANCH   2  10
ATOM     10  C   UNL     1       1.781   3.494   0.004  0.00  0.00    +0.112 A 
ATOM     11  N   UNL     1       1.059   4.597   0.018  0.00  0.00    -0.239 NA
ATOM     12  C   UNL     1       1.615   5.825   0.019  0.00  0.00    +0.079 A 
ATOM     13  C   UNL     1       0.961   7.080   0.034  0.00  0.00    +0.029 A 
ATOM     14  C   UNL     1       1.682   8.245   0.034  0.00  0.00    +0.002 A 
ATOM     15  C   UNL     1       3.070   8.240   0.020  0.00  0.00    +0.001 A 
ATOM     16  C   UNL     1       3.742   7.032   0.005  0.00  0.00    +0.017 A 
ATOM     17  C   UNL     1       3.029   5.859   0.005  0.00  0.00    +0.040 A 
ATOM     18  S   UNL     1       3.450   4.133  -0.001  0.00  0.00    -0.067 S 
ENDBRANCH   2  10
BRANCH   1  21
ATOM     19  C   UNL     1      -2.367   2.134   0.026  0.00  0.00    +0.222 C 
ATOM     20  O   UNL     1      -2.537   0.933   0.021  0.00  0.00    -0.275 OA
ATOM     21  N   UNL     1      -1.117   2.637   0.022  0.00  0.00    -0.279 N 
ATOM     22  H   UNL     1      -0.980   3.598   0.026  0.00  0.00    +0.155 HD
BRANCH  19  27
ATOM     23  N   UNL     1      -5.987   3.156   0.182  0.00  0.00    -0.181 NA
ATOM     24  C   UNL     1      -5.998   4.103   1.305  0.00  0.00    +0.109 C 
ATOM     25  C   UNL     1      -4.693   4.904   1.288  0.00  0.00    +0.018 C 
ATOM     26  C   UNL     1      -3.506   3.937   1.293  0.00  0.00    +0.015 C 
ATOM     27  C   UNL     1      -3.553   3.063   0.037  0.00  0.00    +0.091 C 
ATOM     28  C   UNL     1      -4.846   2.242   0.040  0.00  0.00    +0.121 C 
BRANCH  23  30
ATOM     29  C   UNL     1      -8.416   1.925  -0.218  0.00  0.00    +0.215 C 
ATOM     30  S   UNL     1      -7.237   3.120  -0.904  0.00  0.00    +0.029 S 
ATOM     31  O   UNL     1      -7.789   4.429  -0.865  0.00  0.00    -0.158 OA
ATOM     32  O   UNL     1      -6.664   2.611  -2.100  0.00  0.00    -0.158 OA
ENDBRANCH  23  30
ENDBRANCH  19  27
ENDBRANCH   1  21
TORSDOF 4
