REMARK  Name = ZINC36420514
REMARK  9 active torsions:
REMARK  status: ('A' for Active; 'I' for Inactive)
REMARK    1  A    between atoms: C_1  and  C_2
REMARK    2  A    between atoms: C_2  and  C_3
REMARK    3  A    between atoms: C_4  and  C_26
REMARK    4  A    between atoms: C_5  and  C_10
REMARK    5  A    between atoms: C_10  and  N_11
REMARK    6  A    between atoms: C_19  and  C_20
REMARK    7  A    between atoms: C_26  and  O_28
REMARK    8  A    between atoms: O_28  and  C_29
REMARK    9  A    between atoms: C_29  and  C_30
REMARK                            x       y       z     vdW  Elec       q    Type
REMARK                         _______ _______ _______ _____ _____    ______ ____
ROOT
ATOM      1  C   UNL     1      -1.480  -0.512   0.013  0.00  0.00    +0.113 C 
ATOM      2  C   UNL     1      -1.304  -1.990  -0.269  0.00  0.00    +0.075 C 
ATOM      3  C   UNL     1      -1.800  -2.865   0.633  0.00  0.00    +0.038 C 
ATOM      4  N   UNL     1      -2.437  -2.431   1.760  0.00  0.00    -0.271 N 
ATOM      5  C   UNL     1      -2.621  -1.139   2.058  0.00  0.00    +0.304 C 
ATOM      6  O   UNL     1      -3.201  -0.850   3.086  0.00  0.00    -0.253 OA
ATOM      7  N   UNL     1      -2.182  -0.148   1.256  0.00  0.00    -0.292 N 
ATOM      8  H   UNL     1      -2.777  -3.097   2.378  0.00  0.00    +0.156 HD
ATOM      9  H   UNL     1      -2.325   0.781   1.492  0.00  0.00    +0.151 HD
ENDROOT
BRANCH   1  11
ATOM     10  C   UNL     1      -0.233   1.653   0.027  0.00  0.00    +0.006 C 
ATOM     11  C   UNL     1      -0.092   0.130   0.051  0.00  0.00    +0.024 C 
ENDBRANCH   1  11
BRANCH   2  12
ATOM     12  C   UNL     1      -0.644  -2.438  -1.437  0.00  0.00    +0.338 C 
ATOM     13  O   UNL     1       0.572  -2.458  -1.478  0.00  0.00    -0.245 OA
BRANCH  12  14
ATOM     14  O   UNL     1      -1.362  -2.844  -2.505  0.00  0.00    -0.462 OA
BRANCH  14  15
ATOM     15  C   UNL     1      -0.630  -3.283  -3.650  0.00  0.00    +0.229 C 
ATOM     16  C   UNL     1      -1.607  -3.700  -4.751  0.00  0.00    +0.048 C 
ENDBRANCH  14  15
ENDBRANCH  12  14
ENDBRANCH   2  12
BRANCH   3  17
ATOM     17  C   UNL     1      -1.647  -4.345   0.391  0.00  0.00    +0.136 C 
BRANCH  17  18
ATOM     18  N   UNL     1      -0.797  -4.927   1.438  0.00  0.00    -0.286 NA
ATOM     19  C   UNL     1       0.569  -4.389   1.368  0.00  0.00    +0.091 C 
ATOM     20  C   UNL     1       1.290  -4.692   2.692  0.00  0.00    +0.058 C 
ATOM     21  C   UNL     1       1.034  -6.124   3.032  0.00  0.00    -0.004 A 
ATOM     22  C   UNL     1       0.099  -6.940   2.468  0.00  0.00    -0.016 A 
ATOM     23  C   UNL     1       0.045  -8.247   2.945  0.00  0.00    +0.013 A 
ATOM     24  C   UNL     1       0.894  -8.647   3.921  0.00  0.00    +0.046 A 
ATOM     25  S   UNL     1       1.837  -7.160   4.223  0.00  0.00    -0.101 S 
ATOM     26  C   UNL     1      -0.816  -6.394   1.376  0.00  0.00    +0.118 C 
BRANCH  26  27
ATOM     27  C   UNL     1      -2.221  -6.891   1.599  0.00  0.00    -0.026 A 
ATOM     28  C   UNL     1      -3.028  -6.285   2.543  0.00  0.00    +0.005 A 
ATOM     29  C   UNL     1      -4.317  -6.741   2.747  0.00  0.00    +0.000 A 
ATOM     30  C   UNL     1      -4.799  -7.803   2.006  0.00  0.00    +0.000 A 
ATOM     31  C   UNL     1      -3.993  -8.409   1.061  0.00  0.00    +0.000 A 
ATOM     32  C   UNL     1      -2.705  -7.950   0.854  0.00  0.00    +0.005 A 
ENDBRANCH  26  27
ENDBRANCH  17  18
ENDBRANCH   3  17
TORSDOF 7
