REMARK  Name = ZINC35543669
REMARK  3 active torsions:
REMARK  status: ('A' for Active; 'I' for Inactive)
REMARK    1  A    between atoms: C_6  and  N_7
REMARK    2  A    between atoms: C_11  and  C_19
REMARK    3  A    between atoms: N_21  and  C_22
REMARK                            x       y       z     vdW  Elec       q    Type
REMARK                         _______ _______ _______ _____ _____    ______ ____
ROOT
ATOM      1  C   UNL     1      -0.017   1.378   0.010  0.00  0.00    +0.034 A 
ATOM      2  C   UNL     1       1.174   2.081   0.002  0.00  0.00    +0.025 A 
ATOM      3  C   UNL     1       2.377   1.397  -0.016  0.00  0.00    +0.033 A 
ATOM      4  C   UNL     1       2.402   0.005  -0.033  0.00  0.00    -0.023 A 
ATOM      5  C   UNL     1       1.203  -0.687  -0.018  0.00  0.00    +0.038 A 
ATOM      6  C   UNL     1       0.002  -0.004   0.002  0.00  0.00    +0.127 A 
ATOM      7  C   UNL     1       3.693  -0.764  -0.081  0.00  0.00    +0.051 C 
ATOM      8  C   UNL     1       4.886   0.080   0.370  0.00  0.00    +0.100 C 
ATOM      9  C   UNL     1       4.862   1.413  -0.382  0.00  0.00    +0.086 C 
ATOM     10  N   UNL     1       3.595   2.078  -0.008  0.00  0.00    -0.326 N 
ATOM     11  C   UNL     1       3.875   3.450   0.418  0.00  0.00    +0.105 C 
ATOM     12  C   UNL     1       5.328   3.744  -0.030  0.00  0.00    +0.021 C 
ATOM     13  C   UNL     1       6.000   2.338   0.082  0.00  0.00    +0.025 C 
ENDROOT
BRANCH   8  14
ATOM     14  C   UNL     1       4.793   0.333   1.853  0.00  0.00    +0.218 C 
ATOM     15  O   UNL     1       4.725   1.469   2.272  0.00  0.00    -0.275 OA
ATOM     16  N   UNL     1       4.785  -0.704   2.714  0.00  0.00    -0.312 N 
ATOM     17  H   UNL     1       4.839  -1.613   2.379  0.00  0.00    +0.149 HD
BRANCH  16  18
ATOM     18  C   UNL     1       4.695  -0.459   4.155  0.00  0.00    +0.073 C 
ATOM     19  C   UNL     1       5.614  -1.272   5.069  0.00  0.00    +0.024 C 
ATOM     20  C   UNL     1       4.114  -1.574   5.027  0.00  0.00    +0.024 C 
ENDBRANCH  16  18
ENDBRANCH   8  14
BRANCH   6  21
ATOM     21  N   UNL     1      -1.272  -0.757   0.016  0.00  0.00    +0.056 N 
ATOM     22  O   UNL     1      -2.325  -0.163   0.034  0.00  0.00    -0.126 OA
ATOM     23  O   UNL     1      -1.260  -1.966   0.009  0.00  0.00    -0.126 OA
ENDBRANCH   6  21
TORSDOF 3
