REMARK  Name = ZINC21255016
REMARK  11 active torsions:
REMARK  status: ('A' for Active; 'I' for Inactive)
REMARK    1  A    between atoms: C_1  and  C_2
REMARK    2  A    between atoms: C_2  and  C_3
REMARK    3  A    between atoms: C_2  and  C_4
REMARK    4  A    between atoms: C_4  and  O_5
REMARK    5  A    between atoms: O_5  and  C_6
REMARK    6  A    between atoms: C_9  and  C_12
REMARK    7  A    between atoms: C_17  and  C_27
REMARK    8  A    between atoms: C_29  and  N_36
REMARK    9  A    between atoms: C_30  and  O_35
REMARK   10  A    between atoms: C_31  and  O_33
REMARK   11  A    between atoms: O_33  and  C_34
REMARK                            x       y       z     vdW  Elec       q    Type
REMARK                         _______ _______ _______ _____ _____    ______ ____
ROOT
ATOM      1  C   UNL     1       5.180   7.626  -0.171  0.00  0.00    +0.032 C 
ATOM      2  C   UNL     1       5.030   6.952  -1.534  0.00  0.00    +0.059 C 
ATOM      3  C   UNL     1       5.293   5.459  -1.403  0.00  0.00    +0.017 C 
ATOM      4  C   UNL     1       4.948   4.808  -0.282  0.00  0.00    +0.036 C 
ATOM      5  C   UNL     1       5.106   3.326  -0.034  0.00  0.00    +0.136 C 
ATOM      6  N   UNL     1       5.919   2.641  -1.016  0.00  0.00    -0.331 N 
ATOM      7  C   UNL     1       5.517   2.553  -2.346  0.00  0.00    +0.049 A 
ATOM      8  C   UNL     1       5.190   1.335  -2.922  0.00  0.00    +0.025 A 
ATOM      9  C   UNL     1       4.750   1.297  -4.233  0.00  0.00    +0.002 A 
ATOM     10  C   UNL     1       4.632   2.464  -4.967  0.00  0.00    +0.002 A 
ATOM     11  C   UNL     1       4.974   3.680  -4.402  0.00  0.00    +0.025 A 
ATOM     12  C   UNL     1       5.436   3.716  -3.098  0.00  0.00    +0.052 A 
ATOM     13  N   UNL     1       5.870   4.892  -2.494  0.00  0.00    -0.316 N 
ATOM     14  C   UNL     1       4.384   5.511   0.808  0.00  0.00    +0.163 C 
ATOM     15  O   UNL     1       4.071   4.891   1.806  0.00  0.00    -0.292 OA
ATOM     16  C   UNL     1       4.156   6.992   0.778  0.00  0.00    +0.088 C 
ATOM     17  H   UNL     1       6.872   2.179  -0.717  0.00  0.00    +0.147 HD
ATOM     18  H   UNL     1       6.745   5.366  -2.962  0.00  0.00    +0.152 HD
ENDROOT
BRANCH   1  22
ATOM     19  C   UNL     1       4.418  11.815  -0.536  0.00  0.00    +0.121 A 
ATOM     20  C   UNL     1       5.651  11.370  -0.083  0.00  0.00    +0.046 A 
ATOM     21  C   UNL     1       5.895  10.015   0.034  0.00  0.00    +0.007 A 
ATOM     22  C   UNL     1       4.911   9.103  -0.300  0.00  0.00    -0.043 A 
ATOM     23  C   UNL     1       3.683   9.544  -0.757  0.00  0.00    +0.007 A 
ATOM     24  C   UNL     1       3.433  10.898  -0.871  0.00  0.00    +0.046 A 
BRANCH  19  25
ATOM     25  O   UNL     1       4.176  13.147  -0.652  0.00  0.00    -0.492 OA
BRANCH  25  26
ATOM     26  C   UNL     1       2.884  13.533  -1.125  0.00  0.00    +0.232 C 
BRANCH  26  28
ATOM     27  C   UNL     1       1.463  15.470  -1.812  0.00  0.00    +0.010 C 
ATOM     28  C   UNL     1       2.798  15.059  -1.189  0.00  0.00    +0.020 C 
ATOM     29  C   UNL     1       2.900  15.634   0.225  0.00  0.00    +0.010 C 
ENDBRANCH  26  28
ENDBRANCH  25  26
ENDBRANCH  19  25
ENDBRANCH   1  22
BRANCH   5  30
ATOM     30  C   UNL     1       3.738   2.694  -0.020  0.00  0.00    -0.017 A 
ATOM     31  C   UNL     1       2.974   2.680  -1.172  0.00  0.00    +0.042 A 
ATOM     32  C   UNL     1       1.718   2.102  -1.165  0.00  0.00    +0.171 A 
ATOM     33  C   UNL     1       1.223   1.534  -0.001  0.00  0.00    +0.189 A 
ATOM     34  C   UNL     1       1.990   1.553   1.159  0.00  0.00    +0.164 A 
ATOM     35  C   UNL     1       3.250   2.130   1.144  0.00  0.00    +0.055 A 
BRANCH  32  36
ATOM     36  N   UNL     1       0.902   2.088  -2.400  0.00  0.00    +0.060 N 
ATOM     37  O   UNL     1       1.337   2.587  -3.422  0.00  0.00    -0.126 OA
ATOM     38  O   UNL     1      -0.204   1.578  -2.393  0.00  0.00    -0.126 OA
ENDBRANCH  32  36
BRANCH  34  39
ATOM     39  O   UNL     1       1.507   1.003   2.305  0.00  0.00    -0.491 OA
ATOM     40  C   UNL     1       2.350   1.059   3.458  0.00  0.00    +0.277 C 
ENDBRANCH  34  39
BRANCH  33  41
ATOM     41  O   UNL     1      -0.012   0.965   0.007  0.00  0.00    -0.502 OA
ATOM     42  H   UNL     1      -0.404   0.515   0.932  0.00  0.00    +0.292 HD
ENDBRANCH  33  41
ENDBRANCH   5  30
TORSDOF 8
