REMARK  Name = ZINC06660757
REMARK  8 active torsions:
REMARK  status: ('A' for Active; 'I' for Inactive)
REMARK    1  A    between atoms: C_1  and  C_2
REMARK    2  A    between atoms: C_2  and  C_3
REMARK    3  A    between atoms: C_3  and  C_4
REMARK    4  A    between atoms: C_4  and  N_5
REMARK    5  A    between atoms: C_17  and  C_24
REMARK    6  A    between atoms: C_25  and  C_27
REMARK    7  A    between atoms: C_27  and  C_28
REMARK    8  A    between atoms: C_27  and  C_29
REMARK                            x       y       z     vdW  Elec       q    Type
REMARK                         _______ _______ _______ _____ _____    ______ ____
ROOT
ATOM      1  N   UNL     1       4.524  -1.190  -0.894  0.00  0.00    -0.242 N 
ATOM      2  C   UNL     1       5.240  -0.094  -0.616  0.00  0.00    +0.224 C 
ATOM      3  O   UNL     1       6.423  -0.078  -0.351  0.00  0.00    -0.275 OA
ATOM      4  C   UNL     1       4.344   1.121  -0.685  0.00  0.00    +0.073 C 
ATOM      5  C   UNL     1       2.956   0.524  -1.048  0.00  0.00    +0.088 C 
ATOM      6  C   UNL     1       3.232  -0.959  -1.154  0.00  0.00    +0.225 C 
ATOM      7  O   UNL     1       2.411  -1.806  -1.430  0.00  0.00    -0.275 OA
ATOM      8  C   UNL     1       2.084   0.798   0.184  0.00  0.00    +0.050 C 
ATOM      9  C   UNL     1       1.105  -0.315   0.426  0.00  0.00    -0.027 A 
ATOM     10  C   UNL     1       1.243  -1.663   0.668  0.00  0.00    +0.008 A 
ATOM     11  C   UNL     1       0.121  -2.452   0.855  0.00  0.00    -0.050 A 
ATOM     12  C   UNL     1      -1.138  -1.882   0.799  0.00  0.00    +0.005 A 
ATOM     13  C   UNL     1      -1.280  -0.532   0.557  0.00  0.00    +0.024 A 
ATOM     14  C   UNL     1      -0.157   0.270   0.369  0.00  0.00    +0.036 A 
ATOM     15  N   UNL     1      -0.044   1.639   0.116  0.00  0.00    -0.286 N 
ATOM     16  C   UNL     1       1.239   2.029  -0.005  0.00  0.00    +0.211 C 
ATOM     17  O   UNL     1       1.637   3.154  -0.225  0.00  0.00    -0.277 OA
ATOM     18  C   UNL     1       0.271  -3.928   1.119  0.00  0.00    +0.044 C 
ATOM     19  C   UNL     1       4.166   1.704   0.733  0.00  0.00    -0.055 C 
ATOM     20  H   UNL     1      -0.802   2.238   0.034  0.00  0.00    +0.155 HD
ATOM     21  N   UNL     1       3.023   0.968   1.278  0.00  0.00    +0.394 N 
ATOM     22  H   UNL     1       3.327   0.053   1.631  0.00  0.00    -0.083 HD
ATOM     23  H   UNL     1       2.588   1.501   2.041  0.00  0.00    -0.083 HD
ENDROOT
BRANCH  19  24
ATOM     24  C   UNL     1       5.428   1.473   1.566  0.00  0.00    -0.031 C 
ATOM     25  C   UNL     1       6.585   2.281   0.974  0.00  0.00    +0.005 C 
ATOM     26  C   UNL     1       5.178   1.923   3.007  0.00  0.00    +0.005 C 
ENDBRANCH  19  24
BRANCH   1  27
ATOM     27  C   UNL     1       5.108  -2.534  -0.912  0.00  0.00    +0.116 C 
BRANCH  27  28
ATOM     28  C   UNL     1       5.620  -2.848  -2.319  0.00  0.00    +0.019 C 
BRANCH  28  30
ATOM     29  C   UNL     1       6.742  -4.566  -3.745  0.00  0.00    +0.004 C 
ATOM     30  C   UNL     1       6.230  -4.251  -2.338  0.00  0.00    -0.002 C 
ENDBRANCH  28  30
ENDBRANCH  27  28
ENDBRANCH   1  27
TORSDOF 4
