REMARK  Name = ZINC11964471
REMARK  11 active torsions:
REMARK  status: ('A' for Active; 'I' for Inactive)
REMARK    1  A    between atoms: C_1  and  O_2
REMARK    2  A    between atoms: O_2  and  C_3
REMARK    3  A    between atoms: C_8  and  C_9
REMARK    4  A    between atoms: C_9  and  C_10
REMARK    5  A    between atoms: C_10  and  N_11
REMARK    6  A    between atoms: C_12  and  C_14
REMARK    7  A    between atoms: C_22  and  C_23
REMARK    8  A    between atoms: C_22  and  N_63
REMARK    9  A    between atoms: C_27  and  O_30
REMARK   10  A    between atoms: C_28  and  O_29
REMARK   11  A    between atoms: O_30  and  C_31
REMARK                            x       y       z     vdW  Elec       q    Type
REMARK                         _______ _______ _______ _____ _____    ______ ____
ROOT
ATOM      1  C   UNL     1      -3.406   3.040  -5.293  0.00  0.00    +0.082 C 
ATOM      2  C   UNL     1      -4.040   1.918  -4.467  0.00  0.00    +0.020 C 
ATOM      3  C   UNL     1      -2.899   2.749  -3.882  0.00  0.00    -0.021 C 
ATOM      4  C   UNL     1      -3.242   3.754  -2.777  0.00  0.00    -0.011 C 
ATOM      5  C   UNL     1      -3.023   3.080  -1.418  0.00  0.00    -0.078 C 
ATOM      6  C   UNL     1      -1.411   1.504  -2.321  0.00  0.00    -0.078 C 
ATOM      7  C   UNL     1      -1.529   2.079  -3.737  0.00  0.00    -0.011 C 
ATOM      8  N   UNL     1      -1.627   2.595  -1.345  0.00  0.00    +0.382 N 
ATOM      9  H   UNL     1      -0.993   3.371  -1.569  0.00  0.00    -0.081 HD
ENDROOT
BRANCH   1  11
ATOM     10  N   UNL     1      -2.919   2.875  -7.712  0.00  0.00    -0.315 N 
ATOM     11  C   UNL     1      -2.521   2.641  -6.446  0.00  0.00    +0.217 C 
ATOM     12  O   UNL     1      -1.452   2.110  -6.234  0.00  0.00    -0.275 OA
ATOM     13  H   UNL     1      -3.774   3.300  -7.881  0.00  0.00    +0.149 HD
BRANCH  10  14
ATOM     14  C   UNL     1      -2.059   2.487  -8.833  0.00  0.00    +0.109 C 
BRANCH  14  15
ATOM     15  C   UNL     1      -2.740   2.861 -10.151  0.00  0.00    +0.057 C 
BRANCH  15  21
ATOM     16  C   UNL     1      -1.900   1.166 -11.797  0.00  0.00    +0.123 A 
ATOM     17  C   UNL     1      -1.088   0.803 -12.862  0.00  0.00    +0.046 A 
ATOM     18  C   UNL     1      -0.231   1.730 -13.422  0.00  0.00    +0.004 A 
ATOM     19  C   UNL     1      -0.184   3.019 -12.926  0.00  0.00    +0.000 A 
ATOM     20  C   UNL     1      -0.996   3.385 -11.868  0.00  0.00    +0.007 A 
ATOM     21  C   UNL     1      -1.856   2.462 -11.305  0.00  0.00    -0.004 A 
BRANCH  16  23
ATOM     22  C   UNL     1      -2.733  -1.061 -11.799  0.00  0.00    +0.277 C 
ATOM     23  O   UNL     1      -2.741   0.255 -11.241  0.00  0.00    -0.495 OA
ENDBRANCH  16  23
ENDBRANCH  15  21
ENDBRANCH  14  15
ENDBRANCH  10  14
ENDBRANCH   1  11
BRANCH   8  24
ATOM     24  C   UNL     1      -1.332   2.114   0.020  0.00  0.00    -0.039 C 
BRANCH  24  25
ATOM     25  C   UNL     1      -0.017   1.379   0.010  0.00  0.00    -0.019 A 
ATOM     26  C   UNL     1       0.002  -0.004   0.002  0.00  0.00    +0.005 A 
ATOM     27  C   UNL     1       1.206  -0.682  -0.013  0.00  0.00    +0.004 A 
ATOM     28  C   UNL     1       2.398   0.020  -0.020  0.00  0.00    +0.049 A 
ATOM     29  C   UNL     1       2.386   1.405  -0.013  0.00  0.00    +0.161 A 
ATOM     30  C   UNL     1       1.173   2.087   0.002  0.00  0.00    +0.160 A 
BRANCH  30  31
ATOM     31  O   UNL     1       1.157   3.447   0.009  0.00  0.00    -0.503 OA
ATOM     32  H   UNL     1       1.160   3.836   0.894  0.00  0.00    +0.292 HD
ENDBRANCH  30  31
BRANCH  29  33
ATOM     33  O   UNL     1       3.557   2.096  -0.021  0.00  0.00    -0.491 OA
ATOM     34  C   UNL     1       4.763   1.330  -0.037  0.00  0.00    +0.277 C 
ENDBRANCH  29  33
ENDBRANCH  24  25
ENDBRANCH   8  24
TORSDOF 9
