REMARK  Name = ZINC04478263
REMARK  7 active torsions:
REMARK  status: ('A' for Active; 'I' for Inactive)
REMARK    1  A    between atoms: C_1  and  C_2
REMARK    2  A    between atoms: C_2  and  C_3
REMARK    3  A    between atoms: C_3  and  C_4
REMARK    4  A    between atoms: C_6  and  C_24
REMARK    5  A    between atoms: C_9  and  C_17
REMARK    6  A    between atoms: C_11  and  C_16
REMARK    7  A    between atoms: N_14  and  O_15
REMARK                            x       y       z     vdW  Elec       q    Type
REMARK                         _______ _______ _______ _____ _____    ______ ____
ROOT
ATOM      1  C   UNL     1      -2.922   1.475   0.186  0.00  0.00    +0.027 C 
ATOM      2  C   UNL     1      -2.042   0.975   1.337  0.00  0.00    -0.031 C 
ATOM      3  N   UNL     1      -0.701   1.560   1.216  0.00  0.00    +0.389 N 
ATOM      4  C   UNL     1      -0.013   1.086   0.008  0.00  0.00    -0.032 C 
ATOM      5  C   UNL     1      -0.755   1.594  -1.234  0.00  0.00    +0.024 C 
ATOM      6  C   UNL     1      -2.208   1.184  -1.117  0.00  0.00    +0.061 C 
ATOM      7  N   UNL     1      -2.813   0.611  -2.088  0.00  0.00    -0.096 NA
ATOM      8  C   UNL     1      -0.653   3.119  -1.307  0.00  0.00    +0.012 C 
ATOM      9  H   UNL     1      -0.782   2.655   1.162  0.00  0.00    -0.084 HD
ATOM     10  H   UNL     1      -0.097   1.279   2.092  0.00  0.00    -0.084 HD
ENDROOT
BRANCH   4  11
ATOM     11  C   UNL     1       1.401   1.608  -0.003  0.00  0.00    -0.061 A 
ATOM     12  C   UNL     1       1.663   2.902   0.406  0.00  0.00    +0.003 A 
ATOM     13  C   UNL     1       2.960   3.380   0.402  0.00  0.00    +0.020 A 
ATOM     14  C   UNL     1       3.995   2.565  -0.022  0.00  0.00    +0.041 A 
ATOM     15  C   UNL     1       3.732   1.272  -0.436  0.00  0.00    +0.020 A 
ATOM     16  C   UNL     1       2.435   0.794  -0.426  0.00  0.00    +0.003 A 
ATOM     17 CL   UNL     1       5.623   3.166  -0.034  0.00  0.00    -0.084 Cl
ENDBRANCH   4  11
BRANCH   2  18
ATOM     18  C   UNL     1      -2.652   1.386   2.652  0.00  0.00    -0.061 A 
ATOM     19  C   UNL     1      -2.472   2.672   3.126  0.00  0.00    +0.003 A 
ATOM     20  C   UNL     1      -3.036   3.052   4.329  0.00  0.00    +0.020 A 
ATOM     21  C   UNL     1      -3.772   2.140   5.066  0.00  0.00    +0.041 A 
ATOM     22  C   UNL     1      -3.947   0.852   4.594  0.00  0.00    +0.020 A 
ATOM     23  C   UNL     1      -3.387   0.475   3.388  0.00  0.00    +0.003 A 
ATOM     24 CL   UNL     1      -4.475   2.614   6.580  0.00  0.00    -0.084 Cl
ENDBRANCH   2  18
BRANCH   7  25
ATOM     25  O   UNL     1      -2.123   0.350  -3.297  0.00  0.00    -0.409 OA
ATOM     26  H   UNL     1      -2.643  -0.143  -4.132  0.00  0.00    +0.328 HD
ENDBRANCH   7  25
BRANCH   1  27
ATOM     27  C   UNL     1      -4.268   0.749   0.212  0.00  0.00    +0.008 C 
BRANCH  27  29
ATOM     28  C   UNL     1      -6.533   0.612  -0.833  0.00  0.00    +0.004 C 
ATOM     29  C   UNL     1      -5.187   1.339  -0.859  0.00  0.00    -0.003 C 
ENDBRANCH  27  29
ENDBRANCH   1  27
TORSDOF 5
