REMARK  Name = ZINC63883501
REMARK  4 active torsions:
REMARK  status: ('A' for Active; 'I' for Inactive)
REMARK    1  A    between atoms: C_1  and  C_2
REMARK    2  A    between atoms: C_2  and  C_3
REMARK    3  A    between atoms: C_2  and  N_4
REMARK    4  A    between atoms: C_9  and  C_12
REMARK                            x       y       z     vdW  Elec       q    Type
REMARK                         _______ _______ _______ _____ _____    ______ ____
ROOT
ATOM      1  N   UNL     1       0.688  -0.476  -1.203  0.00  0.00    -0.230 N 
ATOM      2  C   UNL     1       1.891  -1.310  -1.274  0.00  0.00    +0.212 C 
ATOM      3  C   UNL     1       1.659  -2.041  -2.597  0.00  0.00    +0.094 C 
ATOM      4  N   UNL     1       2.083  -3.250  -2.472  0.00  0.00    -0.258 NA
ATOM      5  C   UNL     1       2.546  -3.491  -1.096  0.00  0.00    +0.222 C 
ATOM      6  N   UNL     1       1.960  -2.378  -0.268  0.00  0.00    -0.266 NA
ATOM      7  C   UNL     1       0.924  -1.040  -3.373  0.00  0.00    +0.156 C 
ATOM      8  N   UNL     1       0.329  -0.232  -2.542  0.00  0.00    -0.189 NA
ATOM      9  H   UNL     1       2.570  -2.119   0.493  0.00  0.00    +0.126 HD
ENDROOT
BRANCH   5  10
ATOM     10  C   UNL     1       2.057  -4.830  -0.607  0.00  0.00    +0.064 A 
ATOM     11  C   UNL     1       1.746  -5.141   0.667  0.00  0.00    +0.027 A 
ATOM     12  C   UNL     1       1.334  -6.489   0.686  0.00  0.00    +0.020 A 
ATOM     13  C   UNL     1       1.408  -6.953  -0.578  0.00  0.00    +0.093 A 
ATOM     14  N   UNL     1       1.846  -5.937  -1.380  0.00  0.00    -0.296 N 
ATOM     15  C   UNL     1       2.048  -6.017  -2.757  0.00  0.00    +0.177 A 
ATOM     16  N   UNL     1       2.474  -5.082  -3.576  0.00  0.00    -0.231 NA
ATOM     17  C   UNL     1       2.613  -5.316  -4.867  0.00  0.00    +0.121 A 
ATOM     18  C   UNL     1       2.298  -6.561  -5.305  0.00  0.00    +0.068 A 
ATOM     19  S   UNL     1       1.812  -7.338  -3.773  0.00  0.00    -0.058 S 
ENDBRANCH   5  10
BRANCH   1  21
ATOM     20  C   UNL     1      -0.019   1.526   0.010  0.00  0.00    +0.029 C 
ATOM     21  C   UNL     1       0.002  -0.004   0.002  0.00  0.00    +0.089 C 
ATOM     22  C   UNL     1      -1.433  -0.534   0.013  0.00  0.00    +0.029 C 
ENDBRANCH   1  21
TORSDOF 2
