REMARK  Name = ZINC24771585
REMARK  8 active torsions:
REMARK  status: ('A' for Active; 'I' for Inactive)
REMARK    1  A    between atoms: C_4  and  C_7
REMARK    2  A    between atoms: C_7  and  O_8
REMARK    3  A    between atoms: O_8  and  C_9
REMARK    4  A    between atoms: N_11  and  C_12
REMARK    5  A    between atoms: C_12  and  C_14
REMARK    6  A    between atoms: C_12  and  C_25
REMARK    7  A    between atoms: C_14  and  C_15
REMARK    8  A    between atoms: C_31  and  C_34
REMARK                            x       y       z     vdW  Elec       q    Type
REMARK                         _______ _______ _______ _____ _____    ______ ____
ROOT
ATOM      1  C   UNL     1      -2.448   1.119   0.017  0.00  0.00    +0.167 C 
ENDROOT
BRANCH   1   2
ATOM      2  C   UNL     1      -3.450   2.119  -0.498  0.00  0.00    +0.236 C 
ATOM      3  O   UNL     1      -3.145   3.289  -0.595  0.00  0.00    -0.274 OA
ATOM      4  N   UNL     1      -4.686   1.714  -0.851  0.00  0.00    -0.295 N 
ATOM      5  C   UNL     1      -5.115   0.322  -0.644  0.00  0.00    +0.136 C 
ATOM      6  C   UNL     1      -5.703  -0.207  -1.952  0.00  0.00    +0.179 C 
ATOM      7  O   UNL     1      -6.701   0.702  -2.422  0.00  0.00    -0.369 OA
ATOM      8  C   UNL     1      -6.205   2.006  -2.733  0.00  0.00    +0.166 C 
ATOM      9  C   UNL     1      -5.645   2.650  -1.460  0.00  0.00    +0.144 C 
BRANCH   8  10
ATOM     10  C   UNL     1      -7.327   2.855  -3.275  0.00  0.00    -0.017 A 
ATOM     11  C   UNL     1      -8.590   2.766  -2.722  0.00  0.00    +0.006 A 
ATOM     12  C   UNL     1      -9.618   3.548  -3.215  0.00  0.00    +0.000 A 
ATOM     13  C   UNL     1      -9.384   4.412  -4.269  0.00  0.00    +0.000 A 
ATOM     14  C   UNL     1      -8.121   4.497  -4.825  0.00  0.00    +0.000 A 
ATOM     15  C   UNL     1      -7.093   3.719  -4.328  0.00  0.00    +0.006 A 
ENDBRANCH   8  10
ENDBRANCH   1   2
BRANCH   1  18
ATOM     16  C   UNL     1      -0.053   0.786  -0.285  0.00  0.00    +0.401 C 
ATOM     17  O   UNL     1      -0.240  -0.412  -0.211  0.00  0.00    -0.226 OA
ATOM     18  N   UNL     1      -1.093   1.638  -0.183  0.00  0.00    -0.269 N 
ATOM     19  H   UNL     1      -0.923   2.723  -0.250  0.00  0.00    +0.153 HD
BRANCH  16  20
ATOM     20  O   UNL     1       1.192   1.263  -0.475  0.00  0.00    -0.446 OA
BRANCH  20  21
ATOM     21  C   UNL     1       2.262   0.288  -0.582  0.00  0.00    +0.269 C 
BRANCH  21  25
ATOM     22  C   UNL     1       5.978   2.310  -1.173  0.00  0.00    +0.000 A 
ATOM     23  C   UNL     1       5.539   2.031   0.108  0.00  0.00    +0.000 A 
ATOM     24  C   UNL     1       4.337   1.377   0.299  0.00  0.00    +0.007 A 
ATOM     25  C   UNL     1       3.573   1.002  -0.790  0.00  0.00    -0.010 A 
ATOM     26  C   UNL     1       4.015   1.276  -2.071  0.00  0.00    +0.007 A 
ATOM     27  C   UNL     1       5.215   1.935  -2.262  0.00  0.00    +0.000 A 
ENDBRANCH  21  25
ENDBRANCH  20  21
ENDBRANCH  16  20
ENDBRANCH   1  18
BRANCH   1  28
ATOM     28  C   UNL     1      -2.687   0.879   1.510  0.00  0.00    +0.069 C 
BRANCH  28  29
ATOM     29  C   UNL     1      -1.723  -0.165   2.011  0.00  0.00    -0.020 A 
ATOM     30  C   UNL     1      -1.961  -1.482   2.125  0.00  0.00    +0.087 A 
ATOM     31  N   UNL     1      -0.852  -2.115   2.616  0.00  0.00    -0.360 N 
ATOM     32  H   UNL     1      -0.866  -3.204   2.776  0.00  0.00    +0.165 HD
ATOM     33  C   UNL     1       0.152  -1.199   2.836  0.00  0.00    +0.047 A 
ATOM     34  C   UNL     1      -0.348   0.062   2.461  0.00  0.00    +0.003 A 
ATOM     35  C   UNL     1       0.459   1.195   2.583  0.00  0.00    +0.010 A 
ATOM     36  C   UNL     1       1.735   1.071   3.055  0.00  0.00    +0.001 A 
ATOM     37  C   UNL     1       2.234  -0.171   3.421  0.00  0.00    +0.002 A 
ATOM     38  C   UNL     1       1.454  -1.301   3.314  0.00  0.00    +0.026 A 
ENDBRANCH  28  29
ENDBRANCH   1  28
TORSDOF 8
