REMARK  Name = ZINC39690358
REMARK  9 active torsions:
REMARK  status: ('A' for Active; 'I' for Inactive)
REMARK    1  A    between atoms: C_1  and  O_2
REMARK    2  A    between atoms: O_2  and  C_3
REMARK    3  A    between atoms: C_6  and  C_9
REMARK    4  A    between atoms: C_9  and  C_10
REMARK    5  A    between atoms: C_10  and  C_11
REMARK    6  A    between atoms: C_15  and  C_24
REMARK    7  A    between atoms: N_26  and  C_27
REMARK    8  A    between atoms: C_27  and  C_28
REMARK    9  A    between atoms: C_31  and  N_34
REMARK                            x       y       z     vdW  Elec       q    Type
REMARK                         _______ _______ _______ _____ _____    ______ ____
ROOT
ATOM      1  C   UNL     1       4.675  -3.173  -5.013  0.00  0.00    +0.216 C 
ATOM      2  O   UNL     1       3.960  -3.377  -5.971  0.00  0.00    -0.276 OA
ATOM      3  N   UNL     1       5.970  -3.543  -5.047  0.00  0.00    -0.300 N 
ATOM      4  C   UNL     1       6.988  -3.385  -3.982  0.00  0.00    +0.121 C 
ATOM      5  C   UNL     1       7.814  -4.691  -4.035  0.00  0.00    +0.100 C 
ATOM      6  C   UNL     1       7.620  -5.220  -5.466  0.00  0.00    -0.004 C 
ATOM      7  C   UNL     1       6.696  -4.207  -6.156  0.00  0.00    +0.115 C 
ATOM      8  C   UNL     1       6.958  -6.594  -5.436  0.00  0.00    -0.010 C 
ATOM      9  C   UNL     1       6.829  -7.124  -6.867  0.00  0.00    -0.082 C 
ATOM     10  N   UNL     1       8.159  -7.213  -7.480  0.00  0.00    +0.379 N 
ATOM     11  C   UNL     1       8.751  -5.874  -7.589  0.00  0.00    -0.082 C 
ATOM     12  C   UNL     1       8.962  -5.291  -6.189  0.00  0.00    -0.010 C 
ATOM     13  H   UNL     1       8.753  -7.796  -6.909  0.00  0.00    -0.086 HD
ATOM     14  H   UNL     1       8.078  -7.619  -8.400  0.00  0.00    -0.086 HD
ENDROOT
BRANCH   5  15
ATOM     15  C   UNL     1       7.289  -5.684  -3.030  0.00  0.00    +0.218 C 
ATOM     16  O   UNL     1       6.114  -5.680  -2.730  0.00  0.00    -0.275 OA
ATOM     17  N   UNL     1       8.126  -6.576  -2.465  0.00  0.00    -0.311 N 
ATOM     18  H   UNL     1       9.066  -6.579  -2.704  0.00  0.00    +0.149 HD
BRANCH  17  19
ATOM     19  C   UNL     1       7.615  -7.542  -1.488  0.00  0.00    +0.139 C 
BRANCH  19  20
ATOM     20  C   UNL     1       8.745  -8.419  -1.012  0.00  0.00    -0.030 A 
ATOM     21  C   UNL     1       9.037  -9.592  -1.682  0.00  0.00    +0.007 A 
ATOM     22  C   UNL     1      10.071 -10.398  -1.248  0.00  0.00    +0.026 A 
ATOM     23  C   UNL     1      10.818 -10.028  -0.138  0.00  0.00    +0.046 A 
ATOM     24  C   UNL     1      10.523  -8.850   0.533  0.00  0.00    +0.026 A 
ATOM     25  C   UNL     1       9.490  -8.046   0.092  0.00  0.00    +0.007 A 
BRANCH  23  26
ATOM     26  N   UNL     1      11.868 -10.845   0.306  0.00  0.00    -0.323 N 
ATOM     27  C   UNL     1      12.260 -12.020  -0.268  0.00  0.00    +0.091 A 
ATOM     28  C   UNL     1      13.298 -12.509   0.440  0.00  0.00    +0.019 A 
ATOM     29  C   UNL     1      13.558 -11.605   1.489  0.00  0.00    +0.019 A 
ATOM     30  C   UNL     1      12.673 -10.593   1.380  0.00  0.00    +0.091 A 
ENDBRANCH  23  26
ENDBRANCH  19  20
ENDBRANCH  17  19
ENDBRANCH   5  15
BRANCH   1  31
ATOM     31  C   UNL     1       4.114  -2.505  -3.784  0.00  0.00    +0.100 C 
BRANCH  31  32
ATOM     32  C   UNL     1       2.633  -2.190  -4.005  0.00  0.00    +0.044 C 
BRANCH  32  36
ATOM     33  C   UNL     1       1.044  -0.296  -0.519  0.00  0.00    +0.120 A 
ATOM     34  C   UNL     1       1.597   0.470  -1.535  0.00  0.00    +0.046 A 
ATOM     35  C   UNL     1       2.111  -0.145  -2.660  0.00  0.00    +0.007 A 
ATOM     36  C   UNL     1       2.073  -1.522  -2.775  0.00  0.00    -0.047 A 
ATOM     37  C   UNL     1       1.521  -2.288  -1.765  0.00  0.00    +0.007 A 
ATOM     38  C   UNL     1       1.012  -1.678  -0.634  0.00  0.00    +0.046 A 
BRANCH  33  40
ATOM     39  C   UNL     1       0.605   1.733   0.640  0.00  0.00    +0.277 C 
ATOM     40  O   UNL     1       0.539   0.307   0.589  0.00  0.00    -0.495 OA
ENDBRANCH  33  40
ENDBRANCH  32  36
ENDBRANCH  31  32
ENDBRANCH   1  31
TORSDOF 8
