REMARK  Name = ZINC45521371
REMARK  6 active torsions:
REMARK  status: ('A' for Active; 'I' for Inactive)
REMARK    1  A    between atoms: C_1  and  C_2
REMARK    2  A    between atoms: C_9  and  N_14
REMARK    3  A    between atoms: N_14  and  C_15
REMARK    4  A    between atoms: C_15  and  C_17
REMARK    5  A    between atoms: C_15  and  C_18
REMARK    6  A    between atoms: N_20  and  C_21
REMARK                            x       y       z     vdW  Elec       q    Type
REMARK                         _______ _______ _______ _____ _____    ______ ____
ROOT
ATOM      1  N   UNL     1       6.196   0.091   1.140  0.00  0.00    -0.333 N 
ATOM      2  H   UNL     1       6.687   0.020   0.306  0.00  0.00    +0.147 HD
ENDROOT
BRANCH   1  10
ATOM      3  C   UNL     1      -0.011   1.554   0.001  0.00  0.00    +0.062 C 
ATOM      4  C   UNL     1       0.002   0.024   0.001  0.00  0.00    +0.256 C 
ATOM      5  C   UNL     1       0.704  -0.472  -1.237  0.00  0.00    +0.258 C 
ATOM      6  O   UNL     1       0.070  -0.703  -2.245  0.00  0.00    -0.271 OA
ATOM      7  N   UNL     1       2.042  -0.658  -1.220  0.00  0.00    -0.279 N 
ATOM      8  C   UNL     1       2.747  -0.418  -0.032  0.00  0.00    +0.077 A 
ATOM      9  C   UNL     1       4.125  -0.283  -0.043  0.00  0.00    +0.050 A 
ATOM     10  C   UNL     1       4.804  -0.046   1.145  0.00  0.00    +0.030 A 
ATOM     11  C   UNL     1       4.101   0.055   2.340  0.00  0.00    +0.026 A 
ATOM     12  C   UNL     1       2.725  -0.080   2.350  0.00  0.00    +0.049 A 
ATOM     13  C   UNL     1       2.045  -0.315   1.168  0.00  0.00    +0.143 A 
ATOM     14  O   UNL     1       0.690  -0.446   1.163  0.00  0.00    -0.478 OA
ATOM     15  H   UNL     1       2.508  -0.954  -2.017  0.00  0.00    +0.155 HD
ENDBRANCH   1  10
BRANCH   1  16
ATOM     16  C   UNL     1       6.913   0.340   2.393  0.00  0.00    +0.154 C 
ATOM     17  C   UNL     1       6.914   1.841   2.689  0.00  0.00    +0.038 C 
BRANCH  16  18
ATOM     18  C   UNL     1       8.333  -0.147   2.265  0.00  0.00    +0.237 C 
ATOM     19  O   UNL     1       8.710  -0.653   1.229  0.00  0.00    -0.273 OA
ATOM     20  N   UNL     1       9.185  -0.021   3.301  0.00  0.00    -0.284 N 
ATOM     21  H   UNL     1       8.905   0.444   4.105  0.00  0.00    +0.155 HD
BRANCH  20  22
ATOM     22  C   UNL     1      10.474  -0.559   3.218  0.00  0.00    +0.034 A 
ATOM     23  C   UNL     1      11.076  -1.102   4.345  0.00  0.00    +0.024 A 
ATOM     24  C   UNL     1      12.348  -1.633   4.260  0.00  0.00    +0.017 A 
ATOM     25  C   UNL     1      13.023  -1.625   3.052  0.00  0.00    +0.018 A 
ATOM     26  C   UNL     1      12.425  -1.085   1.927  0.00  0.00    +0.017 A 
ATOM     27  C   UNL     1      11.152  -0.557   2.005  0.00  0.00    +0.024 A 
ATOM     28 BR   UNL     1      14.764  -2.353   2.939  0.00  0.00    -0.050 Br
ENDBRANCH  20  22
ENDBRANCH  16  18
ENDBRANCH   1  16
TORSDOF 4
