REMARK  Name = ZINC00659601
REMARK  5 active torsions:
REMARK  status: ('A' for Active; 'I' for Inactive)
REMARK    1  A    between atoms: C_4  and  C_7
REMARK    2  A    between atoms: C_12  and  C_20
REMARK    3  A    between atoms: C_14  and  C_18
REMARK    4  A    between atoms: C_15  and  N_17
REMARK    5  A    between atoms: C_25  and  C_26
REMARK                            x       y       z     vdW  Elec       q    Type
REMARK                         _______ _______ _______ _____ _____    ______ ____
ROOT
ATOM      1  C   UNL     1      -3.438  -1.504  -3.352  0.00  0.00    +0.034 C 
ATOM      2  C   UNL     1      -2.387  -2.062  -2.390  0.00  0.00    +0.083 C 
ATOM      3  C   UNL     1      -2.321  -1.199  -1.152  0.00  0.00    +0.115 C 
ATOM      4  C   UNL     1      -2.586   0.118  -1.218  0.00  0.00    +0.046 C 
ATOM      5  C   UNL     1      -2.514   0.980   0.019  0.00  0.00    +0.101 C 
ATOM      6  C   UNL     1      -2.580   0.120   1.250  0.00  0.00    +0.098 C 
ATOM      7  C   UNL     1      -2.317  -1.207   1.175  0.00  0.00    +0.198 C 
ATOM      8  O   UNL     1      -1.987  -1.789   0.011  0.00  0.00    -0.445 OA
ATOM      9  C   UNL     1      -2.938   0.734  -2.435  0.00  0.00    +0.164 C 
ATOM     10  O   UNL     1      -3.150   1.930  -2.459  0.00  0.00    -0.292 OA
ATOM     11  C   UNL     1      -3.056  -0.063  -3.706  0.00  0.00    +0.088 C 
ENDROOT
BRANCH   1  15
ATOM     12  C   UNL     1      -3.539  -3.876  -6.903  0.00  0.00    +0.000 A 
ATOM     13  C   UNL     1      -4.678  -3.737  -6.132  0.00  0.00    +0.000 A 
ATOM     14  C   UNL     1      -4.645  -2.970  -4.983  0.00  0.00    +0.004 A 
ATOM     15  C   UNL     1      -3.474  -2.341  -4.605  0.00  0.00    -0.043 A 
ATOM     16  C   UNL     1      -2.336  -2.475  -5.378  0.00  0.00    +0.004 A 
ATOM     17  C   UNL     1      -2.368  -3.247  -6.525  0.00  0.00    +0.000 A 
ENDBRANCH   1  15
BRANCH   5  18
ATOM     18  C   UNL     1      -1.219   1.751   0.017  0.00  0.00    -0.023 A 
ATOM     19  C   UNL     1      -0.013   1.076   0.008  0.00  0.00    +0.005 A 
ATOM     20  C   UNL     1       1.175   1.783   0.000  0.00  0.00    +0.000 A 
ATOM     21  C   UNL     1       1.156   3.166   0.008  0.00  0.00    +0.001 A 
ATOM     22  C   UNL     1      -0.050   3.840   0.023  0.00  0.00    +0.012 A 
ATOM     23  C   UNL     1      -1.238   3.133   0.030  0.00  0.00    +0.059 A 
BRANCH  23  24
ATOM     24  C   UNL     1      -2.553   3.868   0.047  0.00  0.00    +0.418 C 
ATOM     25  F   UNL     1      -2.316   5.247   0.053  0.00  0.00    -0.166 F 
ATOM     26  F   UNL     1      -3.293   3.527  -1.090  0.00  0.00    -0.166 F 
ATOM     27  F   UNL     1      -3.271   3.514   1.195  0.00  0.00    -0.166 F 
ENDBRANCH  23  24
ENDBRANCH   5  18
BRANCH   7  28
ATOM     28  N   UNL     1      -2.390  -1.973   2.312  0.00  0.00    -0.328 N 
ATOM     29  H   UNL     1      -2.203  -2.924   2.269  0.00  0.00    +0.145 HD
ATOM     30  H   UNL     1      -2.628  -1.563   3.158  0.00  0.00    +0.145 HD
ENDBRANCH   7  28
BRANCH   6  31
ATOM     31  C   UNL     1      -2.924   0.706   2.511  0.00  0.00    +0.101 C 
ATOM     32  N   UNL     1      -3.196   1.172   3.511  0.00  0.00    -0.191 NA
ENDBRANCH   6  31
TORSDOF 5
