REMARK  Name = ZINC11604020
REMARK  10 active torsions:
REMARK  status: ('A' for Active; 'I' for Inactive)
REMARK    1  A    between atoms: C_1  and  C_2
REMARK    2  A    between atoms: C_2  and  C_3
REMARK    3  A    between atoms: C_6  and  C_9
REMARK    4  A    between atoms: C_9  and  C_11
REMARK    5  A    between atoms: C_9  and  N_62
REMARK    6  A    between atoms: C_11  and  N_12
REMARK    7  A    between atoms: C_13  and  C_15
REMARK    8  A    between atoms: N_25  and  C_28
REMARK    9  A    between atoms: C_35  and  N_62
REMARK   10  A    between atoms: C_36  and  N_62
REMARK                            x       y       z     vdW  Elec       q    Type
REMARK                         _______ _______ _______ _____ _____    ______ ____
ROOT
ATOM      1  C   UNL     1      -0.639  -2.988   3.649  0.00  0.00    +0.039 A 
ATOM      2  C   UNL     1      -0.475  -4.039   2.742  0.00  0.00    +0.014 A 
ATOM      3  C   UNL     1      -0.555  -5.346   3.171  0.00  0.00    +0.016 A 
ATOM      4  C   UNL     1      -0.811  -5.617   4.513  0.00  0.00    +0.063 A 
ATOM      5  C   UNL     1      -0.983  -4.565   5.428  0.00  0.00    +0.054 A 
ATOM      6  C   UNL     1      -0.897  -3.252   4.992  0.00  0.00    +0.039 A 
ATOM      7  N   UNL     1      -1.237  -4.871   6.758  0.00  0.00    -0.334 N 
ATOM      8  H   UNL     1      -1.359  -4.154   7.401  0.00  0.00    +0.168 HD
ATOM      9  C   UNL     1      -1.318  -6.149   7.164  0.00  0.00    +0.166 A 
ATOM     10  S   UNL     1      -1.634  -6.465   8.817  0.00  0.00    -0.012 S 
ATOM     11  N   UNL     1      -1.161  -7.189   6.330  0.00  0.00    -0.254 N 
ATOM     12  C   UNL     1      -0.910  -7.002   5.016  0.00  0.00    +0.267 A 
ATOM     13  O   UNL     1      -0.770  -7.949   4.267  0.00  0.00    -0.267 OA
ENDROOT
BRANCH  11  14
ATOM     14  C   UNL     1      -1.259  -8.494   6.832  0.00  0.00    +0.087 A 
ATOM     15  C   UNL     1      -2.489  -9.137   6.861  0.00  0.00    +0.029 A 
ATOM     16  C   UNL     1      -2.582 -10.425   7.351  0.00  0.00    +0.002 A 
ATOM     17  C   UNL     1      -1.454 -11.071   7.823  0.00  0.00    +0.003 A 
ATOM     18  C   UNL     1      -0.228 -10.433   7.801  0.00  0.00    +0.040 A 
ATOM     19  C   UNL     1      -0.126  -9.145   7.307  0.00  0.00    +0.147 A 
ATOM     20  F   UNL     1       1.072  -8.521   7.285  0.00  0.00    -0.203 F 
ENDBRANCH  11  14
BRANCH   1  22
ATOM     21  N   UNL     1      -0.297  -1.328   1.879  0.00  0.00    -0.313 N 
ATOM     22  C   UNL     1      -0.546  -1.588   3.178  0.00  0.00    +0.244 C 
ATOM     23  O   UNL     1      -0.693  -0.672   3.963  0.00  0.00    -0.270 OA
ATOM     24  H   UNL     1      -0.180  -2.059   1.252  0.00  0.00    +0.149 HD
BRANCH  21  25
ATOM     25  C   UNL     1      -0.205   0.058   1.413  0.00  0.00    +0.094 C 
BRANCH  25  26
ATOM     26  C   UNL     1      -0.040   0.074  -0.108  0.00  0.00    -0.021 C 
BRANCH  26  30
ATOM     27  C   UNL     1       0.011   4.116  -1.490  0.00  0.00    -0.048 A 
ATOM     28  C   UNL     1       1.180   3.379  -1.467  0.00  0.00    +0.004 A 
ATOM     29  C   UNL     1       1.163   2.071  -1.019  0.00  0.00    +0.002 A 
ATOM     30  C   UNL     1      -0.022   1.500  -0.595  0.00  0.00    -0.059 A 
ATOM     31  C   UNL     1      -1.192   2.236  -0.624  0.00  0.00    +0.002 A 
ATOM     32  C   UNL     1      -1.175   3.545  -1.066  0.00  0.00    +0.004 A 
BRANCH  27  34
ATOM     33  C   UNL     1      -0.227   5.567  -3.487  0.00  0.00    +0.009 C 
ATOM     34  C   UNL     1       0.028   5.542  -1.979  0.00  0.00    +0.032 C 
ENDBRANCH  27  34
ENDBRANCH  26  30
BRANCH  26  37
ATOM     35  C   UNL     1      -2.376  -0.531   0.089  0.00  0.00    -0.096 C 
ATOM     36  C   UNL     1      -1.403  -0.158  -2.096  0.00  0.00    -0.096 C 
ATOM     37  N   UNL     1      -1.155  -0.669  -0.731  0.00  0.00    +0.382 N 
ATOM     38  H   UNL     1      -0.902  -1.663  -0.789  0.00  0.00    -0.082 HD
ENDBRANCH  26  37
ENDBRANCH  25  26
ENDBRANCH  21  25
ENDBRANCH   1  22
TORSDOF 7
