REMARK  Name = ZINC28212952
REMARK  13 active torsions:
REMARK  status: ('A' for Active; 'I' for Inactive)
REMARK    1  A    between atoms: C_1  and  C_2
REMARK    2  A    between atoms: C_5  and  S_8
REMARK    3  A    between atoms: S_8  and  N_11
REMARK    4  A    between atoms: N_11  and  C_12
REMARK    5  A    between atoms: N_11  and  C_29
REMARK    6  A    between atoms: C_12  and  C_13
REMARK    7  A    between atoms: N_15  and  N_16
REMARK    8  A    between atoms: C_17  and  C_18
REMARK    9  A    between atoms: C_21  and  O_24
REMARK   10  A    between atoms: O_24  and  C_25
REMARK   11  A    between atoms: C_25  and  C_26
REMARK   12  A    between atoms: C_32  and  C_36
REMARK   13  A    between atoms: C_34  and  C_35
REMARK                            x       y       z     vdW  Elec       q    Type
REMARK                         _______ _______ _______ _____ _____    ______ ____
ROOT
ATOM      1  C   UNL     1       1.767  -5.246   0.896  0.00  0.00    +0.228 C 
ENDROOT
BRANCH   1   2
ATOM      2  C   UNL     1       1.499  -6.714   1.108  0.00  0.00    +0.251 C 
ATOM      3  O   UNL     1       0.932  -7.357   0.250  0.00  0.00    -0.272 OA
ATOM      4  N   UNL     1       1.889  -7.312   2.251  0.00  0.00    -0.206 N 
ATOM      5  H   UNL     1       2.343  -6.798   2.937  0.00  0.00    +0.177 HD
BRANCH   4   6
ATOM      6  N   UNL     1       1.641  -8.677   2.448  0.00  0.00    -0.188 NA
ATOM      7  C   UNL     1       2.017  -9.252   3.548  0.00  0.00    +0.138 C 
BRANCH   7   8
ATOM      8  C   UNL     1       1.755 -10.688   3.756  0.00  0.00    -0.005 A 
ATOM      9  C   UNL     1       1.107 -11.432   2.766  0.00  0.00    +0.013 A 
ATOM     10  C   UNL     1       0.864 -12.774   2.964  0.00  0.00    +0.046 A 
ATOM     11  C   UNL     1       1.263 -13.387   4.145  0.00  0.00    +0.121 A 
ATOM     12  C   UNL     1       1.907 -12.652   5.132  0.00  0.00    +0.046 A 
ATOM     13  C   UNL     1       2.159 -11.310   4.940  0.00  0.00    +0.013 A 
BRANCH  11  14
ATOM     14  O   UNL     1       1.022 -14.711   4.336  0.00  0.00    -0.483 OA
BRANCH  14  15
ATOM     15  C   UNL     1       1.458 -15.278   5.573  0.00  0.00    +0.324 C 
BRANCH  15  16
ATOM     16  C   UNL     1       1.108 -16.743   5.606  0.00  0.00    +0.248 C 
ATOM     17  O   UNL     1       0.540 -17.252   4.662  0.00  0.00    -0.272 OA
ATOM     18  N   UNL     1       1.425 -17.488   6.683  0.00  0.00    -0.327 N 
ATOM     19  H   UNL     1       1.879 -17.081   7.437  0.00  0.00    +0.145 HD
ATOM     20  H   UNL     1       1.200 -18.431   6.704  0.00  0.00    +0.145 HD
ENDBRANCH  15  16
ENDBRANCH  14  15
ENDBRANCH  11  14
ENDBRANCH   7   8
ENDBRANCH   4   6
ENDBRANCH   1   2
BRANCH   1  21
ATOM     21  N   UNL     1       1.250  -4.840  -0.413  0.00  0.00    -0.194 N 
BRANCH  21  22
ATOM     22  C   UNL     1       2.033  -5.011  -1.557  0.00  0.00    +0.055 A 
ATOM     23  C   UNL     1       1.978  -6.204  -2.266  0.00  0.00    +0.025 A 
ATOM     24  C   UNL     1       2.753  -6.370  -3.397  0.00  0.00    +0.005 A 
ATOM     25  C   UNL     1       3.583  -5.350  -3.824  0.00  0.00    -0.050 A 
ATOM     26  C   UNL     1       3.640  -4.161  -3.121  0.00  0.00    +0.008 A 
ATOM     27  C   UNL     1       2.863  -3.986  -1.992  0.00  0.00    -0.028 A 
ATOM     28  C   UNL     1       2.921  -2.687  -1.230  0.00  0.00    +0.046 C 
ATOM     29  C   UNL     1       4.428  -5.534  -5.058  0.00  0.00    +0.044 C 
ENDBRANCH  21  22
BRANCH  21  30
ATOM     30  S   UNL     1      -0.263  -4.177  -0.537  0.00  0.00    +0.075 S 
ATOM     31  O   UNL     1      -0.948  -4.501   0.665  0.00  0.00    -0.150 OA
ATOM     32  O   UNL     1      -0.761  -4.537  -1.818  0.00  0.00    -0.150 OA
BRANCH  30  37
ATOM     33  C   UNL     1       0.410   1.819  -0.573  0.00  0.00    +0.044 C 
ATOM     34  C   UNL     1       0.242   0.321  -0.564  0.00  0.00    -0.050 A 
ATOM     35  C   UNL     1       0.096  -0.365  -1.755  0.00  0.00    +0.005 A 
ATOM     36  C   UNL     1      -0.059  -1.739  -1.747  0.00  0.00    +0.029 A 
ATOM     37  C   UNL     1      -0.066  -2.426  -0.547  0.00  0.00    +0.109 A 
ATOM     38  C   UNL     1       0.082  -1.740   0.643  0.00  0.00    +0.029 A 
ATOM     39  C   UNL     1       0.240  -0.367   0.635  0.00  0.00    +0.005 A 
ENDBRANCH  30  37
ENDBRANCH  21  30
ENDBRANCH   1  21
TORSDOF 10
