REMARK  Name = ZINC51097341
REMARK  7 active torsions:
REMARK  status: ('A' for Active; 'I' for Inactive)
REMARK    1  A    between atoms: C_1  and  C_2
REMARK    2  A    between atoms: C_5  and  C_7
REMARK    3  A    between atoms: N_9  and  C_10
REMARK    4  A    between atoms: N_13  and  C_16
REMARK    5  A    between atoms: C_16  and  C_18
REMARK    6  A    between atoms: C_16  and  C_19
REMARK    7  A    between atoms: C_19  and  C_21
REMARK                            x       y       z     vdW  Elec       q    Type
REMARK                         _______ _______ _______ _____ _____    ______ ____
ROOT
ATOM      1  C   UNL     1       3.902  -4.161  -0.041  0.00  0.00    +0.070 C 
ATOM      2  C   UNL     1       4.138  -4.641   1.394  0.00  0.00    +0.004 C 
ATOM      3  C   UNL     1       5.153  -5.786   1.383  0.00  0.00    -0.076 C 
ATOM      4  N   UNL     1       6.419  -5.316   0.808  0.00  0.00    +0.386 N 
ATOM      5  C   UNL     1       6.215  -4.921  -0.591  0.00  0.00    -0.076 C 
ATOM      6  C   UNL     1       5.241  -3.743  -0.655  0.00  0.00    +0.004 C 
ATOM      7  H   UNL     1       6.753  -4.523   1.335  0.00  0.00    -0.081 HD
ENDROOT
BRANCH   1  10
ATOM      8  C   UNL     1       1.656  -3.216  -0.025  0.00  0.00    +0.280 C 
ATOM      9  O   UNL     1       1.211  -4.349  -0.028  0.00  0.00    -0.267 OA
ATOM     10  N   UNL     1       2.989  -3.016  -0.030  0.00  0.00    -0.306 N 
ATOM     11  H   UNL     1       3.343  -2.113  -0.027  0.00  0.00    +0.149 HD
BRANCH   8  16
ATOM     12  C   UNL     1      -0.018   1.503   0.010  0.00  0.00    +0.086 C 
ATOM     13  C   UNL     1       0.002  -0.004   0.002  0.00  0.00    +0.103 A 
ATOM     14  C   UNL     1      -1.086  -0.806   0.003  0.00  0.00    +0.045 A 
ATOM     15  C   UNL     1      -0.622  -2.131  -0.007  0.00  0.00    +0.055 A 
ATOM     16  C   UNL     1       0.742  -2.070  -0.014  0.00  0.00    +0.189 A 
ATOM     17  O   UNL     1       1.101  -0.769  -0.013  0.00  0.00    -0.455 OA
ENDBRANCH   8  16
ENDBRANCH   1  10
BRANCH   4  18
ATOM     18  C   UNL     1       7.414  -6.395   0.871  0.00  0.00    +0.001 C 
ATOM     19  C   UNL     1       8.735  -5.906   0.272  0.00  0.00    -0.005 C 
BRANCH  18  20
ATOM     20  C   UNL     1       7.631  -6.795   2.307  0.00  0.00    +0.152 C 
ATOM     21  O   UNL     1       7.240  -6.076   3.204  0.00  0.00    -0.294 OA
BRANCH  20  22
ATOM     22  C   UNL     1       8.293  -8.011   2.612  0.00  0.00    +0.041 A 
ATOM     23  C   UNL     1       8.798  -8.927   1.713  0.00  0.00    +0.095 A 
ATOM     24  N   UNL     1       9.355  -9.955   2.380  0.00  0.00    -0.360 N 
ATOM     25  H   UNL     1       9.776 -10.722   1.960  0.00  0.00    +0.165 HD
ATOM     26  C   UNL     1       9.245  -9.770   3.744  0.00  0.00    +0.047 A 
ATOM     27  C   UNL     1       8.585  -8.549   3.955  0.00  0.00    +0.010 A 
ATOM     28  C   UNL     1       8.340  -8.102   5.250  0.00  0.00    +0.011 A 
ATOM     29  C   UNL     1       8.753  -8.861   6.324  0.00  0.00    +0.001 A 
ATOM     30  C   UNL     1       9.409 -10.066   6.117  0.00  0.00    +0.002 A 
ATOM     31  C   UNL     1       9.650 -10.524   4.840  0.00  0.00    +0.026 A 
ENDBRANCH  20  22
ENDBRANCH  18  20
ENDBRANCH   4  18
TORSDOF 5
