REMARK  Name = ZINC12497411
REMARK  13 active torsions:
REMARK  status: ('A' for Active; 'I' for Inactive)
REMARK    1  A    between atoms: C_1  and  C_2
REMARK    2  A    between atoms: C_5  and  N_8
REMARK    3  A    between atoms: C_13  and  C_28
REMARK    4  A    between atoms: C_15  and  C_20
REMARK    5  A    between atoms: C_15  and  C_24
REMARK    6  A    between atoms: C_20  and  C_21
REMARK    7  A    between atoms: C_21  and  S_22
REMARK    8  A    between atoms: S_22  and  C_23
REMARK    9  A    between atoms: C_24  and  O_26
REMARK   10  A    between atoms: O_26  and  C_27
REMARK   11  A    between atoms: C_31  and  O_36
REMARK   12  A    between atoms: C_32  and  O_34
REMARK   13  A    between atoms: O_34  and  C_35
REMARK                            x       y       z     vdW  Elec       q    Type
REMARK                         _______ _______ _______ _____ _____    ______ ____
ROOT
ATOM      1  N   UNL     1       1.062   2.060   0.003  0.00  0.00    -0.210 N 
ATOM      2  C   UNL     1      -0.014   1.208   0.009  0.00  0.00    +0.229 C 
ATOM      3  O   UNL     1       0.002  -0.004   0.002  0.00  0.00    -0.275 OA
ATOM      4  C   UNL     1      -1.184   2.083   0.018  0.00  0.00    +0.077 C 
ATOM      5  C   UNL     1      -2.574   1.944  -0.481  0.00  0.00    -0.027 C 
ATOM      6  C   UNL     1      -1.784   4.224  -0.675  0.00  0.00    +0.044 C 
ATOM      7  C   UNL     1      -0.645   3.255  -0.888  0.00  0.00    +0.086 C 
ATOM      8  C   UNL     1       0.711   3.348  -0.305  0.00  0.00    +0.229 C 
ATOM      9  O   UNL     1       1.371   4.351  -0.134  0.00  0.00    -0.275 OA
ATOM     10  N   UNL     1      -2.978   3.338  -0.824  0.00  0.00    +0.395 N 
ATOM     11  H   UNL     1      -3.722   3.650  -0.190  0.00  0.00    -0.083 HD
ATOM     12  H   UNL     1      -3.316   3.372  -1.793  0.00  0.00    -0.083 HD
ENDROOT
BRANCH   1  17
ATOM     13  C   UNL     1       6.379   0.424   1.128  0.00  0.00    +0.044 C 
ATOM     14  C   UNL     1       4.967   0.859   0.830  0.00  0.00    -0.050 A 
ATOM     15  C   UNL     1       3.940  -0.067   0.858  0.00  0.00    +0.005 A 
ATOM     16  C   UNL     1       2.645   0.328   0.585  0.00  0.00    +0.024 A 
ATOM     17  C   UNL     1       2.375   1.656   0.281  0.00  0.00    +0.044 A 
ATOM     18  C   UNL     1       3.409   2.581   0.248  0.00  0.00    +0.024 A 
ATOM     19  C   UNL     1       4.702   2.182   0.528  0.00  0.00    +0.005 A 
ENDBRANCH   1  17
BRANCH   5  20
ATOM     20  C   UNL     1      -2.606   1.066  -1.705  0.00  0.00    -0.057 A 
ATOM     21  C   UNL     1      -2.194   1.569  -2.925  0.00  0.00    +0.006 A 
ATOM     22  C   UNL     1      -2.222   0.768  -4.051  0.00  0.00    +0.049 A 
ATOM     23  C   UNL     1      -2.662  -0.543  -3.958  0.00  0.00    +0.158 A 
ATOM     24  C   UNL     1      -3.075  -1.049  -2.730  0.00  0.00    +0.161 A 
ATOM     25  C   UNL     1      -3.041  -0.242  -1.604  0.00  0.00    +0.051 A 
BRANCH  24  26
ATOM     26  O   UNL     1      -3.508  -2.335  -2.634  0.00  0.00    -0.491 OA
ATOM     27  C   UNL     1      -3.917  -2.787  -1.341  0.00  0.00    +0.277 C 
ENDBRANCH  24  26
BRANCH  23  28
ATOM     28  O   UNL     1      -2.689  -1.333  -5.065  0.00  0.00    -0.503 OA
ATOM     29  H   UNL     1      -1.872  -1.826  -5.217  0.00  0.00    +0.292 HD
ENDBRANCH  23  28
ENDBRANCH   5  20
BRANCH   6  30
ATOM     30  C   UNL     1      -1.728   4.820   0.708  0.00  0.00    +0.297 C 
ATOM     31  O   UNL     1      -0.675   4.880   1.298  0.00  0.00    -0.252 OA
BRANCH  30  32
ATOM     32  O   UNL     1      -2.848   5.283   1.284  0.00  0.00    -0.469 OA
ATOM     33  C   UNL     1      -2.719   5.844   2.618  0.00  0.00    +0.280 C 
ENDBRANCH  30  32
ENDBRANCH   6  30
BRANCH   6  34
ATOM     34  C   UNL     1      -1.772   5.320  -1.742  0.00  0.00    +0.010 C 
BRANCH  34  35
ATOM     35  C   UNL     1      -2.936   6.282  -1.498  0.00  0.00    +0.068 C 
BRANCH  35  36
ATOM     36  S   UNL     1      -2.922   7.582  -2.763  0.00  0.00    -0.164 S 
ATOM     37  C   UNL     1      -4.343   8.625  -2.336  0.00  0.00    +0.084 C 
ENDBRANCH  35  36
ENDBRANCH  34  35
ENDBRANCH   6  34
TORSDOF 9
