REMARK  Name = ZINC15083628
REMARK  7 active torsions:
REMARK  status: ('A' for Active; 'I' for Inactive)
REMARK    1  A    between atoms: C_1  and  C_2
REMARK    2  A    between atoms: C_9  and  N_13
REMARK    3  A    between atoms: C_10  and  C_11
REMARK    4  A    between atoms: C_14  and  C_16
REMARK    5  A    between atoms: N_18  and  C_19
REMARK    6  A    between atoms: C_19  and  C_20
REMARK    7  A    between atoms: C_20  and  O_21
REMARK                            x       y       z     vdW  Elec       q    Type
REMARK                         _______ _______ _______ _____ _____    ______ ____
ROOT
ATOM      1  C   UNL     1      -4.799   4.659  -0.038  0.00  0.00    +0.008 C 
ATOM      2  C   UNL     1      -3.595   3.763  -0.338  0.00  0.00    -0.009 C 
ATOM      3  C   UNL     1      -3.689   2.481   0.494  0.00  0.00    +0.008 C 
ATOM      4  C   UNL     1      -2.635   1.477   0.023  0.00  0.00    +0.037 C 
ATOM      5  C   UNL     1      -1.271   2.160   0.020  0.00  0.00    -0.018 A 
ATOM      6  C   UNL     1      -1.175   3.510   0.032  0.00  0.00    -0.004 A 
ATOM      7  S   UNL     1       0.565   3.842   0.017  0.00  0.00    -0.077 S 
ATOM      8  C   UNL     1       1.163   2.161   0.003  0.00  0.00    +0.090 A 
ATOM      9  C   UNL     1      -0.017   1.428   0.010  0.00  0.00    +0.084 A 
ATOM     10  C   UNL     1      -2.300   4.498   0.047  0.00  0.00    +0.046 C 
ENDROOT
BRANCH   8  11
ATOM     11  N   UNL     1       2.470   1.704  -0.012  0.00  0.00    -0.271 N 
ATOM     12  C   UNL     1       3.492   2.583  -0.017  0.00  0.00    +0.304 C 
ATOM     13  O   UNL     1       3.266   3.776  -0.009  0.00  0.00    -0.265 OA
ATOM     14  H   UNL     1       2.651   0.751  -0.019  0.00  0.00    +0.156 HD
BRANCH  12  15
ATOM     15  C   UNL     1       4.901   2.090  -0.033  0.00  0.00    +0.299 C 
ATOM     16  O   UNL     1       5.126   0.898  -0.041  0.00  0.00    -0.265 OA
ATOM     17  N   UNL     1       5.922   2.970  -0.038  0.00  0.00    -0.305 N 
ATOM     18  H   UNL     1       5.742   3.922  -0.031  0.00  0.00    +0.149 HD
BRANCH  17  19
ATOM     19  C   UNL     1       7.305   2.486  -0.053  0.00  0.00    +0.132 C 
BRANCH  19  20
ATOM     20  C   UNL     1       8.263   3.679  -0.056  0.00  0.00    +0.174 C 
BRANCH  20  21
ATOM     21  O   UNL     1       8.128   4.401   1.170  0.00  0.00    -0.393 OA
ATOM     22  H   UNL     1       8.707   5.172   1.237  0.00  0.00    +0.209 HD
ENDBRANCH  20  21
ENDBRANCH  19  20
ENDBRANCH  17  19
ENDBRANCH  12  15
ENDBRANCH   8  11
BRANCH   9  23
ATOM     23  C   UNL     1       0.002  -0.004   0.002  0.00  0.00    +0.102 C 
ATOM     24  N   UNL     1       0.018  -1.140  -0.004  0.00  0.00    -0.191 NA
ENDBRANCH   9  23
TORSDOF 6
