REMARK  Name = ZINC18071044
REMARK  10 active torsions:
REMARK  status: ('A' for Active; 'I' for Inactive)
REMARK    1  A    between atoms: C_1  and  C_2
REMARK    2  A    between atoms: C_2  and  O_3
REMARK    3  A    between atoms: O_3  and  C_4
REMARK    4  A    between atoms: C_7  and  O_10
REMARK    5  A    between atoms: O_10  and  C_11
REMARK    6  A    between atoms: C_11  and  C_13
REMARK    7  A    between atoms: C_11  and  C_14
REMARK    8  A    between atoms: N_16  and  N_17
REMARK    9  A    between atoms: C_18  and  C_20
REMARK   10  A    between atoms: C_29  and  O_30
REMARK                            x       y       z     vdW  Elec       q    Type
REMARK                         _______ _______ _______ _____ _____    ______ ____
ROOT
ATOM      1  C   UNL     1       0.626  -0.282  -1.345  0.00  0.00    +0.270 C 
ATOM      2  O   UNL     1      -0.044  -0.754  -2.238  0.00  0.00    -0.270 OA
ATOM      3  N   UNL     1       1.927   0.001  -1.556  0.00  0.00    -0.231 N 
ATOM      4  H   UNL     1       2.463   0.378  -0.841  0.00  0.00    +0.173 HD
ENDROOT
BRANCH   3   5
ATOM      5  N   UNL     1       2.505  -0.251  -2.807  0.00  0.00    -0.230 N 
ATOM      6  C   UNL     1       3.805   0.032  -3.018  0.00  0.00    +0.264 C 
ATOM      7  O   UNL     1       4.478   0.506  -2.122  0.00  0.00    -0.269 OA
ATOM      8  H   UNL     1       1.968  -0.628  -3.522  0.00  0.00    +0.173 HD
BRANCH   6   9
ATOM      9  C   UNL     1       4.414  -0.233  -4.336  0.00  0.00    +0.080 A 
ATOM     10  C   UNL     1       3.646  -0.777  -5.352  0.00  0.00    +0.025 A 
ATOM     11  C   UNL     1       4.228  -1.021  -6.604  0.00  0.00    -0.017 A 
ATOM     12  C   UNL     1       3.476  -1.569  -7.660  0.00  0.00    +0.008 A 
ATOM     13  C   UNL     1       4.071  -1.800  -8.861  0.00  0.00    +0.001 A 
ATOM     14  C   UNL     1       5.418  -1.503  -9.064  0.00  0.00    +0.001 A 
ATOM     15  C   UNL     1       6.177  -0.973  -8.067  0.00  0.00    +0.008 A 
ATOM     16  C   UNL     1       5.599  -0.719  -6.811  0.00  0.00    -0.014 A 
ATOM     17  C   UNL     1       6.357  -0.172  -5.762  0.00  0.00    +0.054 A 
ATOM     18  C   UNL     1       5.776   0.065  -4.552  0.00  0.00    +0.130 A 
BRANCH  18  19
ATOM     19  O   UNL     1       6.516   0.594  -3.544  0.00  0.00    -0.506 OA
ATOM     20  H   UNL     1       6.950  -0.067  -2.987  0.00  0.00    +0.292 HD
ENDBRANCH  18  19
ENDBRANCH   6   9
ENDBRANCH   3   5
BRANCH   1  21
ATOM     21  C   UNL     1       0.005  -0.012   0.001  0.00  0.00    +0.257 C 
ATOM     22  C   UNL     1       0.004   1.495   0.269  0.00  0.00    +0.062 C 
BRANCH  21  23
ATOM     23  O   UNL     1      -1.339  -0.499   0.012  0.00  0.00    -0.480 OA
BRANCH  23  27
ATOM     24  C   UNL     1      -2.951  -1.468   3.687  0.00  0.00    +0.121 A 
ATOM     25  C   UNL     1      -1.694  -0.886   3.613  0.00  0.00    +0.049 A 
ATOM     26  C   UNL     1      -1.155  -0.561   2.383  0.00  0.00    +0.049 A 
ATOM     27  C   UNL     1      -1.870  -0.818   1.223  0.00  0.00    +0.122 A 
ATOM     28  C   UNL     1      -3.129  -1.395   1.297  0.00  0.00    +0.049 A 
ATOM     29  C   UNL     1      -3.666  -1.723   2.526  0.00  0.00    +0.049 A 
BRANCH  24  30
ATOM     30  O   UNL     1      -3.482  -1.788   4.897  0.00  0.00    -0.492 OA
BRANCH  30  32
ATOM     31  C   UNL     1      -5.208  -2.671   6.340  0.00  0.00    +0.048 C 
ATOM     32  C   UNL     1      -4.780  -2.384   4.899  0.00  0.00    +0.225 C 
ENDBRANCH  30  32
ENDBRANCH  24  30
ENDBRANCH  23  27
ENDBRANCH  21  23
ENDBRANCH   1  21
TORSDOF 8
