REMARK  Name = ZINC06161814
REMARK  5 active torsions:
REMARK  status: ('A' for Active; 'I' for Inactive)
REMARK    1  A    between atoms: C_10  and  S_11
REMARK    2  A    between atoms: S_11  and  N_14
REMARK    3  A    between atoms: C_17  and  C_20
REMARK    4  A    between atoms: N_29  and  C_30
REMARK    5  A    between atoms: C_30  and  C_31
REMARK                            x       y       z     vdW  Elec       q    Type
REMARK                         _______ _______ _______ _____ _____    ______ ____
ROOT
ATOM      1  C   UNL     1      -2.343   0.030  -0.610  0.00  0.00    +0.116 A 
ATOM      2  N   UNL     1      -1.198  -0.607  -0.730  0.00  0.00    -0.326 N 
ATOM      3  C   UNL     1      -0.060   0.067  -0.872  0.00  0.00    +0.164 A 
ATOM      4  C   UNL     1      -0.094   1.473  -0.893  0.00  0.00    +0.195 A 
ATOM      5  C   UNL     1      -1.344   2.105  -0.757  0.00  0.00    +0.303 A 
ATOM      6  N   UNL     1      -2.425   1.348  -0.625  0.00  0.00    -0.194 NA
ATOM      7  O   UNL     1      -1.442   3.455  -0.770  0.00  0.00    -0.263 OA
ATOM      8  N   UNL     1       1.166   1.913  -1.050  0.00  0.00    -0.122 NA
ATOM      9  N   UNL     1       1.977   0.916  -1.128  0.00  0.00    -0.063 NA
ATOM     10  N   UNL     1       1.254  -0.282  -1.021  0.00  0.00    -0.224 N 
ATOM     11  H   UNL     1      -1.183  -1.607  -0.714  0.00  0.00    +0.169 HD
ENDROOT
BRANCH   1  15
ATOM     12  N   UNL     1      -6.401  -1.074  -0.126  0.00  0.00    -0.177 NA
ATOM     13  C   UNL     1      -5.542  -1.259   1.052  0.00  0.00    +0.110 C 
ATOM     14  C   UNL     1      -4.276  -0.415   0.877  0.00  0.00    +0.028 C 
ATOM     15  C   UNL     1      -3.607  -0.775  -0.451  0.00  0.00    +0.058 C 
ATOM     16  C   UNL     1      -4.560  -0.460  -1.606  0.00  0.00    +0.028 C 
ATOM     17  C   UNL     1      -5.830  -1.305  -1.460  0.00  0.00    +0.110 C 
BRANCH  12  18
ATOM     18  S   UNL     1      -7.982  -0.612   0.046  0.00  0.00    +0.061 S 
ATOM     19  O   UNL     1      -8.630  -0.917  -1.181  0.00  0.00    -0.153 OA
ATOM     20  O   UNL     1      -8.424  -1.134   1.292  0.00  0.00    -0.153 OA
BRANCH  18  30
ATOM     21  C   UNL     1     -11.410   3.148   1.544  0.00  0.00    +0.001 A 
ATOM     22  C   UNL     1     -11.416   1.759   1.427  0.00  0.00    +0.001 A 
ATOM     23  C   UNL     1     -10.316   1.087   0.991  0.00  0.00    +0.010 A 
ATOM     24  C   UNL     1      -9.155   1.802   0.649  0.00  0.00    +0.008 A 
ATOM     25  C   UNL     1      -9.147   3.214   0.772  0.00  0.00    -0.016 A 
ATOM     26  C   UNL     1     -10.303   3.873   1.226  0.00  0.00    +0.008 A 
ATOM     27  C   UNL     1      -7.985   3.929   0.434  0.00  0.00    +0.008 A 
ATOM     28  C   UNL     1      -6.884   3.257  -0.001  0.00  0.00    +0.003 A 
ATOM     29  C   UNL     1      -6.890   1.868  -0.117  0.00  0.00    +0.029 A 
ATOM     30  C   UNL     1      -7.997   1.143   0.202  0.00  0.00    +0.113 A 
ENDBRANCH  18  30
ENDBRANCH  12  18
ENDBRANCH   1  15
BRANCH  10  31
ATOM     31  C   UNL     1       1.800  -1.641  -1.061  0.00  0.00    +0.185 C 
BRANCH  31  32
ATOM     32  C   UNL     1       1.821  -2.131  -2.486  0.00  0.00    +0.011 A 
ATOM     33  C   UNL     1       0.730  -2.809  -3.001  0.00  0.00    +0.047 A 
ATOM     34  C   UNL     1       0.747  -3.254  -4.311  0.00  0.00    +0.020 A 
ATOM     35  C   UNL     1       1.859  -3.032  -5.101  0.00  0.00    +0.003 A 
ATOM     36  C   UNL     1       2.951  -2.360  -4.586  0.00  0.00    +0.020 A 
ATOM     37  C   UNL     1       2.933  -1.909  -3.278  0.00  0.00    +0.047 A 
ATOM     38 CL   UNL     1       4.305  -1.065  -2.631  0.00  0.00    -0.083 Cl
ATOM     39 CL   UNL     1      -0.664  -3.094  -2.006  0.00  0.00    -0.083 Cl
ENDBRANCH  31  32
ENDBRANCH  10  31
TORSDOF 5
