REMARK  Name = ZINC39957964
REMARK  11 active torsions:
REMARK  status: ('A' for Active; 'I' for Inactive)
REMARK    1  A    between atoms: C_1  and  C_2
REMARK    2  A    between atoms: C_2  and  O_3
REMARK    3  A    between atoms: O_3  and  C_4
REMARK    4  A    between atoms: C_6  and  C_28
REMARK    5  A    between atoms: C_7  and  C_13
REMARK    6  A    between atoms: C_9  and  C_10
REMARK    7  A    between atoms: C_10  and  C_11
REMARK    8  A    between atoms: C_10  and  C_12
REMARK    9  A    between atoms: C_15  and  C_26
REMARK   10  A    between atoms: C_16  and  N_25
REMARK   11  A    between atoms: C_21  and  C_24
REMARK                            x       y       z     vdW  Elec       q    Type
REMARK                         _______ _______ _______ _____ _____    ______ ____
ROOT
ATOM      1  C   UNL     1      -2.001  -6.092  -0.010  0.00  0.00    +0.098 C 
ATOM      2  C   UNL     1      -2.816  -6.520  -1.217  0.00  0.00    +0.097 C 
ATOM      3  C   UNL     1      -4.076  -6.988  -1.092  0.00  0.00    +0.195 C 
ATOM      4  O   UNL     1      -4.758  -7.163   0.054  0.00  0.00    -0.448 OA
ATOM      5  C   UNL     1      -4.326  -6.419   1.196  0.00  0.00    +0.343 C 
ATOM      6  C   UNL     1      -2.797  -6.526   1.190  0.00  0.00    +0.030 C 
ATOM      7  C   UNL     1      -2.483  -7.040   2.354  0.00  0.00    +0.066 C 
ATOM      8  N   UNL     1      -3.607  -7.364   3.044  0.00  0.00    -0.155 NA
ATOM      9  N   UNL     1      -4.683  -7.070   2.460  0.00  0.00    -0.138 NA
ATOM     10  C   UNL     1      -1.077  -7.243   2.855  0.00  0.00    +0.067 C 
ENDROOT
BRANCH   1  14
ATOM     11  C   UNL     1      -1.498  -1.848   0.006  0.00  0.00    +0.124 A 
ATOM     12  C   UNL     1      -0.387  -2.679  -0.003  0.00  0.00    +0.049 A 
ATOM     13  C   UNL     1      -0.552  -4.051  -0.008  0.00  0.00    -0.043 A 
ATOM     14  C   UNL     1      -1.823  -4.596  -0.004  0.00  0.00    -0.031 A 
ATOM     15  C   UNL     1      -2.932  -3.769   0.004  0.00  0.00    +0.012 A 
ATOM     16  C   UNL     1      -2.772  -2.397   0.016  0.00  0.00    -0.003 A 
ATOM     17  C   UNL     1       0.654  -4.954  -0.019  0.00  0.00    +0.044 C 
BRANCH  16  18
ATOM     18  C   UNL     1      -3.981  -1.497   0.032  0.00  0.00    +0.016 C 
ATOM     19  C   UNL     1      -4.832  -1.765  -1.211  0.00  0.00    +0.012 C 
ATOM     20  C   UNL     1      -4.809  -1.778   1.287  0.00  0.00    +0.012 C 
ENDBRANCH  16  18
BRANCH  11  21
ATOM     21  O   UNL     1      -1.339  -0.499   0.012  0.00  0.00    -0.492 OA
BRANCH  21  23
ATOM     22  C   UNL     1      -0.019   1.526   0.010  0.00  0.00    +0.048 C 
ATOM     23  C   UNL     1       0.002  -0.004   0.002  0.00  0.00    +0.225 C 
ENDBRANCH  21  23
ENDBRANCH  11  21
ENDBRANCH   1  14
BRANCH   3  24
ATOM     24  N   UNL     1      -4.727  -7.318  -2.254  0.00  0.00    -0.329 N 
ATOM     25  H   UNL     1      -4.281  -7.211  -3.108  0.00  0.00    +0.145 HD
ATOM     26  H   UNL     1      -5.635  -7.660  -2.220  0.00  0.00    +0.145 HD
ENDBRANCH   3  24
BRANCH   2  27
ATOM     27  C   UNL     1      -2.234  -6.423  -2.522  0.00  0.00    +0.101 C 
ATOM     28  N   UNL     1      -1.772  -6.347  -3.557  0.00  0.00    -0.191 NA
ENDBRANCH   2  27
TORSDOF 6
