REMARK  Name = ZINC06149311
REMARK  13 active torsions:
REMARK  status: ('A' for Active; 'I' for Inactive)
REMARK    1  A    between atoms: C_1  and  C_2
REMARK    2  A    between atoms: C_2  and  C_3
REMARK    3  A    between atoms: C_3  and  C_4
REMARK    4  A    between atoms: C_3  and  C_5
REMARK    5  A    between atoms: C_3  and  N_6
REMARK    6  A    between atoms: C_7  and  C_11
REMARK    7  A    between atoms: C_11  and  C_13
REMARK    8  A    between atoms: C_11  and  N_69
REMARK    9  A    between atoms: C_19  and  C_25
REMARK   10  A    between atoms: C_26  and  C_27
REMARK   11  A    between atoms: C_26  and  N_69
REMARK   12  A    between atoms: C_33  and  C_34
REMARK   13  A    between atoms: C_33  and  N_69
REMARK                            x       y       z     vdW  Elec       q    Type
REMARK                         _______ _______ _______ _____ _____    ______ ____
ROOT
ATOM      1  C   UNL     1      -0.613  -3.558   5.127  0.00  0.00    +0.040 C 
ENDROOT
BRANCH   1   2
ATOM      2  C   UNL     1      -1.025  -2.728   3.938  0.00  0.00    +0.011 A 
ATOM      3  C   UNL     1      -2.316  -2.334   3.804  0.00  0.00    +0.017 A 
ATOM      4  C   UNL     1      -2.684  -1.530   2.638  0.00  0.00    -0.001 A 
ATOM      5  C   UNL     1      -3.999  -1.094   2.445  0.00  0.00    +0.010 A 
ATOM      6  C   UNL     1      -4.310  -0.345   1.346  0.00  0.00    +0.001 A 
ATOM      7  C   UNL     1      -3.331  -0.007   0.421  0.00  0.00    +0.005 A 
ATOM      8  C   UNL     1      -2.030  -0.430   0.588  0.00  0.00    -0.026 A 
ATOM      9  C   UNL     1      -1.690  -1.194   1.699  0.00  0.00    +0.052 A 
ATOM     10  N   UNL     1      -0.395  -1.627   1.893  0.00  0.00    -0.322 N 
ATOM     11  H   UNL     1       0.309  -1.389   1.225  0.00  0.00    +0.169 HD
ATOM     12  C   UNL     1      -0.067  -2.365   2.968  0.00  0.00    +0.251 A 
ATOM     13  O   UNL     1       1.088  -2.729   3.108  0.00  0.00    -0.268 OA
ATOM     14  C   UNL     1      -0.979  -0.061  -0.427  0.00  0.00    +0.046 C 
ENDBRANCH   1   2
BRANCH   1  16
ATOM     15  N   UNL     1      -2.386  -4.758   6.513  0.00  0.00    -0.225 N 
ATOM     16  C   UNL     1      -1.758  -3.640   6.103  0.00  0.00    +0.143 A 
ATOM     17  N   UNL     1      -2.333  -2.638   6.722  0.00  0.00    -0.115 NA
ATOM     18  N   UNL     1      -3.270  -3.114   7.467  0.00  0.00    -0.023 NA
ATOM     19  N   UNL     1      -3.303  -4.396   7.346  0.00  0.00    -0.043 NA
BRANCH  15  20
ATOM     20  C   UNL     1      -2.085  -6.129   6.093  0.00  0.00    +0.061 C 
ATOM     21  C   UNL     1      -2.316  -6.262   4.586  0.00  0.00    +0.036 C 
ATOM     22  C   UNL     1      -0.625  -6.452   6.416  0.00  0.00    +0.036 C 
BRANCH  20  24
ATOM     23  C   UNL     1      -2.686  -8.534   6.398  0.00  0.00    +0.006 C 
ATOM     24  C   UNL     1      -3.000  -7.103   6.837  0.00  0.00    +0.026 C 
ENDBRANCH  20  24
ENDBRANCH  15  20
ENDBRANCH   1  16
BRANCH   1  25
ATOM     25  N   UNL     1       0.563  -2.926   5.762  0.00  0.00    +0.395 N 
ATOM     26  H   UNL     1       1.247  -2.687   5.034  0.00  0.00    -0.079 HD
BRANCH  25  27
ATOM     27  C   UNL     1       1.188  -3.867   6.716  0.00  0.00    -0.041 C 
BRANCH  27  28
ATOM     28  C   UNL     1       2.472  -3.264   7.224  0.00  0.00    -0.064 A 
ATOM     29  C   UNL     1       3.634  -3.387   6.485  0.00  0.00    +0.002 A 
ATOM     30  C   UNL     1       4.811  -2.829   6.948  0.00  0.00    +0.000 A 
ATOM     31  C   UNL     1       4.828  -2.157   8.156  0.00  0.00    +0.000 A 
ATOM     32  C   UNL     1       3.668  -2.039   8.898  0.00  0.00    +0.000 A 
ATOM     33  C   UNL     1       2.490  -2.592   8.432  0.00  0.00    +0.002 A 
ENDBRANCH  27  28
ENDBRANCH  25  27
BRANCH  25  34
ATOM     34  C   UNL     1       0.157  -1.691   6.463  0.00  0.00    -0.034 C 
BRANCH  34  35
ATOM     35  C   UNL     1       0.006  -0.587   5.449  0.00  0.00    -0.027 A 
ATOM     36  C   UNL     1      -1.124  -0.094   4.886  0.00  0.00    +0.009 A 
ATOM     37  C   UNL     1      -1.022   0.934   3.967  0.00  0.00    +0.008 A 
ATOM     38  C   UNL     1       0.205   1.417   3.655  0.00  0.00    +0.045 A 
ATOM     39  S   UNL     1       1.268   0.415   4.681  0.00  0.00    -0.103 S 
ENDBRANCH  34  35
ENDBRANCH  25  34
ENDBRANCH   1  25
TORSDOF 9
