REMARK  Name = ZINC00859644
REMARK  3 active torsions:
REMARK  status: ('A' for Active; 'I' for Inactive)
REMARK    1  A    between atoms: C_9  and  O_26
REMARK    2  A    between atoms: C_10  and  C_11
REMARK    3  A    between atoms: N_16  and  C_19
REMARK                            x       y       z     vdW  Elec       q    Type
REMARK                         _______ _______ _______ _____ _____    ______ ____
ROOT
ATOM      1  C   UNL     1      -2.547   1.664   0.011  0.00  0.00    +0.030 C 
ATOM      2  C   UNL     1      -1.219   2.057  -0.004  0.00  0.00    +0.102 C 
ATOM      3  C   UNL     1      -0.683   3.412   0.219  0.00  0.00    +0.266 C 
ATOM      4  O   UNL     1      -1.328   4.416   0.457  0.00  0.00    -0.268 OA
ATOM      5  N   UNL     1       0.655   3.327   0.105  0.00  0.00    -0.223 N 
ATOM      6  N   UNL     1       1.041   2.015  -0.171  0.00  0.00    -0.184 N 
ATOM      7  C   UNL     1      -0.037   1.211  -0.244  0.00  0.00    +0.272 C 
ATOM      8  O   UNL     1      -0.035   0.015  -0.471  0.00  0.00    -0.268 OA
ATOM      9  H   UNL     1       1.267   4.074   0.202  0.00  0.00    +0.174 HD
ENDROOT
BRANCH   1  19
ATOM     10  C   UNL     1      -6.330   2.558   3.342  0.00  0.00    +0.001 A 
ATOM     11  C   UNL     1      -5.337   1.587   3.258  0.00  0.00    +0.001 A 
ATOM     12  C   UNL     1      -4.438   1.593   2.231  0.00  0.00    +0.009 A 
ATOM     13  C   UNL     1      -4.514   2.587   1.252  0.00  0.00    -0.007 A 
ATOM     14  C   UNL     1      -5.522   3.577   1.334  0.00  0.00    -0.017 A 
ATOM     15  C   UNL     1      -6.432   3.541   2.404  0.00  0.00    +0.008 A 
ATOM     16  C   UNL     1      -5.597   4.577   0.347  0.00  0.00    +0.012 A 
ATOM     17  C   UNL     1      -4.714   4.607  -0.686  0.00  0.00    +0.046 A 
ATOM     18  C   UNL     1      -3.699   3.660  -0.813  0.00  0.00    +0.125 A 
ATOM     19  C   UNL     1      -3.568   2.631   0.132  0.00  0.00    +0.025 A 
BRANCH  18  20
ATOM     20  O   UNL     1      -2.837   3.731  -1.856  0.00  0.00    -0.506 OA
ATOM     21  H   UNL     1      -3.157   3.301  -2.661  0.00  0.00    +0.292 HD
ENDBRANCH  18  20
ENDBRANCH   1  19
BRANCH   6  22
ATOM     22  C   UNL     1       2.363   1.594  -0.349  0.00  0.00    +0.056 A 
ATOM     23  C   UNL     1       2.638   0.259  -0.617  0.00  0.00    +0.026 A 
ATOM     24  C   UNL     1       3.943  -0.153  -0.797  0.00  0.00    +0.022 A 
ATOM     25  C   UNL     1       4.978   0.760  -0.700  0.00  0.00    +0.041 A 
ATOM     26  C   UNL     1       4.708   2.090  -0.428  0.00  0.00    +0.022 A 
ATOM     27  C   UNL     1       3.404   2.508  -0.252  0.00  0.00    +0.026 A 
ATOM     28 CL   UNL     1       6.619   0.237  -0.920  0.00  0.00    -0.084 Cl
ENDBRANCH   6  22
TORSDOF 3
