REMARK  Name = ZINC39663968
REMARK  12 active torsions:
REMARK  status: ('A' for Active; 'I' for Inactive)
REMARK    1  A    between atoms: C_1  and  C_2
REMARK    2  A    between atoms: C_4  and  C_8
REMARK    3  A    between atoms: N_6  and  C_7
REMARK    4  A    between atoms: C_12  and  C_21
REMARK    5  A    between atoms: N_23  and  C_24
REMARK    6  A    between atoms: C_24  and  C_25
REMARK    7  A    between atoms: C_25  and  C_27
REMARK    8  A    between atoms: C_25  and  N_35
REMARK    9  A    between atoms: C_30  and  O_33
REMARK   10  A    between atoms: O_33  and  C_34
REMARK   11  A    between atoms: N_35  and  C_36
REMARK   12  A    between atoms: N_35  and  C_37
REMARK                            x       y       z     vdW  Elec       q    Type
REMARK                         _______ _______ _______ _____ _____    ______ ____
ROOT
ATOM      1  C   UNL     1       0.851  -4.438  -0.837  0.00  0.00    +0.267 C 
ATOM      2  O   UNL     1       0.980  -4.348  -2.042  0.00  0.00    -0.268 OA
ATOM      3  N   UNL     1       0.623  -5.640  -0.271  0.00  0.00    -0.295 N 
ATOM      4  C   UNL     1       0.434  -5.946   1.167  0.00  0.00    +0.121 C 
ATOM      5  C   UNL     1      -0.682  -7.015   1.195  0.00  0.00    +0.100 C 
ATOM      6  C   UNL     1      -0.628  -7.674  -0.193  0.00  0.00    -0.004 C 
ATOM      7  C   UNL     1       0.499  -6.954  -0.947  0.00  0.00    +0.115 C 
ATOM      8  C   UNL     1      -0.311  -9.161  -0.060  0.00  0.00    -0.010 C 
ATOM      9  C   UNL     1      -0.321  -9.806  -1.449  0.00  0.00    -0.082 C 
ATOM     10  N   UNL     1      -1.639  -9.620  -2.068  0.00  0.00    +0.379 N 
ATOM     11  C   UNL     1      -1.896  -8.190  -2.277  0.00  0.00    -0.082 C 
ATOM     12  C   UNL     1      -1.953  -7.476  -0.924  0.00  0.00    -0.010 C 
ATOM     13  H   UNL     1      -1.662 -10.098  -2.956  0.00  0.00    -0.086 HD
ATOM     14  H   UNL     1      -2.350 -10.004  -1.464  0.00  0.00    -0.086 HD
ENDROOT
BRANCH   1  18
ATOM     15  C   UNL     1       1.387   0.347   0.745  0.00  0.00    +0.065 C 
ATOM     16  C   UNL     1       1.178  -1.144   0.681  0.00  0.00    +0.037 A 
ATOM     17  C   UNL     1       1.177  -1.907  -0.437  0.00  0.00    +0.057 A 
ATOM     18  C   UNL     1       0.943  -3.230   0.008  0.00  0.00    +0.147 A 
ATOM     19  N   UNL     1       0.823  -3.179   1.320  0.00  0.00    -0.167 NA
ATOM     20  N   UNL     1       0.963  -1.969   1.728  0.00  0.00    -0.271 N 
ATOM     21  C   UNL     1       0.895  -1.544   3.129  0.00  0.00    +0.172 C 
ENDBRANCH   1  18
BRANCH   5  22
ATOM     22  C   UNL     1      -2.023  -6.366   1.419  0.00  0.00    +0.218 C 
ATOM     23  O   UNL     1      -2.216  -5.227   1.051  0.00  0.00    -0.275 OA
ATOM     24  N   UNL     1      -3.010  -7.053   2.029  0.00  0.00    -0.316 N 
ATOM     25  H   UNL     1      -2.856  -7.964   2.324  0.00  0.00    +0.149 HD
BRANCH  24  26
ATOM     26  C   UNL     1      -4.314  -6.423   2.247  0.00  0.00    +0.093 C 
BRANCH  26  27
ATOM     27  C   UNL     1      -5.205  -7.363   3.061  0.00  0.00    -0.021 C 
BRANCH  27  28
ATOM     28  C   UNL     1      -4.608  -7.561   4.430  0.00  0.00    -0.059 A 
ATOM     29  C   UNL     1      -4.793  -6.602   5.409  0.00  0.00    +0.005 A 
ATOM     30  C   UNL     1      -4.247  -6.781   6.665  0.00  0.00    +0.046 A 
ATOM     31  C   UNL     1      -3.512  -7.925   6.944  0.00  0.00    +0.120 A 
ATOM     32  C   UNL     1      -3.328  -8.885   5.960  0.00  0.00    +0.046 A 
ATOM     33  C   UNL     1      -3.881  -8.704   4.707  0.00  0.00    +0.005 A 
BRANCH  31  34
ATOM     34  O   UNL     1      -2.972  -8.103   8.179  0.00  0.00    -0.495 OA
ATOM     35  C   UNL     1      -2.228  -9.303   8.394  0.00  0.00    +0.277 C 
ENDBRANCH  31  34
ENDBRANCH  27  28
BRANCH  27  36
ATOM     36  N   UNL     1      -6.546  -6.777   3.192  0.00  0.00    +0.382 N 
ATOM     37  C   UNL     1      -7.147  -6.627   1.859  0.00  0.00    -0.096 C 
ATOM     38  C   UNL     1      -7.388  -7.657   4.012  0.00  0.00    -0.096 C 
ATOM     39  H   UNL     1      -6.476  -5.872   3.633  0.00  0.00    -0.082 HD
ENDBRANCH  27  36
ENDBRANCH  26  27
ENDBRANCH  24  26
ENDBRANCH   5  22
TORSDOF 7
