REMARK  Name = ZINC07840041
REMARK  7 active torsions:
REMARK  status: ('A' for Active; 'I' for Inactive)
REMARK    1  A    between atoms: C_1  and  C_2
REMARK    2  A    between atoms: C_5  and  O_27
REMARK    3  A    between atoms: C_6  and  C_8
REMARK    4  A    between atoms: C_8  and  O_10
REMARK    5  A    between atoms: O_10  and  C_11
REMARK    6  A    between atoms: C_11  and  C_13
REMARK    7  A    between atoms: C_11  and  C_14
REMARK                            x       y       z     vdW  Elec       q    Type
REMARK                         _______ _______ _______ _____ _____    ______ ____
ROOT
ATOM      1  C   UNL     1      -3.642  -0.921   0.038  0.00  0.00    +0.259 C 
ATOM      2  C   UNL     1      -4.235  -1.674  -1.154  0.00  0.00    +0.062 C 
ENDROOT
BRANCH   1   3
ATOM      3  C   UNL     1      -4.757  -0.401   0.908  0.00  0.00    +0.261 C 
ATOM      4  O   UNL     1      -5.016   0.784   0.919  0.00  0.00    -0.271 OA
ATOM      5  N   UNL     1      -5.467  -1.252   1.675  0.00  0.00    -0.258 N 
ATOM      6  C   UNL     1      -5.112  -2.677   1.755  0.00  0.00    +0.209 C 
ATOM      7  C   UNL     1      -6.367  -3.504   1.716  0.00  0.00    +0.235 C 
ATOM      8  O   UNL     1      -6.330  -4.625   1.255  0.00  0.00    -0.274 OA
ATOM      9  N   UNL     1      -7.531  -3.014   2.183  0.00  0.00    -0.283 N 
ATOM     10  C   UNL     1      -7.611  -1.707   2.674  0.00  0.00    +0.055 A 
ATOM     11  C   UNL     1      -6.573  -0.809   2.417  0.00  0.00    +0.058 A 
ATOM     12  C   UNL     1      -6.642   0.488   2.890  0.00  0.00    +0.025 A 
ATOM     13  C   UNL     1      -7.744   0.894   3.623  0.00  0.00    +0.002 A 
ATOM     14  C   UNL     1      -8.772   0.007   3.881  0.00  0.00    +0.002 A 
ATOM     15  C   UNL     1      -8.710  -1.292   3.409  0.00  0.00    +0.025 A 
ATOM     16  H   UNL     1      -8.323  -3.574   2.178  0.00  0.00    +0.155 HD
ENDBRANCH   1   3
BRANCH   1  17
ATOM     17  O   UNL     1      -2.843   0.193  -0.441  0.00  0.00    -0.449 OA
BRANCH  17  18
ATOM     18  C   UNL     1      -1.538  -0.047  -0.676  0.00  0.00    +0.343 C 
ATOM     19  O   UNL     1      -1.081  -1.157  -0.486  0.00  0.00    -0.245 OA
BRANCH  18  25
ATOM     20  C   UNL     1      -0.931   4.699  -2.078  0.00  0.00    +0.044 C 
ATOM     21  C   UNL     1      -0.367   3.321  -1.841  0.00  0.00    -0.049 A 
ATOM     22  C   UNL     1       0.975   3.075  -2.082  0.00  0.00    +0.007 A 
ATOM     23  C   UNL     1       1.504   1.818  -1.869  0.00  0.00    +0.046 A 
ATOM     24  C   UNL     1       0.693   0.791  -1.410  0.00  0.00    +0.131 A 
ATOM     25  C   UNL     1      -0.666   1.036  -1.165  0.00  0.00    +0.101 A 
ATOM     26  C   UNL     1      -1.188   2.313  -1.385  0.00  0.00    +0.022 A 
BRANCH  24  27
ATOM     27  O   UNL     1       1.211  -0.445  -1.200  0.00  0.00    -0.506 OA
ATOM     28  H   UNL     1       1.171  -1.025  -1.972  0.00  0.00    +0.292 HD
ENDBRANCH  24  27
ENDBRANCH  18  25
ENDBRANCH  17  18
ENDBRANCH   1  17
TORSDOF 5
