REMARK  Name = ZINC11563461
REMARK  6 active torsions:
REMARK  status: ('A' for Active; 'I' for Inactive)
REMARK    1  A    between atoms: C_5  and  C_7
REMARK    2  A    between atoms: C_7  and  C_9
REMARK    3  A    between atoms: C_7  and  N_53
REMARK    4  A    between atoms: C_9  and  N_10
REMARK    5  A    between atoms: C_11  and  C_13
REMARK    6  A    between atoms: C_13  and  C_14
REMARK                            x       y       z     vdW  Elec       q    Type
REMARK                         _______ _______ _______ _____ _____    ______ ____
ROOT
ATOM      1  N   UNL     1      -0.132   1.320   0.395  0.00  0.00    -0.316 N 
ATOM      2  C   UNL     1       0.843   2.103   0.899  0.00  0.00    +0.215 C 
ATOM      3  O   UNL     1       0.575   3.208   1.320  0.00  0.00    -0.276 OA
ATOM      4  H   UNL     1       0.082   0.436   0.058  0.00  0.00    +0.149 HD
ENDROOT
BRANCH   1   5
ATOM      5  C   UNL     1      -1.513   1.806   0.351  0.00  0.00    +0.093 C 
BRANCH   5   6
ATOM      6  C   UNL     1      -2.437   0.676  -0.108  0.00  0.00    -0.019 C 
BRANCH   6  11
ATOM      7  C   UNL     1      -6.002   1.598   0.724  0.00  0.00    +0.000 A 
ATOM      8  C   UNL     1      -6.428   2.158  -0.466  0.00  0.00    +0.001 A 
ATOM      9  C   UNL     1      -5.564   2.238  -1.541  0.00  0.00    +0.020 A 
ATOM     10  C   UNL     1      -4.269   1.764  -1.424  0.00  0.00    +0.043 A 
ATOM     11  C   UNL     1      -3.845   1.199  -0.234  0.00  0.00    -0.041 A 
ATOM     12  C   UNL     1      -4.711   1.119   0.840  0.00  0.00    +0.003 A 
ATOM     13 CL   UNL     1      -3.180   1.871  -2.771  0.00  0.00    -0.083 Cl
ENDBRANCH   6  11
BRANCH   6  18
ATOM     14  C   UNL     1      -3.433  -1.440   0.568  0.00  0.00    -0.078 C 
ATOM     15  C   UNL     1      -2.924  -2.690   1.328  0.00  0.00    -0.020 C 
ATOM     16  C   UNL     1      -1.390  -2.601   1.152  0.00  0.00    -0.020 C 
ATOM     17  C   UNL     1      -1.106  -1.119   0.844  0.00  0.00    -0.078 C 
ATOM     18  N   UNL     1      -2.401  -0.439   0.884  0.00  0.00    +0.385 N 
ATOM     19  H   UNL     1      -2.564  -0.059   1.824  0.00  0.00    -0.081 HD
ENDBRANCH   6  18
ENDBRANCH   5   6
ENDBRANCH   1   5
BRANCH   2  20
ATOM     20  C   UNL     1       2.264   1.605   0.939  0.00  0.00    +0.119 C 
BRANCH  20  21
ATOM     21  C   UNL     1       3.164   2.680   1.553  0.00  0.00    +0.146 C 
ATOM     22  C   UNL     1       4.600   2.225   1.507  0.00  0.00    +0.231 C 
ATOM     23  O   UNL     1       5.306   2.635   0.610  0.00  0.00    -0.274 OA
ATOM     24  N   UNL     1       5.130   1.398   2.402  0.00  0.00    -0.284 N 
ATOM     25  C   UNL     1       4.516   0.918   3.555  0.00  0.00    +0.048 A 
ATOM     26  C   UNL     1       5.048  -0.198   4.193  0.00  0.00    +0.044 A 
ATOM     27  C   UNL     1       4.451  -0.699   5.333  0.00  0.00    +0.043 A 
ATOM     28  C   UNL     1       3.318  -0.098   5.854  0.00  0.00    +0.021 A 
ATOM     29  C   UNL     1       2.781   1.014   5.231  0.00  0.00    +0.018 A 
ATOM     30  C   UNL     1       3.377   1.521   4.089  0.00  0.00    +0.030 A 
ATOM     31  S   UNL     1       2.700   2.944   3.292  0.00  0.00    -0.110 S 
ATOM     32 CL   UNL     1       5.125  -2.093   6.118  0.00  0.00    -0.083 Cl
ATOM     33  H   UNL     1       6.037   1.097   2.234  0.00  0.00    +0.155 HD
ENDBRANCH  20  21
ENDBRANCH   2  20
TORSDOF 6
