REMARK  Name = ZINC44974241
REMARK  1 active torsions:
REMARK  status: ('A' for Active; 'I' for Inactive)
REMARK    1  A    between atoms: C_10  and  N_12
REMARK                            x       y       z     vdW  Elec       q    Type
REMARK                         _______ _______ _______ _____ _____    ______ ____
ROOT
ATOM      1  N   UNL     1       4.631   0.029  -0.946  0.00  0.00    -0.315 N 
ATOM      2  C   UNL     1       5.340   1.136  -0.514  0.00  0.00    +0.182 A 
ATOM      3  N   UNL     1       6.172   1.890  -1.181  0.00  0.00    -0.139 NA
ATOM      4  N   UNL     1       6.804   2.977  -0.583  0.00  0.00    -0.170 N 
ATOM      5  C   UNL     1       7.690   3.837  -1.167  0.00  0.00    +0.275 A 
ATOM      6  O   UNL     1       8.002   3.692  -2.339  0.00  0.00    -0.266 OA
ATOM      7  C   UNL     1       8.237   4.883  -0.422  0.00  0.00    +0.092 A 
ATOM      8  C   UNL     1       7.880   5.040   0.900  0.00  0.00    +0.119 A 
ATOM      9  N   UNL     1       7.014   4.183   1.437  0.00  0.00    -0.230 NA
ATOM     10  C   UNL     1       6.506   3.205   0.730  0.00  0.00    +0.200 A 
ATOM     11  S   UNL     1       5.346   1.906   1.097  0.00  0.00    -0.013 S 
ATOM     12  H   UNL     1       4.726  -0.282  -1.860  0.00  0.00    +0.149 HD
ENDROOT
BRANCH   1  22
ATOM     13  C   UNL     1      -0.017   1.375   0.010  0.00  0.00    +0.000 A 
ATOM     14  C   UNL     1       1.174   2.078   0.002  0.00  0.00    +0.000 A 
ATOM     15  C   UNL     1       2.372   1.395  -0.010  0.00  0.00    +0.006 A 
ATOM     16  C   UNL     1       2.393   0.006  -0.017  0.00  0.00    -0.024 A 
ATOM     17  C   UNL     1       1.208  -0.694  -0.015  0.00  0.00    -0.042 A 
ATOM     18  C   UNL     1       0.002  -0.004   0.002  0.00  0.00    +0.004 A 
ATOM     19  C   UNL     1       1.155  -2.199  -0.038  0.00  0.00    +0.035 C 
ATOM     20  C   UNL     1       2.501  -2.790   0.375  0.00  0.00    +0.007 C 
ATOM     21  C   UNL     1       3.599  -2.130  -0.467  0.00  0.00    +0.027 C 
ATOM     22  C   UNL     1       3.737  -0.675  -0.023  0.00  0.00    +0.103 C 
ENDBRANCH   1  22
TORSDOF 1
