REMARK  Name = ZINC67390845
REMARK  6 active torsions:
REMARK  status: ('A' for Active; 'I' for Inactive)
REMARK    1  A    between atoms: C_1  and  C_2
REMARK    2  A    between atoms: C_7  and  C_8
REMARK    3  A    between atoms: C_7  and  C_9
REMARK    4  A    between atoms: C_11  and  N_13
REMARK    5  A    between atoms: N_16  and  C_17
REMARK    6  A    between atoms: C_26  and  C_29
REMARK                            x       y       z     vdW  Elec       q    Type
REMARK                         _______ _______ _______ _____ _____    ______ ____
ROOT
ATOM      1  N   UNL     1      -2.263  -0.166   1.586  0.00  0.00    -0.296 N 
ATOM      2  C   UNL     1      -3.574  -0.173   1.275  0.00  0.00    +0.300 C 
ATOM      3  O   UNL     1      -3.948  -0.669   0.230  0.00  0.00    -0.253 OA
ATOM      4  N   UNL     1      -4.471   0.370   2.122  0.00  0.00    -0.296 N 
ATOM      5  H   UNL     1      -1.965   0.230   2.420  0.00  0.00    +0.151 HD
ATOM      6  H   UNL     1      -4.173   0.765   2.956  0.00  0.00    +0.151 HD
ENDROOT
BRANCH   4   7
ATOM      7  C   UNL     1      -5.896   0.362   1.784  0.00  0.00    +0.077 C 
ATOM      8  C   UNL     1      -6.217   1.570   0.900  0.00  0.00    +0.041 C 
ATOM      9  C   UNL     1      -7.701   1.539   0.520  0.00  0.00    +0.108 C 
ATOM     10  N   UNL     1      -8.503   1.460   1.749  0.00  0.00    -0.315 N 
ATOM     11  C   UNL     1      -8.215   0.389   2.712  0.00  0.00    +0.108 C 
ATOM     12  C   UNL     1      -6.726   0.432   3.068  0.00  0.00    +0.041 C 
ATOM     13  C   UNL     1      -9.511   2.379   1.994  0.00  0.00    +0.121 A 
ATOM     14  C   UNL     1      -9.918   3.240   0.977  0.00  0.00    +0.045 A 
ATOM     15  C   UNL     1     -10.914   4.147   1.223  0.00  0.00    +0.024 A 
ATOM     16  C   UNL     1     -11.492   4.176   2.502  0.00  0.00    +0.070 A 
ATOM     17  C   UNL     1     -11.034   3.284   3.473  0.00  0.00    +0.131 A 
ATOM     18  N   UNL     1     -10.077   2.423   3.192  0.00  0.00    -0.239 NA
BRANCH  16  19
ATOM     19  C   UNL     1     -12.537   5.107   2.806  0.00  0.00    +0.101 C 
ATOM     20  N   UNL     1     -13.365   5.846   3.048  0.00  0.00    -0.191 NA
ENDBRANCH  16  19
ENDBRANCH   4   7
BRANCH   1  30
ATOM     21  C   UNL     1       0.133   1.402   1.096  0.00  0.00    +0.013 C 
ATOM     22  C   UNL     1       0.117  -0.112   0.876  0.00  0.00    -0.008 C 
ATOM     23  C   UNL     1       0.989  -0.639  -0.304  0.00  0.00    +0.009 C 
ATOM     24  C   UNL     1       1.206  -2.138   0.010  0.00  0.00    +0.005 C 
ATOM     25  C   UNL     1       0.445  -2.374   1.349  0.00  0.00    -0.003 C 
ATOM     26  C   UNL     1       0.663  -0.990   2.056  0.00  0.00    -0.025 C 
ATOM     27  C   UNL     1      -0.189  -0.850   3.319  0.00  0.00    +0.012 C 
ATOM     28  C   UNL     1       2.143  -0.717   2.337  0.00  0.00    +0.012 C 
ATOM     29  C   UNL     1      -1.063  -2.288   0.961  0.00  0.00    +0.027 C 
ATOM     30  C   UNL     1      -1.288  -0.755   0.665  0.00  0.00    +0.081 C 
ENDBRANCH   1  30
TORSDOF 3
