REMARK  Name = ZINC25391441
REMARK  9 active torsions:
REMARK  status: ('A' for Active; 'I' for Inactive)
REMARK    1  A    between atoms: C_3  and  S_32
REMARK    2  A    between atoms: C_6  and  C_7
REMARK    3  A    between atoms: C_7  and  C_8
REMARK    4  A    between atoms: C_8  and  N_9
REMARK    5  A    between atoms: C_10  and  C_12
REMARK    6  A    between atoms: C_12  and  N_13
REMARK    7  A    between atoms: N_16  and  S_19
REMARK    8  A    between atoms: S_19  and  C_22
REMARK    9  A    between atoms: S_32  and  N_35
REMARK                            x       y       z     vdW  Elec       q    Type
REMARK                         _______ _______ _______ _____ _____    ______ ____
ROOT
ATOM      1  N   UNL     1       4.147  -0.969  -4.418  0.00  0.00    +0.387 N 
ATOM      2  C   UNL     1       4.426   0.267  -3.675  0.00  0.00    -0.061 C 
ATOM      3  C   UNL     1       5.143  -0.080  -2.366  0.00  0.00    +0.091 C 
ATOM      4  N   UNL     1       4.338  -1.074  -1.640  0.00  0.00    -0.180 NA
ATOM      5  C   UNL     1       3.907  -2.281  -2.362  0.00  0.00    +0.091 C 
ATOM      6  C   UNL     1       3.233  -1.845  -3.672  0.00  0.00    -0.061 C 
ATOM      7  H   UNL     1       5.098  -1.506  -4.543  0.00  0.00    -0.081 HD
ENDROOT
BRANCH   4   8
ATOM      8  S   UNL     1       3.931  -0.843  -0.052  0.00  0.00    +0.061 S 
ATOM      9  O   UNL     1       4.904   0.039   0.492  0.00  0.00    -0.153 OA
ATOM     10  O   UNL     1       3.679  -2.130   0.494  0.00  0.00    -0.153 OA
BRANCH   8  11
ATOM     11  C   UNL     1       2.397   0.024  -0.027  0.00  0.00    +0.109 A 
ATOM     12  C   UNL     1       1.207  -0.680  -0.016  0.00  0.00    +0.032 A 
ATOM     13  C   UNL     1       0.002  -0.004   0.002  0.00  0.00    +0.051 A 
ATOM     14  C   UNL     1      -0.017   1.383   0.010  0.00  0.00    +0.162 A 
ATOM     15  C   UNL     1       1.179   2.090   0.002  0.00  0.00    +0.164 A 
ATOM     16  C   UNL     1       2.385   1.406  -0.018  0.00  0.00    +0.078 A 
ATOM     17  O   UNL     1       1.184   3.451   0.018  0.00  0.00    -0.485 OA
ATOM     18  C   UNL     1      -0.040   4.103  -0.340  0.00  0.00    +0.270 C 
ATOM     19  C   UNL     1      -1.189   3.413   0.408  0.00  0.00    +0.270 C 
ATOM     20  O   UNL     1      -1.212   2.035   0.019  0.00  0.00    -0.485 OA
ENDBRANCH   8  11
ENDBRANCH   4   8
BRANCH   1  21
ATOM     21  C   UNL     1       3.615  -0.670  -5.755  0.00  0.00    +0.019 C 
BRANCH  21  23
ATOM     22  N   UNL     1       3.117  -1.903  -7.841  0.00  0.00    -0.317 N 
ATOM     23  C   UNL     1       3.573  -1.935  -6.573  0.00  0.00    +0.196 C 
ATOM     24  O   UNL     1       3.948  -2.982  -6.090  0.00  0.00    -0.278 OA
ATOM     25  H   UNL     1       2.777  -0.953  -8.279  0.00  0.00    +0.149 HD
BRANCH  22  26
ATOM     26  C   UNL     1       3.076  -3.132  -8.636  0.00  0.00    +0.109 C 
BRANCH  26  27
ATOM     27  C   UNL     1       2.522  -2.821 -10.028  0.00  0.00    +0.054 C 
BRANCH  27  33
ATOM     28  C   UNL     1       3.567  -4.447 -11.618  0.00  0.00    +0.005 A 
ATOM     29  C   UNL     1       3.530  -5.610 -12.365  0.00  0.00    +0.029 A 
ATOM     30  C   UNL     1       2.400  -6.407 -12.347  0.00  0.00    +0.105 A 
ATOM     31  C   UNL     1       1.310  -6.043 -11.578  0.00  0.00    +0.029 A 
ATOM     32  C   UNL     1       1.350  -4.883 -10.828  0.00  0.00    +0.005 A 
ATOM     33  C   UNL     1       2.479  -4.086 -10.846  0.00  0.00    -0.046 A 
BRANCH  30  34
ATOM     34  S   UNL     1       2.351  -7.886 -13.302  0.00  0.00    +0.056 S 
ATOM     35  O   UNL     1       3.700  -8.284 -13.505  0.00  0.00    -0.153 OA
ATOM     36  O   UNL     1       1.391  -8.735 -12.687  0.00  0.00    -0.153 OA
BRANCH  34  37
ATOM     37  N   UNL     1       1.745  -7.488 -14.790  0.00  0.00    -0.204 NA
ATOM     38  H   UNL     1       1.697  -8.389 -15.420  0.00  0.00    +0.144 HD
ATOM     39  H   UNL     1       2.400  -6.743 -15.265  0.00  0.00    +0.144 HD
ENDBRANCH  34  37
ENDBRANCH  30  34
ENDBRANCH  27  33
ENDBRANCH  26  27
ENDBRANCH  22  26
ENDBRANCH  21  23
ENDBRANCH   1  21
TORSDOF 9
