REMARK  Name = ZINC22121537
REMARK  5 active torsions:
REMARK  status: ('A' for Active; 'I' for Inactive)
REMARK    1  A    between atoms: C_1  and  C_2
REMARK    2  A    between atoms: C_2  and  C_3
REMARK    3  A    between atoms: C_2  and  C_4
REMARK    4  A    between atoms: C_5  and  C_10
REMARK    5  A    between atoms: C_12  and  C_15
REMARK                            x       y       z     vdW  Elec       q    Type
REMARK                         _______ _______ _______ _____ _____    ______ ____
ROOT
ATOM      1  C   UNL     1      -4.582   1.154   0.028  0.00  0.00    +0.267 A 
ATOM      2  N   UNL     1      -3.755   2.189   0.031  0.00  0.00    -0.186 NA
ATOM      3  C   UNL     1      -2.515   1.659   0.022  0.00  0.00    +0.204 A 
ATOM      4  N   UNL     1      -2.645   0.356   0.010  0.00  0.00    -0.056 NA
ATOM      5  O   UNL     1      -3.818   0.047   0.018  0.00  0.00    -0.332 OA
ENDROOT
BRANCH   1   7
ATOM      6  C   UNL     1      -6.961   0.177   0.027  0.00  0.00    +0.065 A 
ATOM      7  C   UNL     1      -6.046   1.204   0.035  0.00  0.00    +0.101 A 
ATOM      8  S   UNL     1      -7.139   2.619   0.048  0.00  0.00    -0.048 S 
ATOM      9  C   UNL     1      -8.640   1.745   0.049  0.00  0.00    +0.156 A 
ATOM     10  N   UNL     1      -8.235   0.485   0.040  0.00  0.00    -0.229 NA
ATOM     11  N   UNL     1      -9.929   2.239   0.058  0.00  0.00    -0.337 N 
ATOM     12  H   UNL     1     -10.783   1.547   0.057  0.00  0.00    +0.144 HD
ATOM     13  H   UNL     1     -10.101   3.326   0.064  0.00  0.00    +0.144 HD
BRANCH   6  15
ATOM     14  C   UNL     1      -7.042  -1.978   1.252  0.00  0.00    +0.014 C 
ATOM     15  C   UNL     1      -6.511  -1.261   0.008  0.00  0.00    +0.033 C 
ATOM     16  C   UNL     1      -7.053  -1.949  -1.247  0.00  0.00    +0.014 C 
ENDBRANCH   6  15
ENDBRANCH   1   7
BRANCH   3  17
ATOM     17  C   UNL     1      -1.237   2.414   0.021  0.00  0.00    +0.041 A 
ATOM     18  C   UNL     1      -1.248   3.807   0.035  0.00  0.00    +0.013 A 
ATOM     19  C   UNL     1      -0.057   4.504   0.026  0.00  0.00    +0.001 A 
ATOM     20  C   UNL     1       1.147   3.823   0.011  0.00  0.00    +0.001 A 
ATOM     21  C   UNL     1       1.165   2.440   0.004  0.00  0.00    +0.021 A 
ATOM     22  C   UNL     1      -0.021   1.732   0.012  0.00  0.00    +0.052 A 
ATOM     23 CL   UNL     1       0.002  -0.004   0.002  0.00  0.00    -0.083 Cl
ENDBRANCH   3  17
TORSDOF 3
