REMARK  Name = ZINC67271592
REMARK  8 active torsions:
REMARK  status: ('A' for Active; 'I' for Inactive)
REMARK    1  A    between atoms: C_1  and  C_2
REMARK    2  A    between atoms: N_5  and  C_8
REMARK    3  A    between atoms: C_8  and  C_10
REMARK    4  A    between atoms: C_8  and  C_11
REMARK    5  A    between atoms: C_11  and  N_12
REMARK    6  A    between atoms: C_13  and  C_15
REMARK    7  A    between atoms: C_18  and  N_20
REMARK    8  A    between atoms: C_21  and  C_23
REMARK                            x       y       z     vdW  Elec       q    Type
REMARK                         _______ _______ _______ _____ _____    ______ ____
ROOT
ATOM      1  N   UNL     1       1.955  -3.921   2.403  0.00  0.00    -0.312 N 
ATOM      2  C   UNL     1       2.600  -4.105   3.572  0.00  0.00    +0.251 C 
ATOM      3  O   UNL     1       3.704  -4.619   3.584  0.00  0.00    -0.270 OA
ATOM      4  H   UNL     1       1.076  -3.512   2.393  0.00  0.00    +0.149 HD
ENDROOT
BRANCH   2   5
ATOM      5  C   UNL     1       1.976  -3.686   4.825  0.00  0.00    +0.076 A 
ATOM      6  C   UNL     1       2.468  -3.779   6.120  0.00  0.00    +0.022 A 
ATOM      7  C   UNL     1       1.650  -3.299   7.109  0.00  0.00    +0.032 A 
ATOM      8  C   UNL     1       0.429  -2.772   6.756  0.00  0.00    +0.073 A 
ATOM      9  S   UNL     1       0.388  -2.918   5.083  0.00  0.00    -0.069 S 
BRANCH   8  10
ATOM     10  N   UNL     1      -0.543  -2.236   7.590  0.00  0.00    -0.273 N 
ATOM     11  C   UNL     1      -1.691  -1.760   7.069  0.00  0.00    +0.284 C 
ATOM     12  O   UNL     1      -1.875  -1.800   5.867  0.00  0.00    -0.266 OA
ATOM     13  H   UNL     1      -0.395  -2.205   8.549  0.00  0.00    +0.156 HD
BRANCH  11  14
ATOM     14  C   UNL     1      -2.717  -1.195   7.950  0.00  0.00    +0.189 A 
ATOM     15  C   UNL     1      -3.921  -0.686   7.556  0.00  0.00    +0.054 A 
ATOM     16  C   UNL     1      -4.579  -0.259   8.720  0.00  0.00    +0.042 A 
ATOM     17  C   UNL     1      -3.759  -0.523   9.761  0.00  0.00    +0.196 A 
ATOM     18  O   UNL     1      -2.640  -1.093   9.293  0.00  0.00    -0.458 OA
ENDBRANCH  11  14
ENDBRANCH   8  10
ENDBRANCH   2   5
BRANCH   1  19
ATOM     19  C   UNL     1       2.582  -4.341   1.147  0.00  0.00    +0.089 C 
BRANCH  19  20
ATOM     20  C   UNL     1       1.710  -3.900  -0.030  0.00  0.00    -0.054 C 
ATOM     21  C   UNL     1       2.420  -4.233  -1.344  0.00  0.00    -0.012 C 
BRANCH  20  26
ATOM     22  C   UNL     1       1.235   1.728  -0.822  0.00  0.00    +0.007 C 
ATOM     23  C   UNL     1       1.521   0.239  -1.027  0.00  0.00    -0.018 C 
ATOM     24  C   UNL     1       2.531  -0.238   0.020  0.00  0.00    -0.016 C 
ATOM     25  C   UNL     1       2.752  -1.744  -0.140  0.00  0.00    -0.078 C 
ATOM     26  N   UNL     1       1.479  -2.451   0.048  0.00  0.00    +0.382 N 
ATOM     27  C   UNL     1       0.528  -2.052  -0.997  0.00  0.00    -0.078 C 
ATOM     28  C   UNL     1       0.223  -0.558  -0.869  0.00  0.00    -0.016 C 
ATOM     29  H   UNL     1       1.099  -2.221   0.953  0.00  0.00    -0.081 HD
ENDBRANCH  20  26
ENDBRANCH  19  20
ENDBRANCH   1  19
TORSDOF 6
