REMARK  Name = ZINC01774213
REMARK  4 active torsions:
REMARK  status: ('A' for Active; 'I' for Inactive)
REMARK    1  A    between atoms: C_1  and  C_2
REMARK    2  A    between atoms: C_7  and  C_8
REMARK    3  A    between atoms: N_15  and  C_16
REMARK    4  A    between atoms: C_21  and  O_22
REMARK                            x       y       z     vdW  Elec       q    Type
REMARK                         _______ _______ _______ _____ _____    ______ ____
ROOT
ATOM      1  C   UNL     1      -0.042   0.087  -0.036  0.00  0.00    +0.028 C 
ATOM      2  C   UNL     1      -0.095   1.412   0.246  0.00  0.00    +0.079 C 
ATOM      3  C   UNL     1       1.001   2.359   0.570  0.00  0.00    +0.276 C 
ATOM      4  O   UNL     1       2.167   2.002   0.617  0.00  0.00    -0.267 OA
ATOM      5  N   UNL     1       0.645   3.603   0.801  0.00  0.00    -0.154 NA
ATOM      6  C   UNL     1      -0.616   4.002   0.752  0.00  0.00    +0.156 C 
ATOM      7  S   UNL     1      -1.503   2.512   0.326  0.00  0.00    -0.051 S 
ATOM      8  N   UNL     1      -1.119   5.258   0.970  0.00  0.00    -0.293 N 
ATOM      9  H   UNL     1      -2.078   5.404   0.964  0.00  0.00    +0.154 HD
ENDROOT
BRANCH   1  16
ATOM     10  C   UNL     1       0.320  -2.607   0.957  0.00  0.00    +0.044 C 
ATOM     11  C   UNL     1       1.448  -1.880   0.271  0.00  0.00    -0.043 A 
ATOM     12  C   UNL     1       2.671  -2.497   0.109  0.00  0.00    +0.004 A 
ATOM     13  C   UNL     1       3.708  -1.832  -0.521  0.00  0.00    +0.000 A 
ATOM     14  C   UNL     1       3.527  -0.543  -0.994  0.00  0.00    +0.001 A 
ATOM     15  C   UNL     1       2.310   0.086  -0.845  0.00  0.00    +0.008 A 
ATOM     16  C   UNL     1       1.258  -0.578  -0.204  0.00  0.00    -0.021 A 
ENDBRANCH   1  16
BRANCH   8  17
ATOM     17  C   UNL     1      -0.249   6.330   1.202  0.00  0.00    +0.075 A 
ATOM     18  C   UNL     1       1.113   6.103   1.345  0.00  0.00    +0.027 A 
ATOM     19  C   UNL     1       1.969   7.162   1.574  0.00  0.00    +0.002 A 
ATOM     20  C   UNL     1       1.473   8.451   1.659  0.00  0.00    +0.004 A 
ATOM     21  C   UNL     1       0.118   8.685   1.517  0.00  0.00    +0.047 A 
ATOM     22  C   UNL     1      -0.747   7.628   1.283  0.00  0.00    +0.138 A 
BRANCH  22  23
ATOM     23  O   UNL     1      -2.079   7.858   1.137  0.00  0.00    -0.505 OA
ATOM     24  H   UNL     1      -2.576   7.827   1.966  0.00  0.00    +0.292 HD
ENDBRANCH  22  23
ENDBRANCH   8  17
TORSDOF 3
