REMARK  Name = ZINC08889528
REMARK  10 active torsions:
REMARK  status: ('A' for Active; 'I' for Inactive)
REMARK    1  A    between atoms: C_1  and  C_2
REMARK    2  A    between atoms: C_2  and  C_3
REMARK    3  A    between atoms: C_2  and  C_4
REMARK    4  A    between atoms: C_4  and  N_5
REMARK    5  A    between atoms: C_9  and  C_11
REMARK    6  A    between atoms: C_11  and  O_12
REMARK    7  A    between atoms: O_12  and  C_13
REMARK    8  A    between atoms: C_13  and  C_15
REMARK    9  A    between atoms: C_15  and  C_16
REMARK   10  A    between atoms: C_16  and  C_17
REMARK                            x       y       z     vdW  Elec       q    Type
REMARK                         _______ _______ _______ _____ _____    ______ ____
ROOT
ATOM      1  C   UNL     1      -2.136   8.216  -4.642  0.00  0.00    +0.128 C 
ENDROOT
BRANCH   1   2
ATOM      2  C   UNL     1      -2.439   9.223  -5.721  0.00  0.00    +0.308 C 
ATOM      3  O   UNL     1      -2.581   8.860  -6.864  0.00  0.00    -0.251 OA
BRANCH   2   4
ATOM      4  O   UNL     1      -2.551  10.524  -5.412  0.00  0.00    -0.455 OA
BRANCH   4   5
ATOM      5  C   UNL     1      -2.844  11.438  -6.501  0.00  0.00    +0.328 C 
BRANCH   5  10
ATOM      6  N   UNL     1      -3.542  16.148  -7.163  0.00  0.00    -0.299 N 
ATOM      7  C   UNL     1      -3.277  15.125  -6.327  0.00  0.00    +0.306 C 
ATOM      8  O   UNL     1      -3.110  15.337  -5.142  0.00  0.00    -0.252 OA
ATOM      9  N   UNL     1      -3.198  13.867  -6.804  0.00  0.00    -0.237 N 
ATOM     10  C   UNL     1      -2.933  12.845  -5.968  0.00  0.00    +0.258 C 
ATOM     11  O   UNL     1      -2.766  13.056  -4.786  0.00  0.00    -0.272 OA
ATOM     12  H   UNL     1      -3.676  15.979  -8.109  0.00  0.00    +0.150 HD
ATOM     13  H   UNL     1      -3.332  13.698  -7.750  0.00  0.00    +0.159 HD
BRANCH   6  14
ATOM     14  C   UNL     1      -3.629  17.515  -6.644  0.00  0.00    +0.108 C 
BRANCH  14  16
ATOM     15  C   UNL     1      -4.151  19.887  -7.234  0.00  0.00    +0.009 C 
ATOM     16  C   UNL     1      -3.937  18.478  -7.793  0.00  0.00    -0.000 C 
ATOM     17  C   UNL     1      -2.765  18.492  -8.776  0.00  0.00    +0.009 C 
ENDBRANCH  14  16
ENDBRANCH   6  14
ENDBRANCH   5  10
ENDBRANCH   4   5
ENDBRANCH   2   4
ENDBRANCH   1   2
BRANCH   1  18
ATOM     18  C   UNL     1      -2.062   6.816  -5.257  0.00  0.00    +0.085 C 
BRANCH  18  19
ATOM     19  C   UNL     1      -1.759   5.809  -4.178  0.00  0.00    +0.111 A 
ATOM     20  N   UNL     1      -1.651   4.504  -4.524  0.00  0.00    -0.310 N 
ATOM     21  H   UNL     1      -1.773   4.261  -5.456  0.00  0.00    +0.170 HD
ATOM     22  C   UNL     1      -1.382   3.522  -3.632  0.00  0.00    +0.260 A 
ATOM     23  O   UNL     1      -1.288   2.352  -3.962  0.00  0.00    -0.267 OA
ATOM     24  C   UNL     1      -1.213   3.947  -2.271  0.00  0.00    +0.075 A 
ATOM     25  C   UNL     1      -0.921   3.104  -1.126  0.00  0.00    -0.023 A 
ATOM     26  C   UNL     1      -0.803   3.725   0.071  0.00  0.00    -0.004 A 
ATOM     27  S   UNL     1      -1.074   5.446  -0.270  0.00  0.00    -0.073 S 
ATOM     28  C   UNL     1      -1.343   5.329  -2.010  0.00  0.00    +0.116 A 
ATOM     29  N   UNL     1      -1.610   6.237  -2.944  0.00  0.00    -0.227 NA
ATOM     30  C   UNL     1      -0.510   3.093   1.397  0.00  0.00    +0.043 C 
ATOM     31  C   UNL     1      -0.726   1.578   1.270  0.00  0.00    +0.005 C 
ATOM     32  C   UNL     1      -0.013   1.086   0.008  0.00  0.00    +0.005 C 
ATOM     33  C   UNL     1      -0.749   1.591  -1.233  0.00  0.00    +0.037 C 
ENDBRANCH  18  19
ENDBRANCH   1  18
TORSDOF 8
