REMARK  Name = ZINC22335124
REMARK  9 active torsions:
REMARK  status: ('A' for Active; 'I' for Inactive)
REMARK    1  A    between atoms: C_1  and  C_2
REMARK    2  A    between atoms: C_2  and  C_4
REMARK    3  A    between atoms: C_2  and  O_17
REMARK    4  A    between atoms: N_6  and  C_7
REMARK    5  A    between atoms: C_10  and  S_13
REMARK    6  A    between atoms: S_13  and  N_16
REMARK    7  A    between atoms: O_17  and  C_18
REMARK    8  A    between atoms: C_18  and  C_20
REMARK    9  A    between atoms: C_23  and  C_26
REMARK                            x       y       z     vdW  Elec       q    Type
REMARK                         _______ _______ _______ _____ _____    ______ ____
ROOT
ATOM      1  C   UNL     1      -0.014   1.520  -0.004  0.00  0.00    +0.062 C 
ATOM      2  C   UNL     1       0.004  -0.010  -0.001  0.00  0.00    +0.259 C 
ENDROOT
BRANCH   2   3
ATOM      3  C   UNL     1       0.731  -0.502   1.224  0.00  0.00    +0.258 C 
ATOM      4  O   UNL     1       0.133  -1.128   2.073  0.00  0.00    -0.271 OA
ATOM      5  N   UNL     1       2.045  -0.246   1.375  0.00  0.00    -0.282 N 
ATOM      6  H   UNL     1       2.538   0.196   0.667  0.00  0.00    +0.155 HD
BRANCH   5   7
ATOM      7  C   UNL     1       2.698  -0.617   2.556  0.00  0.00    +0.034 A 
ATOM      8  C   UNL     1       3.710   0.181   3.072  0.00  0.00    +0.025 A 
ATOM      9  C   UNL     1       4.353  -0.188   4.237  0.00  0.00    +0.030 A 
ATOM     10  C   UNL     1       3.990  -1.352   4.889  0.00  0.00    +0.105 A 
ATOM     11  C   UNL     1       2.983  -2.150   4.378  0.00  0.00    +0.030 A 
ATOM     12  C   UNL     1       2.333  -1.783   3.216  0.00  0.00    +0.025 A 
BRANCH  10  13
ATOM     13  S   UNL     1       4.813  -1.820   6.376  0.00  0.00    +0.056 S 
ATOM     14  O   UNL     1       4.663  -3.228   6.497  0.00  0.00    -0.153 OA
ATOM     15  O   UNL     1       6.086  -1.190   6.351  0.00  0.00    -0.153 OA
BRANCH  13  16
ATOM     16  N   UNL     1       3.974  -1.144   7.633  0.00  0.00    -0.204 NA
ATOM     17  H   UNL     1       3.958  -1.584   8.498  0.00  0.00    +0.144 HD
ATOM     18  H   UNL     1       3.499  -0.308   7.506  0.00  0.00    +0.144 HD
ENDBRANCH  13  16
ENDBRANCH  10  13
ENDBRANCH   5   7
ENDBRANCH   2   3
BRANCH   2  19
ATOM     19  O   UNL     1      -1.338  -0.501   0.011  0.00  0.00    -0.449 OA
BRANCH  19  20
ATOM     20  C   UNL     1      -1.923  -0.714  -1.184  0.00  0.00    +0.340 C 
ATOM     21  O   UNL     1      -1.310  -0.488  -2.208  0.00  0.00    -0.245 OA
BRANCH  20  22
ATOM     22  C   UNL     1      -3.308  -1.222  -1.248  0.00  0.00    +0.059 A 
ATOM     23  C   UNL     1      -4.017  -1.477  -0.072  0.00  0.00    +0.015 A 
ATOM     24  C   UNL     1      -5.311  -1.952  -0.140  0.00  0.00    +0.005 A 
ATOM     25  C   UNL     1      -5.906  -2.174  -1.369  0.00  0.00    -0.044 A 
ATOM     26  C   UNL     1      -5.209  -1.923  -2.538  0.00  0.00    +0.005 A 
ATOM     27  C   UNL     1      -3.917  -1.443  -2.485  0.00  0.00    +0.015 A 
BRANCH  25  28
ATOM     28  C   UNL     1      -7.320  -2.692  -1.435  0.00  0.00    +0.019 C 
ATOM     29  C   UNL     1      -7.338  -4.032  -2.173  0.00  0.00    +0.008 C 
ATOM     30  C   UNL     1      -8.773  -4.558  -2.240  0.00  0.00    +0.001 C 
ATOM     31  C   UNL     1      -9.651  -3.552  -2.987  0.00  0.00    +0.000 C 
ATOM     32  C   UNL     1      -9.633  -2.212  -2.248  0.00  0.00    +0.001 C 
ATOM     33  C   UNL     1      -8.197  -1.686  -2.182  0.00  0.00    +0.008 C 
ENDBRANCH  25  28
ENDBRANCH  20  22
ENDBRANCH  19  20
ENDBRANCH   2  19
TORSDOF 8
