REMARK  Name = ZINC01332965
REMARK  7 active torsions:
REMARK  status: ('A' for Active; 'I' for Inactive)
REMARK    1  A    between atoms: C_1  and  C_2
REMARK    2  A    between atoms: C_5  and  S_8
REMARK    3  A    between atoms: S_8  and  N_11
REMARK    4  A    between atoms: C_17  and  C_19
REMARK    5  A    between atoms: C_23  and  C_34
REMARK    6  A    between atoms: C_26  and  C_30
REMARK    7  A    between atoms: C_34  and  C_37
REMARK                            x       y       z     vdW  Elec       q    Type
REMARK                         _______ _______ _______ _____ _____    ______ ____
ROOT
ATOM      1  C   UNL     1       6.328  -5.216   1.275  0.00  0.00    +0.110 C 
ATOM      2  C   UNL     1       6.956  -4.168   1.862  0.00  0.00    +0.072 C 
ATOM      3  C   UNL     1       7.586  -4.669   3.082  0.00  0.00    +0.114 C 
ATOM      4  N   UNL     1       8.306  -4.042   3.970  0.00  0.00    -0.368 N 
ATOM      5  C   UNL     1       8.860  -4.796   5.100  0.00  0.00    +0.088 C 
ATOM      6  C   UNL     1       7.925  -5.941   5.492  0.00  0.00    +0.058 C 
ATOM      7  C   UNL     1       7.702  -6.865   4.285  0.00  0.00    +0.201 C 
ATOM      8  N   UNL     1       7.272  -6.020   3.166  0.00  0.00    -0.226 N 
ATOM      9  N   UNL     1       6.514  -6.351   2.048  0.00  0.00    -0.258 N 
ATOM     10  H   UNL     1       6.173  -7.235   1.842  0.00  0.00    +0.170 HD
ATOM     11  H   UNL     1       8.473  -3.090   3.884  0.00  0.00    +0.161 HD
ENDROOT
BRANCH   1  18
ATOM     12  N   UNL     1       1.574  -5.274   0.091  0.00  0.00    -0.174 NA
ATOM     13  C   UNL     1       2.269  -5.507  -1.182  0.00  0.00    +0.128 C 
ATOM     14  C   UNL     1       3.519  -4.620  -1.228  0.00  0.00    +0.125 C 
ATOM     15  N   UNL     1       4.263  -4.792   0.028  0.00  0.00    -0.294 N 
ATOM     16  C   UNL     1       3.568  -4.559   1.301  0.00  0.00    +0.125 C 
ATOM     17  C   UNL     1       2.320  -5.441   1.347  0.00  0.00    +0.128 C 
ATOM     18  C   UNL     1       5.560  -5.157   0.011  0.00  0.00    +0.262 C 
ATOM     19  O   UNL     1       6.099  -5.438  -1.041  0.00  0.00    -0.269 OA
BRANCH  12  20
ATOM     20  S   UNL     1      -0.020  -4.825   0.111  0.00  0.00    +0.061 S 
ATOM     21  O   UNL     1      -0.535  -5.209   1.379  0.00  0.00    -0.153 OA
ATOM     22  O   UNL     1      -0.586  -5.280  -1.110  0.00  0.00    -0.153 OA
BRANCH  20  27
ATOM     23  C   UNL     1      -0.180   1.204  -0.058  0.00  0.00    +0.044 C 
ATOM     24  C   UNL     1      -0.140  -0.302  -0.015  0.00  0.00    -0.050 A 
ATOM     25  C   UNL     1      -0.145  -1.027  -1.193  0.00  0.00    +0.005 A 
ATOM     26  C   UNL     1      -0.108  -2.408  -1.154  0.00  0.00    +0.029 A 
ATOM     27  C   UNL     1      -0.066  -3.064   0.062  0.00  0.00    +0.105 A 
ATOM     28  C   UNL     1      -0.060  -2.340   1.239  0.00  0.00    +0.029 A 
ATOM     29  C   UNL     1      -0.092  -0.958   1.200  0.00  0.00    +0.005 A 
ENDBRANCH  20  27
ENDBRANCH  12  20
ENDBRANCH   1  18
BRANCH   7  30
ATOM     30  C   UNL     1       6.617  -7.894   4.610  0.00  0.00    +0.410 C 
ATOM     31  F   UNL     1       5.422  -7.231   4.912  0.00  0.00    -0.169 F 
ATOM     32  F   UNL     1       6.421  -8.729   3.505  0.00  0.00    -0.169 F 
ATOM     33  F   UNL     1       7.016  -8.660   5.710  0.00  0.00    -0.169 F 
ENDBRANCH   7  30
BRANCH   5  34
ATOM     34  C   UNL     1      10.222  -5.370   4.705  0.00  0.00    -0.012 C 
ATOM     35  C   UNL     1      10.902  -4.786   3.465  0.00  0.00    +0.009 C 
ATOM     36  C   UNL     1      10.295  -6.190   3.415  0.00  0.00    +0.009 C 
ATOM     37  C   UNL     1      11.119  -5.800   5.867  0.00  0.00    +0.013 C 
ENDBRANCH   5  34
TORSDOF 5
