REMARK  Name = ZINC39711108
REMARK  13 active torsions:
REMARK  status: ('A' for Active; 'I' for Inactive)
REMARK    1  A    between atoms: C_1  and  C_2
REMARK    2  A    between atoms: C_5  and  C_41
REMARK    3  A    between atoms: C_10  and  C_14
REMARK    4  A    between atoms: C_14  and  C_16
REMARK    5  A    between atoms: C_14  and  N_26
REMARK    6  A    between atoms: N_21  and  C_22
REMARK    7  A    between atoms: C_22  and  C_23
REMARK    8  A    between atoms: C_22  and  C_24
REMARK    9  A    between atoms: C_22  and  C_25
REMARK   10  A    between atoms: N_26  and  C_27
REMARK   11  A    between atoms: N_26  and  C_35
REMARK   12  A    between atoms: C_27  and  C_28
REMARK   13  A    between atoms: C_35  and  C_36
REMARK                            x       y       z     vdW  Elec       q    Type
REMARK                         _______ _______ _______ _____ _____    ______ ____
ROOT
ATOM      1  C   UNL     1       1.484  -0.765   5.127  0.00  0.00    -0.010 C 
ENDROOT
BRANCH   1  11
ATOM      2  C   UNL     1      -0.559  -4.548   2.316  0.00  0.00    +0.044 C 
ATOM      3  C   UNL     1      -1.539  -3.886   3.250  0.00  0.00    -0.042 A 
ATOM      4  C   UNL     1      -2.730  -4.474   3.532  0.00  0.00    +0.004 A 
ATOM      5  C   UNL     1      -3.649  -3.875   4.394  0.00  0.00    +0.005 A 
ATOM      6  C   UNL     1      -3.417  -2.682   5.000  0.00  0.00    -0.029 A 
ATOM      7  C   UNL     1      -2.213  -1.989   4.775  0.00  0.00    +0.043 A 
ATOM      8  N   UNL     1      -1.995  -0.819   5.375  0.00  0.00    -0.284 N 
ATOM      9  C   UNL     1      -0.887  -0.117   5.208  0.00  0.00    +0.223 C 
ATOM     10  O   UNL     1      -0.745   0.946   5.783  0.00  0.00    -0.275 OA
ATOM     11  C   UNL     1       0.203  -0.640   4.300  0.00  0.00    +0.088 C 
ATOM     12  C   UNL     1      -0.040  -1.971   3.615  0.00  0.00    -0.006 C 
ATOM     13  C   UNL     1      -1.221  -2.601   3.873  0.00  0.00    -0.004 A 
ATOM     14  C   UNL     1      -4.457  -2.094   5.919  0.00  0.00    +0.045 C 
ATOM     15  H   UNL     1      -2.682  -0.466   5.961  0.00  0.00    +0.155 HD
ENDBRANCH   1  11
BRANCH   1  16
ATOM     16  C   UNL     1       1.938   0.625   5.577  0.00  0.00    +0.183 C 
ATOM     17  N   UNL     1       0.910   1.261   6.423  0.00  0.00    -0.229 N 
ATOM     18  N   UNL     1       0.516   2.418   5.741  0.00  0.00    -0.064 NA
ATOM     19  N   UNL     1       1.112   2.568   4.679  0.00  0.00    -0.061 NA
ATOM     20  N   UNL     1       2.035   1.541   4.426  0.00  0.00    -0.211 N 
ATOM     21  H   UNL     1       0.576   0.943   7.276  0.00  0.00    +0.172 HD
BRANCH  20  22
ATOM     22  C   UNL     1       2.913   1.404   3.261  0.00  0.00    +0.047 C 
ATOM     23  C   UNL     1       2.481   0.191   2.436  0.00  0.00    +0.033 C 
ATOM     24  C   UNL     1       2.819   2.666   2.400  0.00  0.00    +0.033 C 
ATOM     25  C   UNL     1       4.357   1.214   3.730  0.00  0.00    +0.033 C 
ENDBRANCH  20  22
ENDBRANCH   1  16
BRANCH   1  26
ATOM     26  N   UNL     1       1.225  -1.602   6.306  0.00  0.00    +0.392 N 
ATOM     27  H   UNL     1       1.882  -1.369   7.035  0.00  0.00    -0.080 HD
BRANCH  26  28
ATOM     28  C   UNL     1      -0.143  -1.362   6.786  0.00  0.00    -0.040 C 
BRANCH  28  29
ATOM     29  C   UNL     1      -0.327  -2.021   8.129  0.00  0.00    -0.046 A 
ATOM     30  C   UNL     1      -0.963  -3.245   8.216  0.00  0.00    +0.003 A 
ATOM     31  C   UNL     1      -1.132  -3.850   9.448  0.00  0.00    +0.000 A 
ATOM     32  C   UNL     1      -0.665  -3.231  10.593  0.00  0.00    +0.001 A 
ATOM     33  C   UNL     1      -0.029  -2.007  10.506  0.00  0.00    +0.020 A 
ATOM     34  C   UNL     1       0.145  -1.404   9.273  0.00  0.00    +0.042 A 
ATOM     35 CL   UNL     1       0.950   0.130   9.163  0.00  0.00    -0.083 Cl
ENDBRANCH  28  29
ENDBRANCH  26  28
BRANCH  26  36
ATOM     36  C   UNL     1       1.376  -3.018   5.945  0.00  0.00    -0.002 C 
BRANCH  36  37
ATOM     37  C   UNL     1       2.814  -3.295   5.591  0.00  0.00    +0.089 A 
ATOM     38  C   UNL     1       3.752  -3.772   6.429  0.00  0.00    +0.042 A 
ATOM     39  C   UNL     1       4.950  -3.878   5.685  0.00  0.00    +0.041 A 
ATOM     40  C   UNL     1       4.672  -3.460   4.437  0.00  0.00    +0.195 A 
ATOM     41  O   UNL     1       3.375  -3.114   4.385  0.00  0.00    -0.470 OA
ENDBRANCH  36  37
ENDBRANCH  26  36
ENDBRANCH   1  26
TORSDOF 8
