REMARK  Name = ZINC21254563
REMARK  8 active torsions:
REMARK  status: ('A' for Active; 'I' for Inactive)
REMARK    1  A    between atoms: C_1  and  C_2
REMARK    2  A    between atoms: C_2  and  C_3
REMARK    3  A    between atoms: C_2  and  O_4
REMARK    4  A    between atoms: O_4  and  C_5
REMARK    5  A    between atoms: C_8  and  C_13
REMARK    6  A    between atoms: C_10  and  O_11
REMARK    7  A    between atoms: O_11  and  C_12
REMARK    8  A    between atoms: C_18  and  C_28
REMARK                            x       y       z     vdW  Elec       q    Type
REMARK                         _______ _______ _______ _____ _____    ______ ____
ROOT
ATOM      1  C   UNL     1      -1.299   2.047  -0.864  0.00  0.00    +0.032 C 
ATOM      2  C   UNL     1      -2.301   1.653   0.220  0.00  0.00    +0.059 C 
ATOM      3  C   UNL     1      -3.624   2.360  -0.015  0.00  0.00    +0.017 C 
ATOM      4  C   UNL     1      -4.036   2.638  -1.264  0.00  0.00    +0.039 C 
ATOM      5  C   UNL     1      -5.325   3.329  -1.639  0.00  0.00    +0.172 C 
ATOM      6  N   UNL     1      -6.271   3.469  -0.552  0.00  0.00    -0.329 N 
ATOM      7  C   UNL     1      -5.977   4.258   0.558  0.00  0.00    +0.049 A 
ATOM      8  C   UNL     1      -6.703   5.402   0.847  0.00  0.00    +0.025 A 
ATOM      9  C   UNL     1      -6.344   6.179   1.935  0.00  0.00    +0.002 A 
ATOM     10  C   UNL     1      -5.268   5.821   2.726  0.00  0.00    +0.002 A 
ATOM     11  C   UNL     1      -4.551   4.669   2.450  0.00  0.00    +0.025 A 
ATOM     12  C   UNL     1      -4.923   3.880   1.377  0.00  0.00    +0.052 A 
ATOM     13  N   UNL     1      -4.321   2.656   1.112  0.00  0.00    -0.316 N 
ATOM     14  C   UNL     1      -3.230   2.290  -2.374  0.00  0.00    +0.163 C 
ATOM     15  O   UNL     1      -3.637   2.531  -3.493  0.00  0.00    -0.292 OA
ATOM     16  C   UNL     1      -1.891   1.634  -2.218  0.00  0.00    +0.088 C 
ATOM     17  H   UNL     1      -7.238   2.947  -0.595  0.00  0.00    +0.147 HD
ATOM     18  H   UNL     1      -4.440   1.897   1.899  0.00  0.00    +0.152 HD
ENDROOT
BRANCH   1  22
ATOM     19  C   UNL     1       2.407   0.008  -0.234  0.00  0.00    +0.162 A 
ATOM     20  C   UNL     1       1.242  -0.714  -0.438  0.00  0.00    +0.050 A 
ATOM     21  C   UNL     1       0.045  -0.052  -0.640  0.00  0.00    +0.008 A 
ATOM     22  C   UNL     1       0.007   1.330  -0.638  0.00  0.00    -0.040 A 
ATOM     23  C   UNL     1       1.165   2.056  -0.434  0.00  0.00    +0.053 A 
ATOM     24  C   UNL     1       2.369   1.399  -0.232  0.00  0.00    +0.162 A 
BRANCH  24  25
ATOM     25  O   UNL     1       3.509   2.112  -0.031  0.00  0.00    -0.491 OA
ATOM     26  C   UNL     1       3.394   3.537  -0.042  0.00  0.00    +0.277 C 
ENDBRANCH  24  25
BRANCH  19  27
ATOM     27  O   UNL     1       3.585  -0.641  -0.035  0.00  0.00    -0.486 OA
BRANCH  27  29
ATOM     28  C   UNL     1       3.562  -2.680  -1.332  0.00  0.00    +0.051 C 
ATOM     29  C   UNL     1       3.531  -2.066   0.069  0.00  0.00    +0.167 C 
ATOM     30  C   UNL     1       4.734  -2.564   0.872  0.00  0.00    +0.051 C 
ENDBRANCH  27  29
ENDBRANCH  19  27
ENDBRANCH   1  22
BRANCH   5  31
ATOM     31  C   UNL     1      -4.995   4.705  -2.160  0.00  0.00    +0.130 A 
ATOM     32  C   UNL     1      -4.930   5.060  -3.456  0.00  0.00    +0.047 A 
ATOM     33  C   UNL     1      -4.592   6.433  -3.487  0.00  0.00    +0.041 A 
ATOM     34  C   UNL     1      -4.471   6.834  -2.209  0.00  0.00    +0.195 A 
ATOM     35  O   UNL     1      -4.722   5.784  -1.409  0.00  0.00    -0.466 OA
ENDBRANCH   5  31
TORSDOF 5
