REMARK  Name = ZINC35032449
REMARK  12 active torsions:
REMARK  status: ('A' for Active; 'I' for Inactive)
REMARK    1  A    between atoms: C_1  and  C_2
REMARK    2  A    between atoms: C_2  and  C_3
REMARK    3  A    between atoms: C_3  and  N_4
REMARK    4  A    between atoms: C_14  and  C_15
REMARK    5  A    between atoms: C_15  and  C_17
REMARK    6  A    between atoms: C_15  and  N_18
REMARK    7  A    between atoms: N_18  and  C_19
REMARK    8  A    between atoms: C_19  and  C_20
REMARK    9  A    between atoms: C_20  and  N_21
REMARK   10  A    between atoms: N_21  and  C_22
REMARK   11  A    between atoms: N_21  and  C_23
REMARK   12  A    between atoms: N_26  and  C_27
REMARK                            x       y       z     vdW  Elec       q    Type
REMARK                         _______ _______ _______ _____ _____    ______ ____
ROOT
ATOM      1  N   UNL     1       3.854  -2.926  -0.735  0.00  0.00    -0.278 N 
ATOM      2  C   UNL     1       3.964  -2.991  -2.077  0.00  0.00    +0.303 C 
ATOM      3  O   UNL     1       3.303  -2.248  -2.778  0.00  0.00    -0.253 OA
ATOM      4  N   UNL     1       4.806  -3.878  -2.642  0.00  0.00    -0.294 N 
ATOM      5  H   UNL     1       5.333  -4.470  -2.083  0.00  0.00    +0.151 HD
ENDROOT
BRANCH   4   6
ATOM      6  C   UNL     1       4.926  -3.948  -4.101  0.00  0.00    +0.037 C 
ATOM      7  C   UNL     1       3.564  -4.293  -4.708  0.00  0.00    +0.029 C 
ATOM      8  C   UNL     1       3.689  -4.366  -6.231  0.00  0.00    -0.008 C 
ATOM      9  C   UNL     1       4.704  -5.447  -6.608  0.00  0.00    +0.007 C 
ATOM     10  C   UNL     1       6.065  -5.103  -6.001  0.00  0.00    -0.008 C 
ATOM     11  C   UNL     1       5.941  -5.030  -4.478  0.00  0.00    +0.029 C 
ATOM     12  C   UNL     1       6.537  -3.751  -6.540  0.00  0.00    +0.007 C 
ATOM     13  C   UNL     1       5.522  -2.670  -6.163  0.00  0.00    -0.008 C 
ATOM     14  C   UNL     1       4.160  -3.014  -6.770  0.00  0.00    +0.007 C 
ATOM     15  C   UNL     1       5.397  -2.596  -4.639  0.00  0.00    +0.029 C 
ENDBRANCH   4   6
BRANCH   1  16
ATOM     16  C   UNL     1       2.938  -1.962  -0.121  0.00  0.00    +0.141 C 
ATOM     17  C   UNL     1       3.743  -0.917   0.655  0.00  0.00    +0.036 C 
BRANCH  16  28
ATOM     18  N   UNL     1       0.686  -2.722   0.517  0.00  0.00    -0.295 N 
ATOM     19  C   UNL     1      -0.189  -3.361   1.328  0.00  0.00    +0.262 A 
ATOM     20  O   UNL     1      -1.376  -3.411   1.064  0.00  0.00    -0.267 OA
ATOM     21  C   UNL     1       0.351  -3.994   2.540  0.00  0.00    +0.065 A 
ATOM     22  C   UNL     1      -0.465  -4.677   3.441  0.00  0.00    +0.015 A 
ATOM     23  C   UNL     1       0.094  -5.252   4.561  0.00  0.00    +0.001 A 
ATOM     24  C   UNL     1       1.459  -5.156   4.798  0.00  0.00    +0.002 A 
ATOM     25  C   UNL     1       2.282  -4.486   3.921  0.00  0.00    +0.028 A 
ATOM     26  C   UNL     1       1.739  -3.895   2.778  0.00  0.00    +0.078 A 
ATOM     27  N   UNL     1       2.513  -3.226   1.887  0.00  0.00    -0.232 NA
ATOM     28  C   UNL     1       2.009  -2.681   0.822  0.00  0.00    +0.133 A 
BRANCH  18  29
ATOM     29  C   UNL     1       0.203  -2.074  -0.705  0.00  0.00    +0.126 C 
BRANCH  29  31
ATOM     30  C   UNL     1      -0.175  -2.367  -3.157  0.00  0.00    +0.005 C 
ATOM     31  C   UNL     1       0.330  -3.044  -1.881  0.00  0.00    +0.018 C 
ENDBRANCH  29  31
ENDBRANCH  18  29
ENDBRANCH  16  28
ENDBRANCH   1  16
BRANCH   1  32
ATOM     32  C   UNL     1       4.650  -3.820   0.109  0.00  0.00    +0.091 C 
BRANCH  32  33
ATOM     33  C   UNL     1       3.939  -5.169   0.236  0.00  0.00    -0.060 C 
BRANCH  33  34
ATOM     34  N   UNL     1       4.671  -6.021   1.183  0.00  0.00    +0.377 N 
ATOM     35  C   UNL     1       3.925  -7.269   1.396  0.00  0.00    -0.097 C 
ATOM     36  C   UNL     1       5.999  -6.332   0.637  0.00  0.00    -0.097 C 
ATOM     37  H   UNL     1       4.773  -5.536   2.062  0.00  0.00    -0.083 HD
ENDBRANCH  33  34
ENDBRANCH  32  33
ENDBRANCH   1  32
TORSDOF 8
