REMARK  Name = ZINC36146722
REMARK  14 active torsions:
REMARK  status: ('A' for Active; 'I' for Inactive)
REMARK    1  A    between atoms: C_1  and  N_2
REMARK    2  A    between atoms: N_2  and  C_3
REMARK    3  A    between atoms: N_2  and  C_4
REMARK    4  A    between atoms: C_7  and  C_10
REMARK    5  A    between atoms: C_13  and  C_16
REMARK    6  A    between atoms: C_16  and  N_17
REMARK    7  A    between atoms: N_17  and  C_18
REMARK    8  A    between atoms: N_17  and  C_26
REMARK    9  A    between atoms: C_18  and  C_19
REMARK   10  A    between atoms: C_26  and  C_27
REMARK   11  A    between atoms: C_27  and  C_29
REMARK   12  A    between atoms: C_27  and  O_37
REMARK   13  A    between atoms: C_29  and  O_30
REMARK   14  A    between atoms: O_30  and  C_31
REMARK                            x       y       z     vdW  Elec       q    Type
REMARK                         _______ _______ _______ _____ _____    ______ ____
ROOT
ATOM      1  N   UNL     1      -0.631  -4.400  -9.530  0.00  0.00    +0.387 N 
ATOM      2  H   UNL     1      -1.479  -4.860  -9.824  0.00  0.00    -0.081 HD
ENDROOT
BRANCH   1   3
ATOM      3  C   UNL     1      -0.927  -3.003  -9.182  0.00  0.00    -0.030 C 
BRANCH   3   7
ATOM      4  C   UNL     1      -3.016  -1.671  -6.475  0.00  0.00    +0.091 C 
ATOM      5  N   UNL     1      -2.685  -2.853  -6.070  0.00  0.00    -0.089 NA
ATOM      6  O   UNL     1      -1.969  -3.587  -7.043  0.00  0.00    -0.392 OA
ATOM      7  C   UNL     1      -2.189  -2.950  -8.318  0.00  0.00    +0.194 C 
ATOM      8  C   UNL     1      -2.515  -1.499  -7.896  0.00  0.00    +0.104 C 
BRANCH   4  12
ATOM      9  C   UNL     1      -5.155   1.224  -4.222  0.00  0.00    +0.029 A 
ATOM     10  C   UNL     1      -4.858  -0.013  -3.659  0.00  0.00    +0.024 A 
ATOM     11  C   UNL     1      -4.165  -0.955  -4.387  0.00  0.00    +0.011 A 
ATOM     12  C   UNL     1      -3.759  -0.666  -5.693  0.00  0.00    -0.000 A 
ATOM     13  C   UNL     1      -4.059   0.577  -6.255  0.00  0.00    +0.011 A 
ATOM     14  C   UNL     1      -4.757   1.512  -5.524  0.00  0.00    +0.024 A 
BRANCH   9  16
ATOM     15  C   UNL     1      -6.176   3.474  -4.077  0.00  0.00    +0.129 C 
ATOM     16  N   UNL     1      -5.857   2.174  -3.483  0.00  0.00    -0.336 N 
ATOM     17  C   UNL     1      -6.277   1.871  -2.113  0.00  0.00    +0.129 C 
ENDBRANCH   9  16
ENDBRANCH   4  12
ENDBRANCH   3   7
ENDBRANCH   1   3
BRANCH   1  18
ATOM     18  C   UNL     1      -0.081  -5.091  -8.356  0.00  0.00    -0.043 C 
BRANCH  18  19
ATOM     19  C   UNL     1       1.113  -4.330  -7.839  0.00  0.00    -0.063 A 
ATOM     20  C   UNL     1       2.359  -4.534  -8.401  0.00  0.00    +0.002 A 
ATOM     21  C   UNL     1       3.454  -3.837  -7.927  0.00  0.00    +0.002 A 
ATOM     22  C   UNL     1       3.304  -2.935  -6.890  0.00  0.00    +0.020 A 
ATOM     23  C   UNL     1       2.057  -2.730  -6.327  0.00  0.00    +0.041 A 
ATOM     24  C   UNL     1       0.960  -3.424  -6.806  0.00  0.00    +0.021 A 
ATOM     25 CL   UNL     1       1.868  -1.598  -5.025  0.00  0.00    -0.084 Cl
ENDBRANCH  18  19
ENDBRANCH   1  18
BRANCH   1  26
ATOM     26  C   UNL     1       0.350  -4.434 -10.623  0.00  0.00    -0.043 C 
BRANCH  26  27
ATOM     27  C   UNL     1       0.354  -5.825 -11.261  0.00  0.00    +0.135 C 
BRANCH  27  28
ATOM     28  O   UNL     1       0.860  -6.778 -10.323  0.00  0.00    -0.390 OA
ATOM     29  H   UNL     1       1.761  -6.594 -10.024  0.00  0.00    +0.210 HD
ENDBRANCH  27  28
BRANCH  27  30
ATOM     30  C   UNL     1       1.242  -5.813 -12.506  0.00  0.00    +0.258 C 
BRANCH  30  31
ATOM     31  O   UNL     1       1.154  -7.077 -13.167  0.00  0.00    -0.489 OA
BRANCH  31  32
ATOM     32  C   UNL     1       1.889  -7.233 -14.299  0.00  0.00    +0.121 A 
ATOM     33  C   UNL     1       2.682  -6.194 -14.762  0.00  0.00    +0.045 A 
ATOM     34  C   UNL     1       3.428  -6.356 -15.914  0.00  0.00    +0.004 A 
ATOM     35  C   UNL     1       3.384  -7.552 -16.605  0.00  0.00    +0.000 A 
ATOM     36  C   UNL     1       2.594  -8.589 -16.146  0.00  0.00    +0.004 A 
ATOM     37  C   UNL     1       1.851  -8.435 -14.992  0.00  0.00    +0.045 A 
ENDBRANCH  31  32
ENDBRANCH  30  31
ENDBRANCH  27  30
ENDBRANCH  26  27
ENDBRANCH   1  26
TORSDOF 12
