REMARK  Name = ZINC63413109
REMARK  9 active torsions:
REMARK  status: ('A' for Active; 'I' for Inactive)
REMARK    1  A    between atoms: C_1  and  C_2
REMARK    2  A    between atoms: C_11  and  C_12
REMARK    3  A    between atoms: C_12  and  C_14
REMARK    4  A    between atoms: C_14  and  C_26
REMARK    5  A    between atoms: C_15  and  C_16
REMARK    6  A    between atoms: C_21  and  C_22
REMARK    7  A    between atoms: C_22  and  C_23
REMARK    8  A    between atoms: C_22  and  C_24
REMARK    9  A    between atoms: C_22  and  C_25
REMARK                            x       y       z     vdW  Elec       q    Type
REMARK                         _______ _______ _______ _____ _____    ______ ____
ROOT
ATOM      1  C   UNL     1       0.654  -6.718  -0.175  0.00  0.00    +0.100 C 
ATOM      2  C   UNL     1       0.318  -7.759  -1.015  0.00  0.00    +0.034 C 
ENDROOT
BRANCH   2   3
ATOM      3  C   UNL     1       0.340  -9.136  -0.520  0.00  0.00    +0.017 A 
ATOM      4  C   UNL     1       0.911  -9.578   0.664  0.00  0.00    +0.113 A 
ATOM      5  N   UNL     1       0.709 -10.903   0.736  0.00  0.00    -0.284 N 
ATOM      6  H   UNL     1       1.000 -11.482   1.457  0.00  0.00    +0.188 HD
ATOM      7  N   UNL     1       0.008 -11.310  -0.405  0.00  0.00    -0.178 NA
ATOM      8  C   UNL     1      -0.223 -10.270  -1.156  0.00  0.00    +0.075 A 
BRANCH   8   9
ATOM      9  C   UNL     1      -0.958 -10.274  -2.472  0.00  0.00    +0.007 C 
ATOM     10  C   UNL     1      -0.029  -9.761  -3.575  0.00  0.00    +0.017 C 
ATOM     11  C   UNL     1      -1.404 -11.699  -2.803  0.00  0.00    +0.017 C 
ATOM     12  C   UNL     1      -2.184  -9.365  -2.374  0.00  0.00    +0.017 C 
ENDBRANCH   8   9
ENDBRANCH   2   3
BRANCH   1  13
ATOM     13  C   UNL     1       0.775  -5.353  -0.707  0.00  0.00    +0.205 C 
ATOM     14  O   UNL     1       0.492  -5.125  -1.870  0.00  0.00    -0.286 OA
BRANCH  13  25
ATOM     15  C   UNL     1       2.507   1.284  -0.381  0.00  0.00    +0.044 C 
ATOM     16  C   UNL     1       2.153  -0.180  -0.323  0.00  0.00    -0.048 A 
ATOM     17  C   UNL     1       1.740  -0.834  -1.475  0.00  0.00    +0.004 A 
ATOM     18  C   UNL     1       1.413  -2.171  -1.436  0.00  0.00    +0.011 A 
ATOM     19  C   UNL     1       1.500  -2.868  -0.233  0.00  0.00    +0.011 A 
ATOM     20  C   UNL     1       1.918  -2.208   0.933  0.00  0.00    +0.047 A 
ATOM     21  C   UNL     1       2.248  -0.858   0.873  0.00  0.00    +0.029 A 
ATOM     22  N   UNL     1       1.909  -3.133   1.958  0.00  0.00    -0.360 N 
ATOM     23  H   UNL     1       2.156  -2.944   2.876  0.00  0.00    +0.165 HD
ATOM     24  C   UNL     1       1.507  -4.343   1.499  0.00  0.00    +0.095 A 
ATOM     25  C   UNL     1       1.237  -4.263   0.163  0.00  0.00    +0.048 A 
ENDBRANCH  13  25
ENDBRANCH   1  13
BRANCH   1  26
ATOM     26  C   UNL     1       0.884  -6.968   1.216  0.00  0.00    +0.103 C 
ATOM     27  N   UNL     1       1.068  -7.165   2.320  0.00  0.00    -0.191 NA
ENDBRANCH   1  26
TORSDOF 5
