REMARK  Name = ZINC08767669
REMARK  6 active torsions:
REMARK  status: ('A' for Active; 'I' for Inactive)
REMARK    1  A    between atoms: C_1  and  C_2
REMARK    2  A    between atoms: C_2  and  C_31
REMARK    3  A    between atoms: C_3  and  N_28
REMARK    4  A    between atoms: C_5  and  C_21
REMARK    5  A    between atoms: C_7  and  C_14
REMARK    6  A    between atoms: C_9  and  N_11
REMARK                            x       y       z     vdW  Elec       q    Type
REMARK                         _______ _______ _______ _____ _____    ______ ____
ROOT
ATOM      1  C   UNL     1      -4.068  -1.142  -0.929  0.00  0.00    +0.015 C 
ATOM      2  C   UNL     1      -2.922  -2.043  -1.394  0.00  0.00    +0.017 C 
ATOM      3  C   UNL     1      -1.616  -1.244  -1.410  0.00  0.00    +0.168 C 
ATOM      4  C   UNL     1      -1.293  -0.775   0.010  0.00  0.00    -0.010 C 
ATOM      5  C   UNL     1      -2.419  -2.698   0.963  0.00  0.00    -0.010 C 
ATOM      6  C   UNL     1      -2.776  -3.224  -0.429  0.00  0.00    +0.168 C 
ATOM      7  C   UNL     1      -3.219  -2.566  -2.801  0.00  0.00    +0.015 C 
ATOM      8  N   UNL     1      -1.153  -1.944   0.900  0.00  0.00    +0.391 N 
ATOM      9  H   UNL     1      -0.903  -1.623   1.843  0.00  0.00    -0.084 HD
ATOM     10  H   UNL     1      -0.412  -2.556   0.539  0.00  0.00    -0.084 HD
ENDROOT
BRANCH   5  11
ATOM     11  C   UNL     1      -2.255  -3.858   1.911  0.00  0.00    -0.059 A 
ATOM     12  C   UNL     1      -1.079  -4.585   1.916  0.00  0.00    +0.003 A 
ATOM     13  C   UNL     1      -0.927  -5.646   2.788  0.00  0.00    +0.015 A 
ATOM     14  C   UNL     1      -1.954  -5.986   3.650  0.00  0.00    +0.018 A 
ATOM     15  C   UNL     1      -3.132  -5.261   3.641  0.00  0.00    +0.015 A 
ATOM     16  C   UNL     1      -3.282  -4.197   2.771  0.00  0.00    +0.003 A 
ATOM     17 BR   UNL     1      -1.749  -7.442   4.839  0.00  0.00    -0.050 Br
ENDBRANCH   5  11
BRANCH   4  18
ATOM     18  C   UNL     1       0.002  -0.004   0.002  0.00  0.00    -0.059 A 
ATOM     19  C   UNL     1      -0.017   1.378   0.010  0.00  0.00    +0.003 A 
ATOM     20  C   UNL     1       1.171   2.086   0.002  0.00  0.00    +0.015 A 
ATOM     21  C   UNL     1       2.378   1.411  -0.013  0.00  0.00    +0.018 A 
ATOM     22  C   UNL     1       2.396   0.027  -0.020  0.00  0.00    +0.015 A 
ATOM     23  C   UNL     1       1.208  -0.679  -0.013  0.00  0.00    +0.003 A 
ATOM     24 BR   UNL     1       4.003   2.378  -0.023  0.00  0.00    -0.050 Br
ENDBRANCH   4  18
BRANCH   6  25
ATOM     25  N   UNL     1      -1.714  -4.114  -0.903  0.00  0.00    +0.025 N 
ATOM     26  O   UNL     1      -0.577  -3.694  -1.028  0.00  0.00    -0.131 OA
ATOM     27  O   UNL     1      -1.967  -5.274  -1.173  0.00  0.00    -0.131 OA
ENDBRANCH   6  25
BRANCH   3  28
ATOM     28  N   UNL     1      -1.766  -0.080  -2.287  0.00  0.00    +0.025 N 
ATOM     29  O   UNL     1      -1.035   0.054  -3.252  0.00  0.00    -0.131 OA
ATOM     30  O   UNL     1      -2.621   0.755  -2.051  0.00  0.00    -0.131 OA
ENDBRANCH   3  28
TORSDOF 4
