REMARK  Name = ZINC11566819
REMARK  6 active torsions:
REMARK  status: ('A' for Active; 'I' for Inactive)
REMARK    1  A    between atoms: C_1  and  C_2
REMARK    2  A    between atoms: C_5  and  N_8
REMARK    3  A    between atoms: C_9  and  N_23
REMARK    4  A    between atoms: C_10  and  C_17
REMARK    5  A    between atoms: C_17  and  C_19
REMARK    6  A    between atoms: C_19  and  C_21
REMARK                            x       y       z     vdW  Elec       q    Type
REMARK                         _______ _______ _______ _____ _____    ______ ____
ROOT
ATOM      1  N   UNL     1      -3.666   0.629  -3.246  0.00  0.00    -0.250 N 
ATOM      2  C   UNL     1      -2.308   0.791  -3.270  0.00  0.00    +0.121 A 
ATOM      3  C   UNL     1      -1.546   0.295  -2.198  0.00  0.00    +0.121 A 
ATOM      4  C   UNL     1      -2.258  -0.380  -1.104  0.00  0.00    +0.266 A 
ATOM      5  O   UNL     1      -1.649  -0.832  -0.153  0.00  0.00    -0.267 OA
ATOM      6  N   UNL     1      -3.601  -0.483  -1.174  0.00  0.00    -0.274 N 
ATOM      7  H   UNL     1      -4.100  -0.933  -0.433  0.00  0.00    +0.173 HD
ATOM      8  C   UNL     1      -4.277   0.010  -2.224  0.00  0.00    +0.335 A 
ATOM      9  O   UNL     1      -5.486  -0.109  -2.251  0.00  0.00    -0.246 OA
ENDROOT
BRANCH   1  14
ATOM     10  C   UNL     1      -6.777   2.616  -7.557  0.00  0.00    +0.044 C 
ATOM     11  C   UNL     1      -5.952   2.088  -6.412  0.00  0.00    -0.050 A 
ATOM     12  C   UNL     1      -5.762   2.864  -5.283  0.00  0.00    +0.005 A 
ATOM     13  C   UNL     1      -5.005   2.383  -4.233  0.00  0.00    +0.026 A 
ATOM     14  C   UNL     1      -4.435   1.120  -4.311  0.00  0.00    +0.053 A 
ATOM     15  C   UNL     1      -4.622   0.345  -5.448  0.00  0.00    +0.026 A 
ATOM     16  C   UNL     1      -5.385   0.829  -6.493  0.00  0.00    +0.005 A 
ENDBRANCH   1  14
BRANCH   2  17
ATOM     17  N   UNL     1      -1.704   1.421  -4.314  0.00  0.00    -0.343 N 
ATOM     18  H   UNL     1      -2.131   1.435  -5.185  0.00  0.00    +0.144 HD
ATOM     19  H   UNL     1      -0.847   1.857  -4.187  0.00  0.00    +0.144 HD
ENDBRANCH   2  17
BRANCH   3  20
ATOM     20  C   UNL     1      -0.142   0.437  -2.175  0.00  0.00    +0.189 C 
ATOM     21  O   UNL     1       0.417   1.081  -3.039  0.00  0.00    -0.290 OA
BRANCH  20  22
ATOM     22  C   UNL     1       0.663  -0.212  -1.079  0.00  0.00    +0.149 C 
ATOM     23  C   UNL     1       0.697   0.710   0.142  0.00  0.00    +0.033 C 
ATOM     24 CL   UNL     1       2.345  -0.503  -1.660  0.00  0.00    -0.114 Cl
ENDBRANCH  20  22
ENDBRANCH   3  20
TORSDOF 4
