REMARK  Name = ZINC26363436
REMARK  10 active torsions:
REMARK  status: ('A' for Active; 'I' for Inactive)
REMARK    1  A    between atoms: C_1  and  C_2
REMARK    2  A    between atoms: C_5  and  N_26
REMARK    3  A    between atoms: C_6  and  N_9
REMARK    4  A    between atoms: C_7  and  C_8
REMARK    5  A    between atoms: C_10  and  C_12
REMARK    6  A    between atoms: C_12  and  C_14
REMARK    7  A    between atoms: C_12  and  N_15
REMARK    8  A    between atoms: N_15  and  C_16
REMARK    9  A    between atoms: C_16  and  C_18
REMARK   10  A    between atoms: C_16  and  C_19
REMARK                            x       y       z     vdW  Elec       q    Type
REMARK                         _______ _______ _______ _____ _____    ______ ____
ROOT
ATOM      1  N   UNL     1       3.470  -5.570  -2.614  0.00  0.00    -0.285 N 
ATOM      2  C   UNL     1       3.651  -5.035  -1.390  0.00  0.00    +0.203 C 
ATOM      3  O   UNL     1       4.773  -4.822  -0.981  0.00  0.00    -0.277 OA
ATOM      4  H   UNL     1       2.453  -5.721  -3.003  0.00  0.00    +0.155 HD
ENDROOT
BRANCH   1  10
ATOM      5  C   UNL     1       7.675  -4.323  -4.835  0.00  0.00    +0.044 C 
ATOM      6  C   UNL     1       6.631  -5.350  -4.480  0.00  0.00    -0.046 A 
ATOM      7  C   UNL     1       6.766  -6.654  -4.921  0.00  0.00    +0.006 A 
ATOM      8  C   UNL     1       5.809  -7.598  -4.598  0.00  0.00    +0.035 A 
ATOM      9  C   UNL     1       4.718  -7.244  -3.828  0.00  0.00    +0.148 A 
ATOM     10  C   UNL     1       4.577  -5.934  -3.389  0.00  0.00    +0.067 A 
ATOM     11  C   UNL     1       5.540  -4.987  -3.715  0.00  0.00    -0.024 A 
ATOM     12  C   UNL     1       5.394  -3.567  -3.234  0.00  0.00    +0.046 C 
BRANCH   9  13
ATOM     13  N   UNL     1       3.698  -8.257  -3.478  0.00  0.00    +0.058 N 
ATOM     14  O   UNL     1       3.869  -9.424  -3.781  0.00  0.00    -0.126 OA
ATOM     15  O   UNL     1       2.687  -7.924  -2.886  0.00  0.00    -0.126 OA
ENDBRANCH   9  13
ENDBRANCH   1  10
BRANCH   2  16
ATOM     16  C   UNL     1       2.459  -4.701  -0.530  0.00  0.00    +0.014 C 
ATOM     17  C   UNL     1       1.652  -5.973  -0.262  0.00  0.00    -0.004 C 
BRANCH  16  18
ATOM     18  N   UNL     1       2.919  -4.135   0.745  0.00  0.00    +0.391 N 
ATOM     19  H   UNL     1       2.159  -4.311   1.520  0.00  0.00    -0.084 HD
ATOM     20  H   UNL     1       3.863  -4.616   1.041  0.00  0.00    -0.084 HD
BRANCH  18  21
ATOM     21  C   UNL     1       3.145  -2.688   0.627  0.00  0.00    -0.042 C 
ATOM     22  C   UNL     1       1.813  -1.950   0.779  0.00  0.00    -0.009 C 
BRANCH  21  23
ATOM     23  C   UNL     1       4.095  -2.238   1.708  0.00  0.00    -0.043 A 
ATOM     24  C   UNL     1       4.281  -3.019   2.833  0.00  0.00    +0.003 A 
ATOM     25  C   UNL     1       5.152  -2.606   3.824  0.00  0.00    +0.000 A 
ATOM     26  C   UNL     1       5.838  -1.413   3.690  0.00  0.00    +0.001 A 
ATOM     27  C   UNL     1       5.652  -0.632   2.565  0.00  0.00    +0.020 A 
ATOM     28  C   UNL     1       4.780  -1.044   1.573  0.00  0.00    +0.043 A 
ATOM     29 CL   UNL     1       4.548  -0.064   0.159  0.00  0.00    -0.083 Cl
ENDBRANCH  21  23
ENDBRANCH  18  21
ENDBRANCH  16  18
ENDBRANCH   2  16
TORSDOF 6
