REMARK  Name = ZINC39596367
REMARK  11 active torsions:
REMARK  status: ('A' for Active; 'I' for Inactive)
REMARK    1  A    between atoms: C_1  and  C_2
REMARK    2  A    between atoms: C_2  and  C_4
REMARK    3  A    between atoms: C_2  and  O_31
REMARK    4  A    between atoms: C_4  and  N_5
REMARK    5  A    between atoms: C_6  and  C_8
REMARK    6  A    between atoms: C_19  and  C_21
REMARK    7  A    between atoms: C_23  and  O_29
REMARK    8  A    between atoms: C_26  and  O_27
REMARK    9  A    between atoms: O_27  and  C_28
REMARK   10  A    between atoms: O_29  and  C_30
REMARK   11  A    between atoms: O_31  and  C_32
REMARK                            x       y       z     vdW  Elec       q    Type
REMARK                         _______ _______ _______ _____ _____    ______ ____
ROOT
ATOM      1  C   UNL     1      -2.246  -4.125   0.426  0.00  0.00    +0.100 C 
ATOM      2  C   UNL     1      -1.436  -4.389  -0.863  0.00  0.00    +0.121 C 
ATOM      3  N   UNL     1      -2.017  -5.631  -1.422  0.00  0.00    -0.296 N 
ATOM      4  C   UNL     1      -3.475  -5.495  -1.189  0.00  0.00    +0.115 C 
ATOM      5  C   UNL     1      -3.584  -4.851   0.208  0.00  0.00    -0.004 C 
ATOM      6  C   UNL     1      -4.738  -3.855   0.241  0.00  0.00    -0.010 C 
ATOM      7  C   UNL     1      -6.062  -4.608   0.080  0.00  0.00    -0.082 C 
ATOM      8  N   UNL     1      -6.204  -5.588   1.163  0.00  0.00    +0.379 N 
ATOM      9  C   UNL     1      -5.143  -6.597   1.068  0.00  0.00    -0.082 C 
ATOM     10  C   UNL     1      -3.780  -5.928   1.271  0.00  0.00    -0.010 C 
ATOM     11  C   UNL     1      -1.367  -6.655  -2.010  0.00  0.00    +0.250 C 
ATOM     12  O   UNL     1      -0.152  -6.662  -2.050  0.00  0.00    -0.270 OA
ATOM     13  H   UNL     1      -6.139  -5.116   2.053  0.00  0.00    -0.086 HD
ATOM     14  H   UNL     1      -7.104  -6.040   1.090  0.00  0.00    -0.086 HD
ENDROOT
BRANCH  11  15
ATOM     15  C   UNL     1      -2.131  -7.769  -2.606  0.00  0.00    +0.082 A 
ATOM     16  C   UNL     1      -3.359  -7.526  -3.226  0.00  0.00    +0.062 A 
ATOM     17  C   UNL     1      -4.068  -8.573  -3.782  0.00  0.00    +0.121 A 
ATOM     18  C   UNL     1      -3.563  -9.867  -3.726  0.00  0.00    +0.049 A 
ATOM     19  C   UNL     1      -2.351 -10.116  -3.115  0.00  0.00    +0.050 A 
ATOM     20  C   UNL     1      -1.625  -9.074  -2.558  0.00  0.00    +0.132 A 
BRANCH  20  21
ATOM     21  O   UNL     1      -0.430  -9.320  -1.962  0.00  0.00    -0.494 OA
ATOM     22  C   UNL     1       0.023 -10.675  -1.951  0.00  0.00    +0.277 C 
ENDBRANCH  20  21
BRANCH  17  23
ATOM     23  O   UNL     1      -5.264  -8.338  -4.386  0.00  0.00    -0.495 OA
ATOM     24  C   UNL     1      -5.944  -9.466  -4.940  0.00  0.00    +0.277 C 
ENDBRANCH  17  23
ENDBRANCH  11  15
BRANCH   1  26
ATOM     25  N   UNL     1      -2.599  -2.131   1.848  0.00  0.00    -0.312 N 
ATOM     26  C   UNL     1      -2.476  -2.647   0.609  0.00  0.00    +0.218 C 
ATOM     27  O   UNL     1      -2.550  -1.921  -0.360  0.00  0.00    -0.275 OA
ATOM     28  H   UNL     1      -2.539  -2.712   2.623  0.00  0.00    +0.149 HD
BRANCH  25  29
ATOM     29  C   UNL     1      -2.822  -0.694   2.025  0.00  0.00    +0.148 C 
BRANCH  29  31
ATOM     30  C   UNL     1      -3.281   1.102   3.700  0.00  0.00    +0.053 C 
ATOM     31  C   UNL     1      -2.924  -0.374   3.518  0.00  0.00    +0.187 C 
BRANCH  31  32
ATOM     32  O   UNL     1      -1.671  -0.643   4.150  0.00  0.00    -0.488 OA
BRANCH  32  33
ATOM     33  C   UNL     1      -1.696  -0.897   5.485  0.00  0.00    +0.121 A 
ATOM     34  C   UNL     1      -2.905  -0.939   6.162  0.00  0.00    +0.048 A 
ATOM     35  C   UNL     1      -2.929  -1.197   7.519  0.00  0.00    +0.042 A 
ATOM     36  C   UNL     1      -1.745  -1.412   8.204  0.00  0.00    +0.124 A 
ATOM     37  C   UNL     1      -0.536  -1.369   7.530  0.00  0.00    +0.042 A 
ATOM     38  C   UNL     1      -0.510  -1.118   6.171  0.00  0.00    +0.048 A 
ATOM     39  F   UNL     1      -1.769  -1.663   9.531  0.00  0.00    -0.205 F 
ENDBRANCH  32  33
ENDBRANCH  31  32
ENDBRANCH  29  31
ENDBRANCH  25  29
ENDBRANCH   1  26
TORSDOF 8
