REMARK  Name = ZINC14667696
REMARK  6 active torsions:
REMARK  status: ('A' for Active; 'I' for Inactive)
REMARK    1  A    between atoms: C_3  and  S_26
REMARK    2  A    between atoms: C_6  and  C_7
REMARK    3  A    between atoms: C_8  and  C_9
REMARK    4  A    between atoms: N_14  and  C_17
REMARK    5  A    between atoms: C_20  and  N_23
REMARK    6  A    between atoms: S_26  and  N_29
REMARK                            x       y       z     vdW  Elec       q    Type
REMARK                         _______ _______ _______ _____ _____    ______ ____
ROOT
ATOM      1  C   UNL     1       1.531   8.573  -3.524  0.00  0.00    +0.013 C 
ATOM      2  C   UNL     1       1.096   7.614  -2.682  0.00  0.00    +0.068 C 
ENDROOT
BRANCH   2   3
ATOM      3  C   UNL     1       1.965   7.137  -1.604  0.00  0.00    +0.240 C 
ATOM      4  O   UNL     1       3.043   7.668  -1.412  0.00  0.00    -0.271 OA
ATOM      5  N   UNL     1       1.572   6.110  -0.825  0.00  0.00    -0.295 N 
ATOM      6  C   UNL     1       0.228   5.529  -0.965  0.00  0.00    +0.127 C 
ATOM      7  C   UNL     1      -0.426   5.476   0.420  0.00  0.00    +0.124 C 
ATOM      8  N   UNL     1       0.463   4.768   1.351  0.00  0.00    -0.327 N 
ATOM      9  C   UNL     1       1.732   5.487   1.526  0.00  0.00    +0.124 C 
ATOM     10  C   UNL     1       2.474   5.540   0.186  0.00  0.00    +0.127 C 
BRANCH   8  11
ATOM     11  C   UNL     1      -0.165   4.556   2.580  0.00  0.00    +0.030 A 
ATOM     12  C   UNL     1       0.509   3.900   3.602  0.00  0.00    +0.025 A 
ATOM     13  C   UNL     1      -0.116   3.691   4.816  0.00  0.00    +0.034 A 
ATOM     14  C   UNL     1      -1.410   4.136   5.015  0.00  0.00    +0.126 A 
ATOM     15  C   UNL     1      -2.084   4.789   4.000  0.00  0.00    +0.034 A 
ATOM     16  C   UNL     1      -1.466   5.000   2.783  0.00  0.00    +0.025 A 
BRANCH  14  17
ATOM     17  N   UNL     1      -2.076   3.912   6.318  0.00  0.00    +0.056 N 
ATOM     18  O   UNL     1      -1.484   3.336   7.213  0.00  0.00    -0.126 OA
ATOM     19  O   UNL     1      -3.216   4.302   6.495  0.00  0.00    -0.126 OA
ENDBRANCH  14  17
ENDBRANCH   8  11
ENDBRANCH   2   3
BRANCH   1  25
ATOM     20  C   UNL     1      -0.623   8.512  -4.769  0.00  0.00    +0.010 A 
ATOM     21  C   UNL     1      -1.437   8.969  -5.784  0.00  0.00    +0.029 A 
ATOM     22  C   UNL     1      -0.988   9.954  -6.646  0.00  0.00    +0.106 A 
ATOM     23  C   UNL     1       0.279  10.491  -6.495  0.00  0.00    +0.029 A 
ATOM     24  C   UNL     1       1.104  10.047  -5.482  0.00  0.00    +0.010 A 
ATOM     25  C   UNL     1       0.657   9.053  -4.607  0.00  0.00    -0.025 A 
BRANCH  22  26
ATOM     26  S   UNL     1      -2.033  10.528  -7.942  0.00  0.00    +0.061 S 
ATOM     27  O   UNL     1      -3.368  10.258  -7.537  0.00  0.00    -0.153 OA
ATOM     28  O   UNL     1      -1.588  11.836  -8.275  0.00  0.00    -0.153 OA
BRANCH  26  29
ATOM     29  N   UNL     1      -1.739   9.577  -9.266  0.00  0.00    -0.177 NA
ATOM     30  C   UNL     1      -0.713   9.985 -10.199  0.00  0.00    +0.109 C 
ATOM     31  C   UNL     1      -1.322  10.899 -11.283  0.00  0.00    +0.017 C 
ATOM     32  C   UNL     1      -2.177  10.117 -12.188  0.00  0.00    +0.001 C 
ATOM     33  C   UNL     1      -3.384   9.473 -11.513  0.00  0.00    +0.001 C 
ATOM     34  C   UNL     1      -2.974   8.152 -10.911  0.00  0.00    +0.017 C 
ATOM     35  C   UNL     1      -2.539   8.350  -9.447  0.00  0.00    +0.109 C 
ENDBRANCH  26  29
ENDBRANCH  22  26
ENDBRANCH   1  25
TORSDOF 6
