REMARK  Name = ZINC36318276
REMARK  7 active torsions:
REMARK  status: ('A' for Active; 'I' for Inactive)
REMARK    1  A    between atoms: C_1  and  C_2
REMARK    2  A    between atoms: C_2  and  C_4
REMARK    3  A    between atoms: C_4  and  O_5
REMARK    4  A    between atoms: O_5  and  C_6
REMARK    5  A    between atoms: C_9  and  C_12
REMARK    6  A    between atoms: C_13  and  C_22
REMARK    7  A    between atoms: C_22  and  N_23
REMARK                            x       y       z     vdW  Elec       q    Type
REMARK                         _______ _______ _______ _____ _____    ______ ____
ROOT
ATOM      1  C   UNL     1      -5.422  -5.650   0.014  0.00  0.00    +0.091 A 
ATOM      2  C   UNL     1      -5.524  -6.813  -0.689  0.00  0.00    +0.034 A 
ATOM      3  N   UNL     1      -6.741  -7.357  -0.390  0.00  0.00    -0.304 N 
ATOM      4  C   UNL     1      -7.364  -8.501  -0.800  0.00  0.00    +0.093 A 
ATOM      5  C   UNL     1      -8.595  -8.816  -0.345  0.00  0.00    +0.019 A 
ATOM      6  C   UNL     1      -9.254  -7.968   0.560  0.00  0.00    +0.020 A 
ATOM      7  C   UNL     1      -8.646  -6.825   0.978  0.00  0.00    +0.061 A 
ATOM      8  C   UNL     1      -7.359  -6.509   0.493  0.00  0.00    +0.152 A 
ATOM      9  N   UNL     1      -6.546  -5.490   0.729  0.00  0.00    -0.226 NA
ATOM     10 BR   UNL     1      -9.517  -5.670   2.196  0.00  0.00    -0.047 Br
ENDROOT
BRANCH   1  14
ATOM     11  C   UNL     1      -2.101  -2.991  -0.036  0.00  0.00    +0.121 A 
ATOM     12  C   UNL     1      -3.393  -2.487  -0.100  0.00  0.00    +0.046 A 
ATOM     13  C   UNL     1      -4.472  -3.347  -0.084  0.00  0.00    +0.013 A 
ATOM     14  C   UNL     1      -4.263  -4.723  -0.004  0.00  0.00    +0.002 A 
ATOM     15  C   UNL     1      -2.965  -5.226   0.059  0.00  0.00    +0.013 A 
ATOM     16  C   UNL     1      -1.891  -4.361   0.038  0.00  0.00    +0.046 A 
BRANCH  11  17
ATOM     17  O   UNL     1      -1.040  -2.142  -0.052  0.00  0.00    -0.488 OA
BRANCH  17  18
ATOM     18  C   UNL     1      -1.329  -0.745  -0.130  0.00  0.00    +0.259 C 
BRANCH  18  20
ATOM     19  C   UNL     1      -0.070   1.540  -0.213  0.00  0.00    +0.042 C 
ATOM     20  C   UNL     1      -0.040   0.035  -0.137  0.00  0.00    -0.043 C 
ATOM     21  C   UNL     1       1.107  -0.595  -0.076  0.00  0.00    +0.011 C 
ENDBRANCH  18  20
ENDBRANCH  17  18
ENDBRANCH  11  17
ENDBRANCH   1  14
BRANCH   2  22
ATOM     22  C   UNL     1      -4.489  -7.390  -1.620  0.00  0.00    -0.029 C 
BRANCH  22  23
ATOM     23  N   UNL     1      -4.637  -6.786  -2.951  0.00  0.00    +0.382 N 
ATOM     24  H   UNL     1      -5.560  -6.983  -3.309  0.00  0.00    -0.090 HD
ATOM     25  H   UNL     1      -4.509  -5.788  -2.884  0.00  0.00    -0.090 HD
ATOM     26  H   UNL     1      -3.945  -7.173  -3.575  0.00  0.00    -0.090 HD
ENDBRANCH  22  23
ENDBRANCH   2  22
TORSDOF 6
