REMARK  Name = ZINC01801981
REMARK  5 active torsions:
REMARK  status: ('A' for Active; 'I' for Inactive)
REMARK    1  A    between atoms: C_1  and  C_2
REMARK    2  A    between atoms: N_4  and  C_20
REMARK    3  A    between atoms: C_8  and  N_9
REMARK    4  A    between atoms: N_9  and  N_10
REMARK    5  A    between atoms: C_11  and  C_13
REMARK                            x       y       z     vdW  Elec       q    Type
REMARK                         _______ _______ _______ _____ _____    ______ ____
ROOT
ATOM      1  C   UNL     1       0.040   1.504   0.006  0.00  0.00    +0.068 C 
ATOM      2  C   UNL     1       0.036  -0.003  -0.001  0.00  0.00    +0.070 C 
ATOM      3  N   UNL     1      -0.050  -0.764  -1.048  0.00  0.00    -0.176 NA
ATOM      4  N   UNL     1      -0.024  -2.114  -0.697  0.00  0.00    -0.156 N 
ATOM      5  C   UNL     1       0.085  -2.243   0.641  0.00  0.00    +0.273 C 
ATOM      6  O   UNL     1       0.135  -3.283   1.276  0.00  0.00    -0.268 OA
ATOM      7  C   UNL     1       0.136  -0.877   1.177  0.00  0.00    +0.076 C 
ATOM      8  C   UNL     1       0.252  -0.496   2.503  0.00  0.00    +0.102 C 
ENDROOT
BRANCH   4   9
ATOM      9  C   UNL     1      -0.099  -3.180  -1.602  0.00  0.00    +0.060 A 
ATOM     10  C   UNL     1      -0.070  -4.489  -1.140  0.00  0.00    +0.025 A 
ATOM     11  C   UNL     1      -0.145  -5.538  -2.035  0.00  0.00    +0.002 A 
ATOM     12  C   UNL     1      -0.247  -5.286  -3.391  0.00  0.00    +0.000 A 
ATOM     13  C   UNL     1      -0.276  -3.983  -3.855  0.00  0.00    +0.002 A 
ATOM     14  C   UNL     1      -0.209  -2.930  -2.964  0.00  0.00    +0.025 A 
ENDBRANCH   4   9
BRANCH   8  15
ATOM     15  N   UNL     1       0.164   0.807   2.840  0.00  0.00    -0.271 N 
ATOM     16  H   UNL     1      -0.058   1.468   2.166  0.00  0.00    +0.169 HD
BRANCH  15  17
ATOM     17  N   UNL     1       0.392   1.205   4.164  0.00  0.00    -0.233 N 
ATOM     18  C   UNL     1       0.304   2.507   4.501  0.00  0.00    +0.262 C 
ATOM     19  O   UNL     1       0.026   3.336   3.656  0.00  0.00    -0.269 OA
ATOM     20  H   UNL     1       0.613   0.543   4.838  0.00  0.00    +0.173 HD
BRANCH  18  21
ATOM     21  C   UNL     1       0.545   2.927   5.898  0.00  0.00    +0.057 A 
ATOM     22  C   UNL     1       0.451   4.276   6.262  0.00  0.00    +0.031 A 
ATOM     23  C   UNL     1       0.685   4.617   7.583  0.00  0.00    +0.037 A 
ATOM     24  C   UNL     1       1.002   3.622   8.493  0.00  0.00    +0.126 A 
ATOM     25  N   UNL     1       1.084   2.359   8.120  0.00  0.00    -0.261 NA
ATOM     26  C   UNL     1       0.864   1.985   6.876  0.00  0.00    +0.123 A 
ATOM     27 BR   UNL     1       0.575   6.421   8.139  0.00  0.00    -0.049 Br
ENDBRANCH  18  21
ENDBRANCH  15  17
ENDBRANCH   8  15
TORSDOF 4
