REMARK  Name = ZINC19997630
REMARK  5 active torsions:
REMARK  status: ('A' for Active; 'I' for Inactive)
REMARK    1  A    between atoms: C_4  and  N_7
REMARK    2  A    between atoms: C_11  and  N_12
REMARK    3  A    between atoms: N_12  and  C_13
REMARK    4  A    between atoms: C_13  and  C_14
REMARK    5  A    between atoms: C_14  and  N_15
REMARK                            x       y       z     vdW  Elec       q    Type
REMARK                         _______ _______ _______ _____ _____    ______ ____
ROOT
ATOM      1  N   UNL     1       2.871  -0.484   2.422  0.00  0.00    -0.246 N 
ATOM      2  C   UNL     1       3.909  -1.331   2.268  0.00  0.00    +0.259 C 
ATOM      3  O   UNL     1       4.237  -1.724   1.164  0.00  0.00    -0.269 OA
ATOM      4  C   UNL     1       4.636  -1.769   3.474  0.00  0.00    +0.113 C 
ATOM      5  C   UNL     1       5.710  -2.635   3.394  0.00  0.00    +0.085 C 
ATOM      6  C   UNL     1       4.168  -1.241   4.768  0.00  0.00    +0.256 C 
ATOM      7  O   UNL     1       4.718  -1.556   5.807  0.00  0.00    -0.270 OA
ATOM      8  N   UNL     1       3.114  -0.399   4.769  0.00  0.00    -0.263 N 
ATOM      9  C   UNL     1       2.503  -0.039   3.632  0.00  0.00    +0.146 C 
ATOM     10  S   UNL     1       1.177   1.040   3.730  0.00  0.00    -0.018 S 
ATOM     11  H   UNL     1       2.793  -0.043   5.613  0.00  0.00    +0.157 HD
ENDROOT
BRANCH   1  15
ATOM     12  C   UNL     1       1.752   0.007  -1.665  0.00  0.00    +0.000 C 
ATOM     13  C   UNL     1       0.814  -0.779  -0.747  0.00  0.00    +0.002 C 
ATOM     14  C   UNL     1       1.585  -1.249   0.488  0.00  0.00    +0.023 C 
ATOM     15  C   UNL     1       2.133  -0.034   1.239  0.00  0.00    +0.084 C 
ATOM     16  C   UNL     1       3.071   0.752   0.321  0.00  0.00    +0.023 C 
ATOM     17  C   UNL     1       2.300   1.222  -0.914  0.00  0.00    +0.002 C 
ENDBRANCH   1  15
BRANCH   5  18
ATOM     18  N   UNL     1       6.262  -3.130   4.520  0.00  0.00    -0.351 N 
ATOM     19  H   UNL     1       5.857  -2.943   5.382  0.00  0.00    +0.145 HD
BRANCH  18  20
ATOM     20  C   UNL     1       7.473  -3.951   4.443  0.00  0.00    +0.082 C 
BRANCH  20  21
ATOM     21  C   UNL     1       7.888  -4.381   5.851  0.00  0.00    -0.060 C 
BRANCH  21  22
ATOM     22  N   UNL     1       9.102  -5.205   5.774  0.00  0.00    +0.381 N 
ATOM     23  C   UNL     1       8.804  -6.447   5.051  0.00  0.00    -0.079 C 
ATOM     24  C   UNL     1      10.084  -7.271   4.897  0.00  0.00    -0.019 C 
ATOM     25  C   UNL     1      10.639  -7.607   6.284  0.00  0.00    -0.004 C 
ATOM     26  C   UNL     1      10.876  -6.306   7.056  0.00  0.00    -0.019 C 
ATOM     27  C   UNL     1       9.567  -5.517   7.131  0.00  0.00    -0.079 C 
ATOM     28  H   UNL     1       9.821  -4.696   5.282  0.00  0.00    -0.082 HD
ENDBRANCH  21  22
ENDBRANCH  20  21
ENDBRANCH  18  20
ENDBRANCH   5  18
TORSDOF 5
