REMARK  Name = ZINC64720669
REMARK  7 active torsions:
REMARK  status: ('A' for Active; 'I' for Inactive)
REMARK    1  A    between atoms: C_1  and  C_2
REMARK    2  A    between atoms: C_2  and  C_4
REMARK    3  A    between atoms: C_2  and  N_14
REMARK    4  A    between atoms: C_15  and  C_17
REMARK    5  A    between atoms: C_17  and  C_18
REMARK    6  A    between atoms: C_17  and  S_19
REMARK    7  A    between atoms: S_19  and  C_22
REMARK                            x       y       z     vdW  Elec       q    Type
REMARK                         _______ _______ _______ _____ _____    ______ ____
ROOT
ATOM      1  N   UNL     1      -1.372  -0.511   0.012  0.00  0.00    -0.304 N 
ATOM      2  C   UNL     1      -2.051  -0.643  -1.145  0.00  0.00    +0.238 C 
ATOM      3  O   UNL     1      -1.524  -0.341  -2.194  0.00  0.00    -0.274 OA
ATOM      4  H   UNL     1      -1.794  -0.752   0.852  0.00  0.00    +0.149 HD
ENDROOT
BRANCH   1   6
ATOM      5  C   UNL     1      -0.019   1.526   0.010  0.00  0.00    +0.036 C 
ATOM      6  C   UNL     1       0.002  -0.004   0.002  0.00  0.00    +0.136 C 
BRANCH   6   7
ATOM      7  C   UNL     1       0.731  -0.503   1.223  0.00  0.00    +0.128 A 
ATOM      8  N   UNL     1       2.080  -0.649   1.320  0.00  0.00    -0.340 N 
ATOM      9  H   UNL     1       2.731  -0.452   0.628  0.00  0.00    +0.167 HD
ATOM     10  C   UNL     1       2.351  -1.127   2.586  0.00  0.00    +0.066 A 
ATOM     11  C   UNL     1       3.515  -1.466   3.263  0.00  0.00    +0.028 A 
ATOM     12  C   UNL     1       3.442  -1.927   4.560  0.00  0.00    +0.002 A 
ATOM     13  C   UNL     1       2.213  -2.054   5.192  0.00  0.00    +0.002 A 
ATOM     14  C   UNL     1       1.057  -1.726   4.542  0.00  0.00    +0.030 A 
ATOM     15  C   UNL     1       1.108  -1.256   3.227  0.00  0.00    +0.089 A 
ATOM     16  N   UNL     1       0.162  -0.853   2.340  0.00  0.00    -0.231 NA
ENDBRANCH   6   7
ENDBRANCH   1   6
BRANCH   2  17
ATOM     17  C   UNL     1      -3.465  -1.164  -1.134  0.00  0.00    +0.218 C 
ATOM     18  C   UNL     1      -3.445  -2.690  -1.017  0.00  0.00    +0.042 C 
BRANCH  17  19
ATOM     19  S   UNL     1      -4.297  -0.687  -2.674  0.00  0.00    +0.008 S 
ATOM     20  O   UNL     1      -4.483   0.721  -2.713  0.00  0.00    -0.169 OA
ATOM     21  O   UNL     1      -3.718  -1.373  -3.776  0.00  0.00    -0.169 OA
BRANCH  19  22
ATOM     22  C   UNL     1      -5.923  -1.352  -2.534  0.00  0.00    +0.089 A 
ATOM     23  C   UNL     1      -6.188  -2.630  -2.989  0.00  0.00    +0.030 A 
ATOM     24  C   UNL     1      -7.463  -3.152  -2.880  0.00  0.00    +0.040 A 
ATOM     25  C   UNL     1      -8.475  -2.395  -2.314  0.00  0.00    +0.124 A 
ATOM     26  C   UNL     1      -8.208  -1.115  -1.859  0.00  0.00    +0.040 A 
ATOM     27  C   UNL     1      -6.931  -0.597  -1.964  0.00  0.00    +0.030 A 
ATOM     28  F   UNL     1      -9.721  -2.904  -2.207  0.00  0.00    -0.205 F 
ENDBRANCH  19  22
ENDBRANCH  17  19
ENDBRANCH   2  17
TORSDOF 5
