REMARK  Name = ZINC61861644
REMARK  3 active torsions:
REMARK  status: ('A' for Active; 'I' for Inactive)
REMARK    1  A    between atoms: C_3  and  C_8
REMARK    2  A    between atoms: C_8  and  C_10
REMARK    3  A    between atoms: C_8  and  N_21
REMARK                            x       y       z     vdW  Elec       q    Type
REMARK                         _______ _______ _______ _____ _____    ______ ____
ROOT
ATOM      1  C   UNL     1       3.691   2.059  -0.023  0.00  0.00    +0.007 C 
ENDROOT
BRANCH   1   2
ATOM      2  C   UNL     1       4.535   1.581   1.131  0.00  0.00    -0.034 A 
ATOM      3  C   UNL     1       5.536   0.652   0.915  0.00  0.00    +0.053 A 
ATOM      4  C   UNL     1       6.314   0.211   1.974  0.00  0.00    +0.162 A 
ATOM      5  C   UNL     1       6.088   0.706   3.253  0.00  0.00    +0.163 A 
ATOM      6  C   UNL     1       5.081   1.636   3.464  0.00  0.00    +0.069 A 
ATOM      7  C   UNL     1       4.311   2.076   2.402  0.00  0.00    +0.047 A 
ATOM      8 CL   UNL     1       3.057   3.247   2.668  0.00  0.00    -0.083 Cl
ATOM      9  O   UNL     1       6.846   0.292   4.304  0.00  0.00    -0.485 OA
ATOM     10  C   UNL     1       7.595  -0.914   4.122  0.00  0.00    +0.270 C 
ATOM     11  C   UNL     1       8.296  -0.843   2.759  0.00  0.00    +0.270 C 
ATOM     12  O   UNL     1       7.293  -0.707   1.746  0.00  0.00    -0.485 OA
ENDBRANCH   1   2
BRANCH   1  15
ATOM     13  C   UNL     1      -0.017   1.383   0.010  0.00  0.00    +0.018 A 
ATOM     14  C   UNL     1       1.194   2.059   0.002  0.00  0.00    +0.023 A 
ATOM     15  C   UNL     1       2.370   1.334  -0.013  0.00  0.00    +0.031 A 
ATOM     16  N   UNL     1       2.351   0.016  -0.020  0.00  0.00    -0.260 NA
ATOM     17  C   UNL     1       1.219  -0.661  -0.013  0.00  0.00    +0.126 A 
ATOM     18  C   UNL     1       0.002  -0.004   0.002  0.00  0.00    +0.036 A 
ATOM     19 BR   UNL     1      -1.615  -0.984   0.013  0.00  0.00    -0.049 Br
ENDBRANCH   1  15
BRANCH   1  20
ATOM     20  N   UNL     1       4.390   1.788  -1.286  0.00  0.00    +0.386 N 
ATOM     21  H   UNL     1       5.274   2.274  -1.292  0.00  0.00    -0.089 HD
ATOM     22  H   UNL     1       4.550   0.796  -1.376  0.00  0.00    -0.089 HD
ATOM     23  H   UNL     1       3.825   2.109  -2.058  0.00  0.00    -0.089 HD
ENDBRANCH   1  20
TORSDOF 3
