REMARK  Name = ZINC06040018
REMARK  16 active torsions:
REMARK  status: ('A' for Active; 'I' for Inactive)
REMARK    1  A    between atoms: C_1  and  C_2
REMARK    2  A    between atoms: C_2  and  C_3
REMARK    3  A    between atoms: C_2  and  C_4
REMARK    4  A    between atoms: C_2  and  C_5
REMARK    5  A    between atoms: C_7  and  N_16
REMARK    6  A    between atoms: C_9  and  C_12
REMARK    7  A    between atoms: C_10  and  O_11
REMARK    8  A    between atoms: C_12  and  C_13
REMARK    9  A    between atoms: C_12  and  C_14
REMARK   10  A    between atoms: C_12  and  C_15
REMARK   11  A    between atoms: C_19  and  O_34
REMARK   12  A    between atoms: C_20  and  O_32
REMARK   13  A    between atoms: C_24  and  C_25
REMARK   14  A    between atoms: C_30  and  O_31
REMARK   15  A    between atoms: O_32  and  C_33
REMARK   16  A    between atoms: O_34  and  C_35
REMARK                            x       y       z     vdW  Elec       q    Type
REMARK                         _______ _______ _______ _____ _____    ______ ____
ROOT
ATOM      1  N   UNL     1       2.420   0.862  -4.219  0.00  0.00    -0.292 N 
ATOM      2  C   UNL     1       2.048   0.995  -5.546  0.00  0.00    +0.078 A 
ATOM      3  C   UNL     1       1.172   0.303  -6.371  0.00  0.00    +0.077 A 
ATOM      4  C   UNL     1       1.016   0.690  -7.689  0.00  0.00    +0.164 A 
ATOM      5  C   UNL     1       1.737   1.774  -8.195  0.00  0.00    +0.164 A 
ATOM      6  C   UNL     1       2.611   2.469  -7.387  0.00  0.00    +0.079 A 
ATOM      7  C   UNL     1       2.776   2.087  -6.050  0.00  0.00    +0.094 A 
ATOM      8  N   UNL     1       3.541   2.562  -5.037  0.00  0.00    -0.227 NA
ATOM      9  C   UNL     1       3.333   1.851  -3.955  0.00  0.00    +0.150 A 
ENDROOT
BRANCH   1  12
ATOM     10  C   UNL     1       0.701  -0.657  -1.343  0.00  0.00    +0.002 A 
ATOM     11  C   UNL     1       1.167   0.290  -2.234  0.00  0.00    +0.034 A 
ATOM     12  C   UNL     1       1.947  -0.098  -3.314  0.00  0.00    +0.049 A 
ATOM     13  C   UNL     1       2.259  -1.439  -3.498  0.00  0.00    +0.034 A 
ATOM     14  C   UNL     1       1.793  -2.385  -2.607  0.00  0.00    +0.002 A 
ATOM     15  C   UNL     1       1.018  -1.995  -1.524  0.00  0.00    +0.124 A 
BRANCH  10  17
ATOM     16  C   UNL     1      -0.345   1.282  -0.203  0.00  0.00    +0.015 C 
ATOM     17  C   UNL     1      -0.146  -0.235  -0.170  0.00  0.00    -0.009 C 
ATOM     18  C   UNL     1       0.554  -0.629   1.132  0.00  0.00    +0.015 C 
ATOM     19  C   UNL     1      -1.507  -0.929  -0.248  0.00  0.00    +0.015 C 
ENDBRANCH  10  17
BRANCH  14  20
ATOM     20  C   UNL     1       2.132  -3.839  -2.806  0.00  0.00    -0.009 C 
ATOM     21  C   UNL     1       2.995  -3.995  -4.059  0.00  0.00    +0.015 C 
ATOM     22  C   UNL     1       2.901  -4.356  -1.589  0.00  0.00    +0.015 C 
ATOM     23  C   UNL     1       0.842  -4.645  -2.973  0.00  0.00    +0.015 C 
ENDBRANCH  14  20
BRANCH  15  24
ATOM     24  O   UNL     1       0.564  -2.926  -0.643  0.00  0.00    -0.506 OA
ATOM     25  H   UNL     1      -0.297  -3.302  -0.877  0.00  0.00    +0.292 HD
ENDBRANCH  15  24
ENDBRANCH   1  12
BRANCH   9  26
ATOM     26  C   UNL     1       3.986   2.078  -2.649  0.00  0.00    +0.059 A 
ATOM     27  C   UNL     1       4.550   1.009  -1.952  0.00  0.00    +0.015 A 
ATOM     28  C   UNL     1       5.159   1.227  -0.734  0.00  0.00    +0.001 A 
ATOM     29  C   UNL     1       5.212   2.503  -0.199  0.00  0.00    +0.004 A 
ATOM     30  C   UNL     1       4.657   3.569  -0.880  0.00  0.00    +0.046 A 
ATOM     31  C   UNL     1       4.047   3.368  -2.108  0.00  0.00    +0.127 A 
BRANCH  31  32
ATOM     32  O   UNL     1       3.506   4.416  -2.781  0.00  0.00    -0.506 OA
ATOM     33  H   UNL     1       2.579   4.585  -2.567  0.00  0.00    +0.292 HD
ENDBRANCH  31  32
ENDBRANCH   9  26
BRANCH   5  34
ATOM     34  O   UNL     1       1.577   2.145  -9.494  0.00  0.00    -0.491 OA
ATOM     35  C   UNL     1       2.343   3.261  -9.949  0.00  0.00    +0.277 C 
ENDBRANCH   5  34
BRANCH   4  36
ATOM     36  O   UNL     1       0.157   0.012  -8.496  0.00  0.00    -0.491 OA
ATOM     37  C   UNL     1      -0.549  -1.087  -7.916  0.00  0.00    +0.277 C 
ENDBRANCH   4  36
TORSDOF 8
