REMARK  Name = ZINC49546488
REMARK  8 active torsions:
REMARK  status: ('A' for Active; 'I' for Inactive)
REMARK    1  A    between atoms: C_1  and  C_2
REMARK    2  A    between atoms: C_3  and  C_8
REMARK    3  A    between atoms: C_4  and  C_7
REMARK    4  A    between atoms: N_13  and  C_20
REMARK    5  A    between atoms: C_16  and  O_19
REMARK    6  A    between atoms: C_20  and  C_21
REMARK    7  A    between atoms: C_20  and  C_22
REMARK    8  A    between atoms: C_20  and  C_23
REMARK                            x       y       z     vdW  Elec       q    Type
REMARK                         _______ _______ _______ _____ _____    ______ ____
ROOT
ATOM      1  C   UNL     1      -0.005  -0.348  -2.571  0.00  0.00    +0.117 C 
ATOM      2  C   UNL     1       1.374  -0.488  -3.140  0.00  0.00    +0.034 A 
ATOM      3  C   UNL     1       2.528  -0.472  -2.336  0.00  0.00    +0.141 A 
ATOM      4  N   UNL     1       3.576  -0.607  -3.099  0.00  0.00    -0.177 NA
ATOM      5  N   UNL     1       3.151  -0.715  -4.423  0.00  0.00    -0.241 N 
ATOM      6  C   UNL     1       1.774  -0.648  -4.440  0.00  0.00    +0.160 A 
ATOM      7  N   UNL     1       1.081  -0.745  -5.587  0.00  0.00    -0.197 NA
ATOM      8  C   UNL     1      -0.125  -0.727  -5.925  0.00  0.00    +0.199 C 
ATOM      9  C   UNL     1      -1.337  -0.519  -5.105  0.00  0.00    +0.165 C 
ATOM     10  S   UNL     1      -1.232  -1.291  -3.484  0.00  0.00    -0.138 S 
ENDROOT
BRANCH   1  13
ATOM     11  C   UNL     1      -0.018   1.503   0.010  0.00  0.00    +0.069 C 
ATOM     12  C   UNL     1       0.002  -0.004   0.002  0.00  0.00    +0.085 A 
ATOM     13  C   UNL     1       0.008  -0.824  -1.141  0.00  0.00    +0.034 A 
ATOM     14  C   UNL     1       0.027  -2.108  -0.735  0.00  0.00    +0.139 A 
ATOM     15  O   UNL     1       0.034  -2.119   0.606  0.00  0.00    -0.359 OA
ATOM     16  N   UNL     1       0.023  -0.775   1.052  0.00  0.00    -0.083 NA
ATOM     17  C   UNL     1       0.039  -3.320  -1.631  0.00  0.00    +0.089 C 
ENDBRANCH   1  13
BRANCH   5  18
ATOM     18  C   UNL     1       4.018  -0.874  -5.593  0.00  0.00    +0.057 C 
ATOM     19  C   UNL     1       5.481  -0.903  -5.145  0.00  0.00    +0.036 C 
ATOM     20  C   UNL     1       3.677  -2.183  -6.307  0.00  0.00    +0.036 C 
ATOM     21  C   UNL     1       3.802   0.300  -6.550  0.00  0.00    +0.036 C 
ENDBRANCH   5  18
BRANCH   8  22
ATOM     22  O   UNL     1      -0.353  -0.929  -7.239  0.00  0.00    -0.495 OA
ATOM     23  H   UNL     1       0.450  -1.063  -7.761  0.00  0.00    +0.293 HD
ENDBRANCH   8  22
TORSDOF 3
