REMARK  Name = ZINC39956105
REMARK  2 active torsions:
REMARK  status: ('A' for Active; 'I' for Inactive)
REMARK    1  A    between atoms: C_7  and  C_9
REMARK    2  A    between atoms: C_12  and  C_16
REMARK                            x       y       z     vdW  Elec       q    Type
REMARK                         _______ _______ _______ _____ _____    ______ ____
ROOT
ATOM      1  C   UNL     1       3.023  -2.135   1.655  0.00  0.00    +0.298 C 
ATOM      2  N   UNL     1       2.324  -2.437   2.924  0.00  0.00    -0.262 NA
ATOM      3  C   UNL     1       1.472  -3.616   2.657  0.00  0.00    +0.180 C 
ATOM      4  N   UNL     1       1.698  -3.963   1.234  0.00  0.00    -0.177 NA
ATOM      5  O   UNL     1       2.183  -2.704   0.625  0.00  0.00    -0.270 OA
ATOM      6  H   UNL     1       2.983  -2.627   3.664  0.00  0.00    +0.127 HD
ATOM      7  H   UNL     1       0.843  -4.272   0.797  0.00  0.00    +0.156 HD
ENDROOT
BRANCH   3   8
ATOM      8  C   UNL     1       1.878  -4.763   3.546  0.00  0.00    -0.014 C 
ATOM      9  C   UNL     1       0.975  -5.306   4.417  0.00  0.00    +0.012 C 
ATOM     10  C   UNL     1       1.443  -6.409   5.153  0.00  0.00    -0.018 C 
ATOM     11  C   UNL     1       1.159  -6.878   6.379  0.00  0.00    +0.025 C 
ATOM     12  C   UNL     1       2.127  -7.839   6.748  0.00  0.00    +0.106 C 
ATOM     13  N   UNL     1       2.950  -8.105   5.774  0.00  0.00    -0.279 NA
ATOM     14  C   UNL     1       2.521  -7.337   4.615  0.00  0.00    +0.158 C 
ATOM     15  C   UNL     1       3.580  -6.481   3.987  0.00  0.00    +0.004 C 
ATOM     16  C   UNL     1       3.235  -5.298   3.471  0.00  0.00    +0.005 C 
ENDBRANCH   3   8
BRANCH   1  23
ATOM     17  C   UNL     1      -0.189   1.655   2.125  0.00  0.00    +0.003 C 
ATOM     18  C   UNL     1      -0.184   0.137   2.323  0.00  0.00    +0.019 C 
ATOM     19  C   UNL     1       0.714  -0.509   1.263  0.00  0.00    +0.108 C 
ATOM     20  N   UNL     1       2.043   0.112   1.328  0.00  0.00    -0.298 N 
ATOM     21  C   UNL     1       2.145   1.575   1.240  0.00  0.00    +0.108 C 
ATOM     22  C   UNL     1       1.231   2.198   2.300  0.00  0.00    +0.019 C 
ATOM     23  C   UNL     1       3.149  -0.646   1.466  0.00  0.00    +0.261 C 
ATOM     24  O   UNL     1       4.246  -0.129   1.439  0.00  0.00    -0.271 OA
ENDBRANCH   1  23
TORSDOF 2
