REMARK  Name = ZINC12741566
REMARK  13 active torsions:
REMARK  status: ('A' for Active; 'I' for Inactive)
REMARK    1  A    between atoms: C_1  and  C_2
REMARK    2  A    between atoms: C_2  and  O_3
REMARK    3  A    between atoms: O_3  and  C_4
REMARK    4  A    between atoms: C_4  and  C_6
REMARK    5  A    between atoms: C_7  and  C_20
REMARK    6  A    between atoms: C_12  and  C_14
REMARK    7  A    between atoms: C_17  and  C_19
REMARK    8  A    between atoms: C_20  and  S_21
REMARK    9  A    between atoms: S_21  and  C_22
REMARK   10  A    between atoms: C_25  and  C_28
REMARK   11  A    between atoms: N_26  and  N_27
REMARK   12  A    between atoms: C_28  and  O_29
REMARK   13  A    between atoms: O_29  and  C_30
REMARK                            x       y       z     vdW  Elec       q    Type
REMARK                         _______ _______ _______ _____ _____    ______ ____
ROOT
ATOM      1  C   UNL     1       0.073  12.241  -0.869  0.00  0.00    +0.082 C 
ATOM      2  C   UNL     1       1.330  11.778  -0.695  0.00  0.00    +0.034 C 
ATOM      3  N   UNL     1       2.409  12.476  -1.157  0.00  0.00    -0.272 N 
ATOM      4  C   UNL     1       2.316  13.647  -1.799  0.00  0.00    +0.304 C 
ATOM      5  O   UNL     1       3.334  14.194  -2.175  0.00  0.00    -0.252 OA
ATOM      6  N   UNL     1       1.130  14.239  -2.043  0.00  0.00    -0.285 N 
ATOM      7  C   UNL     1      -0.097  13.566  -1.584  0.00  0.00    +0.179 C 
ATOM      8  H   UNL     1       3.292  12.102  -1.013  0.00  0.00    +0.156 HD
ATOM      9  H   UNL     1       1.085  15.088  -2.510  0.00  0.00    +0.151 HD
ENDROOT
BRANCH   7  10
ATOM     10  C   UNL     1      -0.826  14.507  -0.660  0.00  0.00    +0.130 A 
ATOM     11  C   UNL     1      -2.157  14.694  -0.617  0.00  0.00    +0.047 A 
ATOM     12  C   UNL     1      -2.403  15.658   0.388  0.00  0.00    +0.045 A 
ATOM     13  C   UNL     1      -1.207  16.003   0.898  0.00  0.00    +0.102 A 
ATOM     14  O   UNL     1      -0.256  15.299   0.263  0.00  0.00    -0.463 OA
ATOM     15  C   UNL     1      -0.975  17.005   1.999  0.00  0.00    +0.086 C 
ENDBRANCH   7  10
BRANCH   1  16
ATOM     16  C   UNL     1      -1.045  11.516  -0.395  0.00  0.00    +0.339 C 
ATOM     17  O   UNL     1      -1.707  10.847  -1.166  0.00  0.00    -0.245 OA
BRANCH  16  18
ATOM     18  O   UNL     1      -1.379  11.568   0.911  0.00  0.00    -0.462 OA
BRANCH  18  20
ATOM     19  C   UNL     1      -2.740  10.992   2.823  0.00  0.00    +0.048 C 
ATOM     20  C   UNL     1      -2.520  10.811   1.320  0.00  0.00    +0.229 C 
ENDBRANCH  18  20
ENDBRANCH  16  18
ENDBRANCH   1  16
BRANCH   2  21
ATOM     21  C   UNL     1       1.545  10.467   0.017  0.00  0.00    +0.128 C 
BRANCH  21  22
ATOM     22  S   UNL     1       1.962   9.186  -1.192  0.00  0.00    -0.079 S 
BRANCH  22  23
ATOM     23  C   UNL     1       2.154   7.802  -0.118  0.00  0.00    +0.209 A 
ATOM     24  N   UNL     1       2.012   7.801   1.187  0.00  0.00    -0.121 NA
ATOM     25  N   UNL     1       2.224   6.621   1.649  0.00  0.00    -0.128 NA
ATOM     26  C   UNL     1       2.512   5.805   0.674  0.00  0.00    +0.189 A 
ATOM     27  N   UNL     1       2.482   6.529  -0.485  0.00  0.00    -0.225 N 
BRANCH  27  28
ATOM     28  N   UNL     1       2.728   6.072  -1.749  0.00  0.00    -0.295 N 
ATOM     29  H   UNL     1       1.879   5.747  -2.188  0.00  0.00    +0.163 HD
ATOM     30  H   UNL     1       3.175   6.782  -2.309  0.00  0.00    +0.163 HD
ENDBRANCH  27  28
BRANCH  26  31
ATOM     31  C   UNL     1       2.826   4.337   0.803  0.00  0.00    +0.306 C 
BRANCH  31  32
ATOM     32  O   UNL     1       1.617   3.580   0.701  0.00  0.00    -0.484 OA
BRANCH  32  33
ATOM     33  C   UNL     1       1.725   2.229   0.797  0.00  0.00    +0.121 A 
ATOM     34  C   UNL     1       0.592   1.434   0.707  0.00  0.00    +0.047 A 
ATOM     35  C   UNL     1       0.704   0.060   0.805  0.00  0.00    +0.023 A 
ATOM     36  C   UNL     1       1.945  -0.522   0.992  0.00  0.00    +0.041 A 
ATOM     37  C   UNL     1       3.076   0.269   1.082  0.00  0.00    +0.023 A 
ATOM     38  C   UNL     1       2.969   1.643   0.986  0.00  0.00    +0.047 A 
ATOM     39 CL   UNL     1       2.083  -2.248   1.114  0.00  0.00    -0.084 Cl
ENDBRANCH  32  33
ENDBRANCH  31  32
ENDBRANCH  26  31
ENDBRANCH  22  23
ENDBRANCH  21  22
ENDBRANCH   2  21
TORSDOF 11
