REMARK  Name = ZINC00640122
REMARK  8 active torsions:
REMARK  status: ('A' for Active; 'I' for Inactive)
REMARK    1  A    between atoms: C_1  and  C_2
REMARK    2  A    between atoms: C_3  and  N_15
REMARK    3  A    between atoms: N_6  and  C_9
REMARK    4  A    between atoms: N_7  and  C_8
REMARK    5  A    between atoms: N_15  and  S_16
REMARK    6  A    between atoms: S_16  and  C_19
REMARK    7  A    between atoms: C_22  and  O_27
REMARK    8  A    between atoms: O_27  and  C_28
REMARK                            x       y       z     vdW  Elec       q    Type
REMARK                         _______ _______ _______ _____ _____    ______ ____
ROOT
ATOM      1  N   UNL     1       0.020   0.397  -2.432  0.00  0.00    -0.209 N 
ATOM      2  H   UNL     1      -0.465   1.227  -2.559  0.00  0.00    +0.174 HD
ENDROOT
BRANCH   1   5
ATOM      3  C   UNL     1      -1.787  -0.289  -0.057  0.00  0.00    +0.067 C 
ATOM      4  C   UNL     1      -0.280  -0.265  -0.082  0.00  0.00    +0.061 A 
ATOM      5  C   UNL     1       0.488   0.043  -1.148  0.00  0.00    +0.135 A 
ATOM      6  C   UNL     1       1.847  -0.052  -0.753  0.00  0.00    +0.295 A 
ATOM      7  O   UNL     1       2.817   0.158  -1.460  0.00  0.00    -0.264 OA
ATOM      8  N   UNL     1       1.873  -0.416   0.545  0.00  0.00    -0.216 N 
ATOM      9  N   UNL     1       0.547  -0.547   0.979  0.00  0.00    -0.282 N 
ATOM     10  C   UNL     1       0.117  -0.923   2.328  0.00  0.00    +0.171 C 
BRANCH   8  11
ATOM     11  C   UNL     1       3.018  -0.621   1.321  0.00  0.00    +0.067 A 
ATOM     12  C   UNL     1       3.129  -1.758   2.110  0.00  0.00    +0.028 A 
ATOM     13  C   UNL     1       4.261  -1.958   2.876  0.00  0.00    +0.002 A 
ATOM     14  C   UNL     1       5.283  -1.026   2.857  0.00  0.00    +0.000 A 
ATOM     15  C   UNL     1       5.175   0.107   2.072  0.00  0.00    +0.002 A 
ATOM     16  C   UNL     1       4.048   0.310   1.300  0.00  0.00    +0.028 A 
ENDBRANCH   8  11
ENDBRANCH   1   5
BRANCH   1  17
ATOM     17  S   UNL     1       0.301  -0.605  -3.720  0.00  0.00    +0.074 S 
ATOM     18  O   UNL     1       0.409   0.229  -4.867  0.00  0.00    -0.150 OA
ATOM     19  O   UNL     1       1.336  -1.494  -3.325  0.00  0.00    -0.150 OA
BRANCH  17  20
ATOM     20  C   UNL     1      -1.147  -1.584  -3.944  0.00  0.00    +0.128 A 
ATOM     21  C   UNL     1      -1.972  -1.357  -5.030  0.00  0.00    +0.034 A 
ATOM     22  C   UNL     1      -3.108  -2.123  -5.208  0.00  0.00    +0.049 A 
ATOM     23  C   UNL     1      -3.421  -3.121  -4.297  0.00  0.00    +0.140 A 
ATOM     24  C   UNL     1      -2.592  -3.348  -3.208  0.00  0.00    +0.103 A 
ATOM     25  C   UNL     1      -1.452  -2.582  -3.036  0.00  0.00    +0.089 A 
ATOM     26 CL   UNL     1      -0.410  -2.868  -1.678  0.00  0.00    -0.080 Cl
ATOM     27 CL   UNL     1      -2.981  -4.595  -2.065  0.00  0.00    -0.078 Cl
BRANCH  23  28
ATOM     28  O   UNL     1      -4.539  -3.875  -4.471  0.00  0.00    -0.494 OA
ATOM     29  C   UNL     1      -5.346  -3.585  -5.614  0.00  0.00    +0.277 C 
ENDBRANCH  23  28
ENDBRANCH  17  20
ENDBRANCH   1  17
TORSDOF 5
