REMARK  Name = ZINC62825261
REMARK  4 active torsions:
REMARK  status: ('A' for Active; 'I' for Inactive)
REMARK    1  A    between atoms: C_3  and  C_6
REMARK    2  A    between atoms: C_6  and  C_7
REMARK    3  A    between atoms: C_9  and  C_12
REMARK    4  A    between atoms: C_17  and  N_18
REMARK                            x       y       z     vdW  Elec       q    Type
REMARK                         _______ _______ _______ _____ _____    ______ ____
ROOT
ATOM      1  C   UNL     1       4.272   1.945   1.434  0.00  0.00    +0.177 A 
ATOM      2  N   UNL     1       4.196   3.077   2.137  0.00  0.00    -0.191 NA
ATOM      3  C   UNL     1       4.630   2.876   3.362  0.00  0.00    +0.260 A 
ATOM      4  O   UNL     1       4.998   1.587   3.465  0.00  0.00    -0.333 OA
ATOM      5  N   UNL     1       4.749   1.002   2.196  0.00  0.00    -0.061 NA
ENDROOT
BRANCH   3   6
ATOM      6  C   UNL     1       4.700   3.887   4.434  0.00  0.00    +0.062 A 
ATOM      7  C   UNL     1       3.607   4.719   4.688  0.00  0.00    +0.030 A 
ATOM      8  C   UNL     1       3.679   5.661   5.692  0.00  0.00    +0.020 A 
ATOM      9  C   UNL     1       4.831   5.788   6.452  0.00  0.00    +0.032 A 
ATOM     10  C   UNL     1       5.920   4.973   6.212  0.00  0.00    +0.040 A 
ATOM     11  C   UNL     1       5.863   4.014   5.208  0.00  0.00    +0.051 A 
ATOM     12 BR   UNL     1       7.486   5.156   7.256  0.00  0.00    -0.048 Br
ATOM     13 BR   UNL     1       2.198   6.787   6.034  0.00  0.00    -0.050 Br
BRANCH  11  14
ATOM     14  N   UNL     1       6.957   3.187   4.968  0.00  0.00    -0.357 N 
ATOM     15  H   UNL     1       6.953   2.587   4.207  0.00  0.00    +0.142 HD
ATOM     16  H   UNL     1       7.722   3.211   5.563  0.00  0.00    +0.142 HD
ENDBRANCH  11  14
ENDBRANCH   3   6
BRANCH   1  17
ATOM     17  C   UNL     1       3.865   1.782  -0.008  0.00  0.00    +0.122 C 
BRANCH  17  20
ATOM     18  C   UNL     1       0.066   1.602  -0.213  0.00  0.00    +0.008 A 
ATOM     19  C   UNL     1       1.317   2.187  -0.157  0.00  0.00    +0.011 A 
ATOM     20  C   UNL     1       2.412   1.392  -0.079  0.00  0.00    -0.003 A 
ATOM     21  S   UNL     1       1.685  -0.239  -0.082  0.00  0.00    -0.101 S 
ATOM     22  C   UNL     1      -0.029   0.250  -0.188  0.00  0.00    +0.045 A 
ENDBRANCH  17  20
ENDBRANCH   1  17
TORSDOF 4
