REMARK  Name = ZINC28055373
REMARK  7 active torsions:
REMARK  status: ('A' for Active; 'I' for Inactive)
REMARK    1  A    between atoms: C_1  and  C_2
REMARK    2  A    between atoms: C_2  and  O_3
REMARK    3  A    between atoms: O_3  and  C_4
REMARK    4  A    between atoms: C_7  and  C_12
REMARK    5  A    between atoms: C_9  and  O_10
REMARK    6  A    between atoms: O_10  and  C_11
REMARK    7  A    between atoms: C_29  and  C_31
REMARK                            x       y       z     vdW  Elec       q    Type
REMARK                         _______ _______ _______ _____ _____    ______ ____
ROOT
ATOM      1  C   UNL     1      -0.068   5.987   2.601  0.00  0.00    +0.234 C 
ATOM      2  C   UNL     1      -0.864   6.141   1.326  0.00  0.00    +0.025 C 
ATOM      3  C   UNL     1      -2.094   6.657   1.385  0.00  0.00    +0.050 C 
ATOM      4  C   UNL     1      -2.643   7.019   2.714  0.00  0.00    +0.038 A 
ATOM      5  C   UNL     1      -3.754   7.845   2.839  0.00  0.00    +0.013 A 
ATOM      6  C   UNL     1      -4.232   8.157   4.097  0.00  0.00    +0.001 A 
ATOM      7  C   UNL     1      -3.612   7.650   5.226  0.00  0.00    +0.004 A 
ATOM      8  C   UNL     1      -2.506   6.827   5.110  0.00  0.00    +0.046 A 
ATOM      9  C   UNL     1      -2.016   6.508   3.857  0.00  0.00    +0.131 A 
ATOM     10  O   UNL     1      -0.932   5.705   3.701  0.00  0.00    -0.479 OA
ATOM     11  N   UNL     1      -2.877   6.857   0.243  0.00  0.00    -0.282 N 
ATOM     12  C   UNL     1      -2.246   6.756  -0.986  0.00  0.00    +0.240 A 
ATOM     13  N   UNL     1      -2.633   7.099  -2.181  0.00  0.00    -0.092 NA
ATOM     14  N   UNL     1      -1.713   6.827  -3.043  0.00  0.00    -0.021 NA
ATOM     15  N   UNL     1      -0.690   6.295  -2.457  0.00  0.00    -0.042 NA
ATOM     16  N   UNL     1      -1.000   6.225  -1.100  0.00  0.00    -0.201 N 
ATOM     17  C   UNL     1      -0.231   5.713   0.025  0.00  0.00    +0.174 C 
ATOM     18  H   UNL     1      -3.949   7.084   0.343  0.00  0.00    +0.155 HD
ENDROOT
BRANCH  17  19
ATOM     19  C   UNL     1      -0.193   4.208  -0.040  0.00  0.00    -0.019 A 
ATOM     20  C   UNL     1       1.019   3.552  -0.155  0.00  0.00    +0.009 A 
ATOM     21  C   UNL     1       1.055   2.172  -0.215  0.00  0.00    +0.039 A 
ATOM     22  C   UNL     1      -0.122   1.446  -0.160  0.00  0.00    +0.123 A 
ATOM     23  C   UNL     1      -1.336   2.104  -0.050  0.00  0.00    +0.039 A 
ATOM     24  C   UNL     1      -1.369   3.484   0.014  0.00  0.00    +0.009 A 
ATOM     25  F   UNL     1      -0.088   0.096  -0.219  0.00  0.00    -0.205 F 
ENDBRANCH  17  19
BRANCH   1  29
ATOM     26  C   UNL     1       2.063   9.612   3.379  0.00  0.00    +0.162 A 
ATOM     27  C   UNL     1       0.700   9.541   3.619  0.00  0.00    +0.050 A 
ATOM     28  C   UNL     1       0.014   8.368   3.367  0.00  0.00    +0.011 A 
ATOM     29  C   UNL     1       0.685   7.263   2.875  0.00  0.00    +0.001 A 
ATOM     30  C   UNL     1       2.046   7.326   2.638  0.00  0.00    +0.057 A 
ATOM     31  C   UNL     1       2.738   8.501   2.884  0.00  0.00    +0.162 A 
BRANCH  31  32
ATOM     32  O   UNL     1       4.076   8.566   2.647  0.00  0.00    -0.491 OA
ATOM     33  C   UNL     1       4.702   7.386   2.139  0.00  0.00    +0.277 C 
ENDBRANCH  31  32
BRANCH  26  34
ATOM     34  O   UNL     1       2.740  10.766   3.627  0.00  0.00    -0.489 OA
BRANCH  34  36
ATOM     35  C   UNL     1       2.906  13.066   4.351  0.00  0.00    +0.048 C 
ATOM     36  C   UNL     1       1.982  11.866   4.135  0.00  0.00    +0.226 C 
ENDBRANCH  34  36
ENDBRANCH  26  34
ENDBRANCH   1  29
TORSDOF 5
