REMARK  Name = ZINC67283596
REMARK  5 active torsions:
REMARK  status: ('A' for Active; 'I' for Inactive)
REMARK    1  A    between atoms: C_1  and  C_2
REMARK    2  A    between atoms: C_7  and  C_10
REMARK    3  A    between atoms: C_11  and  C_13
REMARK    4  A    between atoms: C_16  and  N_20
REMARK    5  A    between atoms: C_18  and  O_19
REMARK                            x       y       z     vdW  Elec       q    Type
REMARK                         _______ _______ _______ _____ _____    ______ ____
ROOT
ATOM      1  C   UNL     1      -1.921  -4.278  -0.496  0.00  0.00    +0.078 A 
ATOM      2  C   UNL     1      -2.356  -4.927   0.664  0.00  0.00    +0.019 A 
ATOM      3  C   UNL     1      -2.216  -6.290   0.782  0.00  0.00    +0.027 A 
ATOM      4  C   UNL     1      -1.641  -7.028  -0.248  0.00  0.00    +0.049 A 
ATOM      5  C   UNL     1      -1.204  -6.394  -1.403  0.00  0.00    +0.072 A 
ATOM      6  C   UNL     1      -1.347  -5.024  -1.537  0.00  0.00    +0.131 A 
ENDROOT
BRANCH   1  15
ATOM      7  C   UNL     1      -0.341   1.558   0.531  0.00  0.00    +0.039 C 
ATOM      8  C   UNL     1      -0.267   0.031   0.487  0.00  0.00    +0.133 C 
ATOM      9  C   UNL     1      -1.658  -0.541   0.191  0.00  0.00    +0.139 C 
ATOM     10  N   UNL     1      -1.600  -2.004   0.339  0.00  0.00    -0.293 N 
ATOM     11  C   UNL     1      -1.014  -2.552   1.573  0.00  0.00    +0.139 C 
ATOM     12  C   UNL     1       0.346  -1.882   1.802  0.00  0.00    +0.133 C 
ATOM     13  O   UNL     1       0.187  -0.462   1.750  0.00  0.00    -0.371 OA
ATOM     14  C   UNL     1       1.324  -2.327   0.713  0.00  0.00    +0.039 C 
ATOM     15  C   UNL     1      -2.069  -2.818  -0.627  0.00  0.00    +0.250 C 
ATOM     16  O   UNL     1      -2.615  -2.348  -1.606  0.00  0.00    -0.270 OA
ENDBRANCH   1  15
BRANCH   4  17
ATOM     17  N   UNL     1      -1.501  -8.414  -0.120  0.00  0.00    -0.323 N 
ATOM     18  C   UNL     1      -0.951  -9.249  -1.050  0.00  0.00    +0.091 A 
ATOM     19  C   UNL     1      -0.994 -10.506  -0.565  0.00  0.00    +0.019 A 
ATOM     20  C   UNL     1      -1.591 -10.448   0.711  0.00  0.00    +0.019 A 
ATOM     21  C   UNL     1      -1.887  -9.156   0.960  0.00  0.00    +0.091 A 
ENDBRANCH   4  17
BRANCH   6  22
ATOM     22  O   UNL     1      -0.927  -4.403  -2.667  0.00  0.00    -0.506 OA
ATOM     23  H   UNL     1      -0.006  -4.109  -2.636  0.00  0.00    +0.292 HD
ENDBRANCH   6  22
TORSDOF 3
