REMARK  Name = ZINC41189576
REMARK  4 active torsions:
REMARK  status: ('A' for Active; 'I' for Inactive)
REMARK    1  A    between atoms: C_1  and  C_2
REMARK    2  A    between atoms: C_5  and  C_8
REMARK    3  A    between atoms: C_10  and  C_15
REMARK    4  A    between atoms: N_20  and  C_23
REMARK                            x       y       z     vdW  Elec       q    Type
REMARK                         _______ _______ _______ _____ _____    ______ ____
ROOT
ATOM      1  C   UNL     1      -0.259  -4.332  -0.092  0.00  0.00    +0.053 A 
ATOM      2  C   UNL     1      -0.312  -5.044   1.099  0.00  0.00    +0.059 A 
ATOM      3  C   UNL     1       0.152  -6.364   1.115  0.00  0.00    +0.133 A 
ATOM      4  N   UNL     1       0.630  -6.907   0.004  0.00  0.00    -0.188 NA
ATOM      5  C   UNL     1       0.678  -6.218  -1.136  0.00  0.00    +0.347 A 
ATOM      6  N   UNL     1       0.240  -4.948  -1.206  0.00  0.00    -0.306 N 
ATOM      7  O   UNL     1       1.125  -6.752  -2.138  0.00  0.00    -0.245 OA
ATOM      8  H   UNL     1       0.281  -4.467  -2.047  0.00  0.00    +0.170 HD
ENDROOT
BRANCH   3   9
ATOM      9  C   UNL     1       0.110  -7.155   2.374  0.00  0.00    +0.265 C 
ATOM     10  O   UNL     1       0.151  -6.590   3.448  0.00  0.00    -0.268 OA
ATOM     11  N   UNL     1       0.025  -8.499   2.323  0.00  0.00    -0.294 N 
ATOM     12  C   UNL     1      -0.076  -9.297   3.555  0.00  0.00    +0.123 C 
ATOM     13  C   UNL     1      -1.268 -10.251   3.421  0.00  0.00    +0.103 C 
ATOM     14  N   UNL     1      -1.128 -11.032   2.185  0.00  0.00    -0.302 NA
ATOM     15  C   UNL     1      -1.165 -10.165   0.999  0.00  0.00    +0.103 C 
ATOM     16  C   UNL     1       0.025  -9.207   1.034  0.00  0.00    +0.123 C 
ATOM     17  C   UNL     1      -2.157 -12.078   2.104  0.00  0.00    +0.105 C 
ENDBRANCH   3   9
BRANCH   1  22
ATOM     18  C   UNL     1      -2.127   1.103  -0.340  0.00  0.00    +0.044 C 
ATOM     19  C   UNL     1      -1.637  -0.321  -0.275  0.00  0.00    -0.050 A 
ATOM     20  C   UNL     1      -1.130  -0.927  -1.411  0.00  0.00    +0.004 A 
ATOM     21  C   UNL     1      -0.680  -2.230  -1.359  0.00  0.00    +0.010 A 
ATOM     22  C   UNL     1      -0.738  -2.938  -0.155  0.00  0.00    -0.002 A 
ATOM     23  C   UNL     1      -1.252  -2.319   0.987  0.00  0.00    +0.010 A 
ATOM     24  C   UNL     1      -1.693  -1.014   0.922  0.00  0.00    +0.004 A 
ENDBRANCH   1  22
TORSDOF 2
