REMARK  Name = ZINC40981614
REMARK  10 active torsions:
REMARK  status: ('A' for Active; 'I' for Inactive)
REMARK    1  A    between atoms: C_1  and  C_2
REMARK    2  A    between atoms: C_2  and  C_3
REMARK    3  A    between atoms: C_3  and  S_4
REMARK    4  A    between atoms: S_4  and  C_5
REMARK    5  A    between atoms: C_10  and  C_19
REMARK    6  A    between atoms: C_12  and  C_16
REMARK    7  A    between atoms: C_13  and  C_15
REMARK    8  A    between atoms: C_22  and  O_25
REMARK    9  A    between atoms: O_25  and  C_26
REMARK   10  A    between atoms: C_26  and  C_27
REMARK                            x       y       z     vdW  Elec       q    Type
REMARK                         _______ _______ _______ _____ _____    ______ ____
ROOT
ATOM      1  C   UNL     1      -3.149  -2.800  -0.439  0.00  0.00    +0.210 A 
ATOM      2  N   UNL     1      -4.181  -1.946  -0.378  0.00  0.00    -0.187 NA
ATOM      3  C   UNL     1      -5.285  -2.610  -0.173  0.00  0.00    +0.219 A 
ATOM      4  N   UNL     1      -4.975  -3.928  -0.093  0.00  0.00    -0.220 N 
ATOM      5  N   UNL     1      -3.597  -4.026  -0.275  0.00  0.00    -0.141 NA
ATOM      6  C   UNL     1      -5.963  -4.978   0.142  0.00  0.00    +0.177 C 
ATOM      7  C   UNL     1      -7.348  -4.409  -0.022  0.00  0.00    +0.060 C 
ATOM      8  C   UNL     1      -7.594  -3.094  -0.101  0.00  0.00    +0.018 C 
ATOM      9  N   UNL     1      -6.591  -2.157  -0.047  0.00  0.00    -0.287 N 
ATOM     10  C   UNL     1      -9.019  -2.627  -0.253  0.00  0.00    +0.061 C 
ATOM     11  H   UNL     1      -6.788  -1.215   0.074  0.00  0.00    +0.155 HD
ENDROOT
BRANCH   6  12
ATOM     12  C   UNL     1      -5.803  -5.514   1.542  0.00  0.00    -0.018 A 
ATOM     13  C   UNL     1      -5.955  -4.669   2.626  0.00  0.00    +0.009 A 
ATOM     14  C   UNL     1      -5.809  -5.158   3.910  0.00  0.00    +0.046 A 
ATOM     15  C   UNL     1      -5.510  -6.498   4.111  0.00  0.00    +0.121 A 
ATOM     16  C   UNL     1      -5.358  -7.343   3.021  0.00  0.00    +0.046 A 
ATOM     17  C   UNL     1      -5.511  -6.851   1.740  0.00  0.00    +0.009 A 
BRANCH  15  18
ATOM     18  O   UNL     1      -5.364  -6.981   5.372  0.00  0.00    -0.487 OA
BRANCH  18  19
ATOM     19  C   UNL     1      -5.057  -8.370   5.504  0.00  0.00    +0.266 C 
BRANCH  19  20
ATOM     20  C   UNL     1      -4.934  -8.722   6.964  0.00  0.00    +0.008 A 
ATOM     21  C   UNL     1      -5.123  -7.748   7.927  0.00  0.00    +0.010 A 
ATOM     22  C   UNL     1      -5.011  -8.070   9.267  0.00  0.00    +0.020 A 
ATOM     23  C   UNL     1      -4.710  -9.367   9.644  0.00  0.00    +0.042 A 
ATOM     24  C   UNL     1      -4.522 -10.341   8.681  0.00  0.00    +0.040 A 
ATOM     25  C   UNL     1      -4.639 -10.020   7.340  0.00  0.00    +0.049 A 
ATOM     26 CL   UNL     1      -4.409 -11.244   6.131  0.00  0.00    -0.083 Cl
ATOM     27 CL   UNL     1      -4.569  -9.771  11.327  0.00  0.00    -0.083 Cl
ENDBRANCH  19  20
ENDBRANCH  18  19
ENDBRANCH  15  18
ENDBRANCH   6  12
BRANCH   7  28
ATOM     28  C   UNL     1      -8.440  -5.306  -0.098  0.00  0.00    +0.241 C 
ATOM     29  O   UNL     1      -8.627  -5.953  -1.113  0.00  0.00    -0.271 OA
ATOM     30  N   UNL     1      -9.274  -5.443   0.952  0.00  0.00    -0.325 N 
ATOM     31  H   UNL     1      -9.125  -4.927   1.760  0.00  0.00    +0.145 HD
ATOM     32  H   UNL     1     -10.022  -6.057   0.900  0.00  0.00    +0.145 HD
ENDBRANCH   7  28
BRANCH   1  33
ATOM     33  S   UNL     1      -1.465  -2.352  -0.704  0.00  0.00    -0.084 S 
BRANCH  33  34
ATOM     34  C   UNL     1      -1.509  -0.545  -0.851  0.00  0.00    +0.077 C 
BRANCH  34  36
ATOM     35  C   UNL     1      -0.129   1.507  -1.210  0.00  0.00    +0.004 C 
ATOM     36  C   UNL     1      -0.092  -0.018  -1.086  0.00  0.00    +0.008 C 
ENDBRANCH  34  36
ENDBRANCH  33  34
ENDBRANCH   1  33
TORSDOF 8
