REMARK  Name = ZINC00103407
REMARK  2 active torsions:
REMARK  status: ('A' for Active; 'I' for Inactive)
REMARK    1  A    between atoms: C_6  and  C_7
REMARK    2  A    between atoms: C_9  and  N_16
REMARK                            x       y       z     vdW  Elec       q    Type
REMARK                         _______ _______ _______ _____ _____    ______ ____
ROOT
ATOM      1  C   UNL     1       3.712  -0.705  -0.037  0.00  0.00    +0.132 C 
ATOM      2  C   UNL     1       4.257  -0.735  -1.466  0.00  0.00    +0.195 C 
ATOM      3  C   UNL     1       5.689  -1.282  -1.434  0.00  0.00    +0.043 C 
ATOM      4  C   UNL     1       6.580  -0.265  -0.718  0.00  0.00    +0.098 C 
ATOM      5  C   UNL     1       5.941   0.154   0.575  0.00  0.00    +0.214 C 
ATOM      6  O   UNL     1       6.636   0.691   1.411  0.00  0.00    -0.276 OA
ATOM      7  N   UNL     1       4.652  -0.031   0.849  0.00  0.00    -0.306 N 
ATOM      8  H   UNL     1       4.318   0.303   1.697  0.00  0.00    +0.149 HD
ENDROOT
BRANCH   1  14
ATOM      9  C   UNL     1       2.378   1.412  -0.013  0.00  0.00    +0.007 A 
ATOM     10  C   UNL     1       1.172   2.088   0.002  0.00  0.00    +0.022 A 
ATOM     11  C   UNL     1      -0.017   1.381   0.010  0.00  0.00    +0.059 A 
ATOM     12  C   UNL     1       0.002  -0.004   0.002  0.00  0.00    +0.060 A 
ATOM     13  C   UNL     1       1.210  -0.678  -0.013  0.00  0.00    +0.027 A 
ATOM     14  C   UNL     1       2.397   0.030  -0.021  0.00  0.00    -0.024 A 
ATOM     15 CL   UNL     1      -1.489  -0.893   0.012  0.00  0.00    -0.082 Cl
ATOM     16 CL   UNL     1      -1.532   2.229   0.021  0.00  0.00    -0.082 Cl
ENDBRANCH   1  14
BRANCH   2  17
ATOM     17  N   UNL     1       4.262   0.622  -2.018  0.00  0.00    +0.028 N 
ATOM     18  O   UNL     1       4.911   1.498  -1.475  0.00  0.00    -0.131 OA
ATOM     19  O   UNL     1       3.616   0.875  -3.020  0.00  0.00    -0.131 OA
ENDBRANCH   2  17
TORSDOF 2
