REMARK  Name = ZINC34920221
REMARK  7 active torsions:
REMARK  status: ('A' for Active; 'I' for Inactive)
REMARK    1  A    between atoms: C_1  and  C_2
REMARK    2  A    between atoms: C_9  and  C_13
REMARK    3  A    between atoms: N_15  and  C_16
REMARK    4  A    between atoms: C_16  and  C_17
REMARK    5  A    between atoms: C_17  and  C_18
REMARK    6  A    between atoms: N_23  and  C_24
REMARK    7  A    between atoms: C_25  and  C_27
REMARK                            x       y       z     vdW  Elec       q    Type
REMARK                         _______ _______ _______ _____ _____    ______ ____
ROOT
ATOM      1  C   UNL     1       2.481  -0.639  -0.971  0.00  0.00    +0.007 C 
ATOM      2  C   UNL     1       1.249  -1.450  -0.565  0.00  0.00    -0.014 C 
ATOM      3  C   UNL     1       0.908  -1.163   0.898  0.00  0.00    +0.008 C 
ATOM      4  C   UNL     1      -0.327  -1.970   1.303  0.00  0.00    +0.056 C 
ATOM      5  C   UNL     1      -0.041  -3.462   1.122  0.00  0.00    +0.139 C 
ATOM      6  C   UNL     1       0.306  -3.753  -0.338  0.00  0.00    +0.056 C 
ATOM      7  C   UNL     1       1.540  -2.942  -0.739  0.00  0.00    +0.008 C 
ATOM      8  N   UNL     1      -1.223  -4.244   1.516  0.00  0.00    -0.259 N 
ATOM      9  C   UNL     1      -0.779  -5.135   2.610  0.00  0.00    +0.190 C 
ATOM     10  C   UNL     1       0.756  -5.190   2.405  0.00  0.00    +0.194 C 
ATOM     11  O   UNL     1       1.058  -3.846   1.964  0.00  0.00    -0.354 OA
ATOM     12  C   UNL     1      -2.460  -4.165   0.986  0.00  0.00    +0.221 C 
ATOM     13  O   UNL     1      -3.366  -4.816   1.462  0.00  0.00    -0.275 OA
ENDROOT
BRANCH  12  14
ATOM     14  C   UNL     1      -2.717  -3.267  -0.197  0.00  0.00    +0.075 C 
ATOM     15  C   UNL     1      -4.076  -2.555  -0.034  0.00  0.00    +0.013 C 
ATOM     16  C   UNL     1      -4.654  -2.505  -1.470  0.00  0.00    +0.001 C 
ATOM     17  C   UNL     1      -4.225  -3.873  -2.058  0.00  0.00    +0.001 C 
ATOM     18  C   UNL     1      -2.812  -4.105  -1.484  0.00  0.00    +0.013 C 
ENDBRANCH  12  14
BRANCH   9  19
ATOM     19  C   UNL     1      -1.390  -6.505   2.465  0.00  0.00    +0.236 C 
ATOM     20  O   UNL     1      -1.687  -6.923   1.365  0.00  0.00    -0.274 OA
ATOM     21  N   UNL     1      -1.607  -7.266   3.556  0.00  0.00    -0.314 N 
ATOM     22  H   UNL     1      -1.369  -6.932   4.435  0.00  0.00    +0.149 HD
BRANCH  21  23
ATOM     23  C   UNL     1      -2.201  -8.598   3.414  0.00  0.00    +0.102 C 
BRANCH  23  24
ATOM     24  C   UNL     1      -2.338  -9.244   4.794  0.00  0.00    +0.003 C 
BRANCH  24  25
ATOM     25  C   UNL     1      -2.840 -10.681   4.636  0.00  0.00    -0.068 C 
ATOM     26  C   UNL     1      -4.266 -10.678   4.047  0.00  0.00    -0.017 C 
ATOM     27  C   UNL     1      -4.963 -11.833   4.813  0.00  0.00    -0.020 C 
ATOM     28  C   UNL     1      -4.319 -11.711   6.217  0.00  0.00    -0.079 C 
ATOM     29  N   UNL     1      -2.910 -11.335   5.955  0.00  0.00    +0.380 N 
ATOM     30  C   UNL     1      -2.444 -10.406   6.994  0.00  0.00    -0.096 C 
ATOM     31  H   UNL     1      -2.331 -12.162   5.956  0.00  0.00    -0.082 HD
ENDBRANCH  24  25
ENDBRANCH  23  24
ENDBRANCH  21  23
ENDBRANCH   9  19
TORSDOF 5
