REMARK  Name = ZINC02093366
REMARK  6 active torsions:
REMARK  status: ('A' for Active; 'I' for Inactive)
REMARK    1  A    between atoms: C_2  and  C_3
REMARK    2  A    between atoms: C_3  and  O_4
REMARK    3  A    between atoms: O_4  and  C_5
REMARK    4  A    between atoms: C_8  and  C_12
REMARK    5  A    between atoms: C_21  and  N_25
REMARK    6  A    between atoms: C_22  and  C_23
REMARK                            x       y       z     vdW  Elec       q    Type
REMARK                         _______ _______ _______ _____ _____    ______ ____
ROOT
ATOM      1  C   UNL     1       1.257   2.148   0.002  0.00  0.00    +0.098 C 
ATOM      2  C   UNL     1       2.420   1.278   0.399  0.00  0.00    +0.011 A 
ATOM      3  C   UNL     1       3.607   1.869   0.795  0.00  0.00    +0.057 A 
ATOM      4  C   UNL     1       4.687   1.085   1.163  0.00  0.00    +0.167 A 
ATOM      5  C   UNL     1       4.579  -0.303   1.135  0.00  0.00    +0.170 A 
ATOM      6  C   UNL     1       3.391  -0.892   0.739  0.00  0.00    +0.096 A 
ATOM      7  C   UNL     1       2.308  -0.103   0.371  0.00  0.00    +0.138 A 
ATOM      8  O   UNL     1       1.151  -0.699  -0.013  0.00  0.00    -0.441 OA
ATOM      9  C   UNL     1       0.002  -0.004   0.002  0.00  0.00    +0.199 C 
ATOM     10  C   UNL     1      -0.016   1.350   0.009  0.00  0.00    +0.098 C 
ATOM     11  O   UNL     1       5.766  -0.842   1.537  0.00  0.00    -0.452 OA
ATOM     12  C   UNL     1       6.467   0.225   2.203  0.00  0.00    +0.466 C 
ATOM     13  O   UNL     1       5.944   1.416   1.585  0.00  0.00    -0.453 OA
ENDROOT
BRANCH   1  17
ATOM     14  C   UNL     1       1.930   3.701  -3.923  0.00  0.00    +0.136 A 
ATOM     15  C   UNL     1       1.850   2.331  -3.722  0.00  0.00    +0.047 A 
ATOM     16  C   UNL     1       1.638   1.832  -2.452  0.00  0.00    +0.008 A 
ATOM     17  C   UNL     1       1.494   2.696  -1.382  0.00  0.00    -0.033 A 
ATOM     18  C   UNL     1       1.573   4.062  -1.579  0.00  0.00    +0.023 A 
ATOM     19  C   UNL     1       1.791   4.567  -2.847  0.00  0.00    +0.060 A 
ATOM     20 BR   UNL     1       1.898   6.436  -3.116  0.00  0.00    -0.047 Br
BRANCH  14  21
ATOM     21  O   UNL     1       2.145   4.195  -5.171  0.00  0.00    -0.478 OA
BRANCH  21  22
ATOM     22  C   UNL     1       2.279   3.245  -6.230  0.00  0.00    +0.317 C 
BRANCH  22  24
ATOM     23  C   UNL     1       2.684   4.521  -8.513  0.00  0.00    +0.007 C 
ATOM     24  C   UNL     1       2.504   3.955  -7.500  0.00  0.00    -0.065 C 
ENDBRANCH  22  24
ENDBRANCH  21  22
ENDBRANCH  14  21
ENDBRANCH   1  17
BRANCH   9  25
ATOM     25  N   UNL     1      -1.189  -0.686   0.009  0.00  0.00    -0.328 N 
ATOM     26  H   UNL     1      -2.027  -0.199   0.020  0.00  0.00    +0.145 HD
ATOM     27  H   UNL     1      -1.192  -1.656   0.004  0.00  0.00    +0.145 HD
ENDBRANCH   9  25
BRANCH  10  28
ATOM     28  C   UNL     1      -1.274   2.035   0.019  0.00  0.00    +0.101 C 
ATOM     29  N   UNL     1      -2.272   2.578   0.027  0.00  0.00    -0.191 NA
ENDBRANCH  10  28
TORSDOF 6
