REMARK  Name = ZINC15731424
REMARK  9 active torsions:
REMARK  status: ('A' for Active; 'I' for Inactive)
REMARK    1  A    between atoms: C_1  and  C_2
REMARK    2  A    between atoms: C_2  and  C_3
REMARK    3  A    between atoms: C_2  and  C_4
REMARK    4  A    between atoms: C_4  and  C_5
REMARK    5  A    between atoms: C_5  and  C_7
REMARK    6  A    between atoms: C_5  and  N_18
REMARK    7  A    between atoms: N_9  and  C_10
REMARK    8  A    between atoms: N_18  and  S_19
REMARK    9  A    between atoms: S_19  and  C_22
REMARK                            x       y       z     vdW  Elec       q    Type
REMARK                         _______ _______ _______ _____ _____    ______ ____
ROOT
ATOM      1  N   UNL     1      -4.404  -1.288   1.650  0.00  0.00    -0.178 NA
ATOM      2  H   UNL     1      -3.712  -1.951   1.802  0.00  0.00    +0.149 HD
ENDROOT
BRANCH   1   3
ATOM      3  S   UNL     1      -5.398  -1.416   0.332  0.00  0.00    +0.059 S 
ATOM      4  O   UNL     1      -6.727  -1.261   0.809  0.00  0.00    -0.153 OA
ATOM      5  O   UNL     1      -4.975  -2.567  -0.386  0.00  0.00    -0.153 OA
BRANCH   3   6
ATOM      6  C   UNL     1      -5.070  -0.029  -0.704  0.00  0.00    +0.106 A 
ATOM      7  C   UNL     1      -5.830   1.121  -0.591  0.00  0.00    +0.030 A 
ATOM      8  C   UNL     1      -5.565   2.192  -1.409  0.00  0.00    +0.025 A 
ATOM      9  C   UNL     1      -4.535   2.148  -2.364  0.00  0.00    +0.037 A 
ATOM     10  C   UNL     1      -3.775   1.003  -2.467  0.00  0.00    -0.024 A 
ATOM     11  C   UNL     1      -4.056  -0.080  -1.633  0.00  0.00    +0.034 A 
ATOM     12  C   UNL     1      -2.638   0.805  -3.415  0.00  0.00    +0.037 C 
ATOM     13  C   UNL     1      -1.796   2.013  -3.684  0.00  0.00    +0.014 C 
ATOM     14  C   UNL     1      -2.436   2.993  -4.638  0.00  0.00    +0.096 C 
ATOM     15  C   UNL     1      -3.552   3.740  -4.001  0.00  0.00    +0.217 C 
ATOM     16  O   UNL     1      -3.687   4.898  -4.337  0.00  0.00    -0.275 OA
ATOM     17  N   UNL     1      -4.400   3.289  -3.122  0.00  0.00    -0.285 N 
ATOM     18  H   UNL     1      -5.121   3.917  -2.959  0.00  0.00    +0.155 HD
ENDBRANCH   3   6
ENDBRANCH   1   3
BRANCH   1  19
ATOM     19  C   UNL     1      -4.568  -0.174   2.587  0.00  0.00    +0.162 C 
BRANCH  19  20
ATOM     20  C   UNL     1      -5.466  -0.599   3.720  0.00  0.00    +0.232 C 
ATOM     21  O   UNL     1      -5.924  -1.722   3.743  0.00  0.00    -0.274 OA
ATOM     22  N   UNL     1      -5.761   0.269   4.708  0.00  0.00    -0.311 N 
ATOM     23  H   UNL     1      -5.396   1.168   4.689  0.00  0.00    +0.149 HD
BRANCH  22  24
ATOM     24  C   UNL     1      -6.634  -0.144   5.809  0.00  0.00    +0.073 C 
ATOM     25  C   UNL     1      -8.096   0.050   5.402  0.00  0.00    +0.022 C 
ATOM     26  C   UNL     1      -9.000  -0.731   6.358  0.00  0.00    +0.002 C 
ATOM     27  C   UNL     1      -8.406  -2.120   6.601  0.00  0.00    +0.000 C 
ATOM     28  C   UNL     1      -7.953  -2.233   8.058  0.00  0.00    +0.000 C 
ATOM     29  C   UNL     1      -6.643  -1.464   8.245  0.00  0.00    +0.000 C 
ATOM     30  C   UNL     1      -6.934   0.037   8.283  0.00  0.00    +0.002 C 
ATOM     31  C   UNL     1      -6.332   0.706   7.045  0.00  0.00    +0.022 C 
ENDBRANCH  22  24
ENDBRANCH  19  20
BRANCH  19  32
ATOM     32  C   UNL     1      -3.202   0.231   3.143  0.00  0.00    +0.032 C 
BRANCH  32  34
ATOM     33  C   UNL     1      -1.045   1.371   2.601  0.00  0.00    +0.007 C 
ATOM     34  C   UNL     1      -2.344   0.811   2.017  0.00  0.00    -0.015 C 
ATOM     35  C   UNL     1      -2.016  -0.290   1.006  0.00  0.00    +0.007 C 
ENDBRANCH  32  34
ENDBRANCH  19  32
ENDBRANCH   1  19
TORSDOF 7
