REMARK  Name = ZINC08873909
REMARK  14 active torsions:
REMARK  status: ('A' for Active; 'I' for Inactive)
REMARK    1  A    between atoms: C_1  and  C_2
REMARK    2  A    between atoms: C_5  and  C_35
REMARK    3  A    between atoms: C_6  and  C_8
REMARK    4  A    between atoms: C_8  and  S_9
REMARK    5  A    between atoms: S_9  and  C_10
REMARK    6  A    between atoms: C_14  and  O_33
REMARK    7  A    between atoms: C_15  and  O_31
REMARK    8  A    between atoms: C_18  and  N_19
REMARK    9  A    between atoms: N_20  and  C_21
REMARK   10  A    between atoms: C_21  and  C_22
REMARK   11  A    between atoms: C_25  and  O_29
REMARK   12  A    between atoms: O_29  and  C_30
REMARK   13  A    between atoms: O_31  and  C_32
REMARK   14  A    between atoms: O_33  and  C_34
REMARK                            x       y       z     vdW  Elec       q    Type
REMARK                         _______ _______ _______ _____ _____    ______ ____
ROOT
ATOM      1  C   UNL     1       1.622  -4.015   4.517  0.00  0.00    +0.171 A 
ATOM      2  N   UNL     1       0.414  -4.297   4.969  0.00  0.00    -0.223 NA
ATOM      3  C   UNL     1       0.260  -4.972   6.119  0.00  0.00    +0.081 A 
ATOM      4  C   UNL     1      -1.008  -5.287   6.624  0.00  0.00    +0.078 A 
ATOM      5  C   UNL     1      -1.112  -5.981   7.809  0.00  0.00    +0.164 A 
ATOM      6  C   UNL     1       0.035  -6.374   8.512  0.00  0.00    +0.162 A 
ATOM      7  C   UNL     1       1.280  -6.077   8.038  0.00  0.00    +0.062 A 
ATOM      8  C   UNL     1       1.415  -5.372   6.835  0.00  0.00    +0.042 A 
ATOM      9  C   UNL     1       2.684  -5.041   6.301  0.00  0.00    +0.108 A 
ATOM     10  N   UNL     1       2.731  -4.377   5.155  0.00  0.00    -0.304 N 
ENDROOT
BRANCH   9  11
ATOM     11  N   UNL     1       3.842  -5.405   6.955  0.00  0.00    -0.344 N 
ATOM     12  H   UNL     1       3.794  -5.895   7.791  0.00  0.00    +0.144 HD
ATOM     13  H   UNL     1       4.705  -5.172   6.579  0.00  0.00    +0.144 HD
ENDBRANCH   9  11
BRANCH   6  14
ATOM     14  O   UNL     1      -0.094  -7.058   9.681  0.00  0.00    -0.491 OA
ATOM     15  C   UNL     1       1.112  -7.430  10.351  0.00  0.00    +0.277 C 
ENDBRANCH   6  14
BRANCH   5  16
ATOM     16  O   UNL     1      -2.341  -6.288   8.302  0.00  0.00    -0.491 OA
ATOM     17  C   UNL     1      -3.471  -5.861   7.540  0.00  0.00    +0.277 C 
ENDBRANCH   5  16
BRANCH   1  18
ATOM     18  S   UNL     1       1.770  -3.127   3.002  0.00  0.00    -0.083 S 
BRANCH  18  19
ATOM     19  C   UNL     1       0.054  -2.845   2.489  0.00  0.00    +0.112 C 
BRANCH  19  25
ATOM     20  C   UNL     1      -0.018   1.503   0.010  0.00  0.00    +0.044 C 
ATOM     21  C   UNL     1       0.002  -0.004   0.002  0.00  0.00    -0.050 A 
ATOM     22  C   UNL     1       0.006  -0.689  -1.199  0.00  0.00    +0.003 A 
ATOM     23  C   UNL     1       0.025  -2.071  -1.207  0.00  0.00    +0.004 A 
ATOM     24  C   UNL     1       0.040  -2.768  -0.013  0.00  0.00    -0.046 A 
ATOM     25  C   UNL     1       0.037  -2.084   1.188  0.00  0.00    -0.034 A 
ATOM     26  C   UNL     1       0.023  -0.702   1.195  0.00  0.00    +0.008 A 
ATOM     27  C   UNL     1       0.059  -4.275  -0.021  0.00  0.00    +0.044 C 
ENDBRANCH  19  25
ENDBRANCH  18  19
ENDBRANCH   1  18
BRANCH  10  28
ATOM     28  C   UNL     1       4.034  -4.030   4.582  0.00  0.00    +0.160 C 
BRANCH  28  29
ATOM     29  C   UNL     1       4.469  -2.684   5.102  0.00  0.00    -0.026 A 
ATOM     30  C   UNL     1       4.115  -1.534   4.421  0.00  0.00    +0.009 A 
ATOM     31  C   UNL     1       4.512  -0.298   4.895  0.00  0.00    +0.047 A 
ATOM     32  C   UNL     1       5.267  -0.212   6.056  0.00  0.00    +0.138 A 
ATOM     33  C   UNL     1       5.620  -1.368   6.738  0.00  0.00    +0.083 A 
ATOM     34  C   UNL     1       5.216  -2.601   6.262  0.00  0.00    +0.029 A 
ATOM     35 CL   UNL     1       6.565  -1.264   8.191  0.00  0.00    -0.080 Cl
BRANCH  32  36
ATOM     36  O   UNL     1       5.659   1.002   6.524  0.00  0.00    -0.494 OA
ATOM     37  C   UNL     1       5.259   2.149   5.770  0.00  0.00    +0.277 C 
ENDBRANCH  32  36
ENDBRANCH  28  29
ENDBRANCH  10  28
TORSDOF 9
