REMARK  Name = ZINC09189630
REMARK  9 active torsions:
REMARK  status: ('A' for Active; 'I' for Inactive)
REMARK    1  A    between atoms: C_1  and  C_2
REMARK    2  A    between atoms: C_5  and  O_27
REMARK    3  A    between atoms: C_6  and  N_8
REMARK    4  A    between atoms: C_9  and  C_11
REMARK    5  A    between atoms: C_11  and  S_12
REMARK    6  A    between atoms: S_12  and  C_13
REMARK    7  A    between atoms: C_16  and  C_19
REMARK    8  A    between atoms: N_17  and  C_18
REMARK    9  A    between atoms: C_24  and  O_25
REMARK                            x       y       z     vdW  Elec       q    Type
REMARK                         _______ _______ _______ _____ _____    ______ ____
ROOT
ATOM      1  S   UNL     1       0.456  -1.053  -6.252  0.00  0.00    -0.077 S 
ENDROOT
BRANCH   1   2
ATOM      2  C   UNL     1       0.422   0.070  -7.608  0.00  0.00    +0.192 A 
ATOM      3  N   UNL     1       0.234   1.369  -7.540  0.00  0.00    -0.122 NA
ATOM      4  N   UNL     1       0.273   1.883  -8.718  0.00  0.00    -0.128 NA
ATOM      5  C   UNL     1       0.479   0.943  -9.611  0.00  0.00    +0.168 A 
ATOM      6  N   UNL     1       0.581  -0.247  -8.928  0.00  0.00    -0.305 N 
ATOM      7  C   UNL     1       0.811  -1.578  -9.497  0.00  0.00    +0.153 C 
BRANCH   5   8
ATOM      8  C   UNL     1       0.582   1.128 -11.073  0.00  0.00    +0.062 A 
ATOM      9  C   UNL     1      -0.117   0.284 -11.938  0.00  0.00    +0.030 A 
ATOM     10  C   UNL     1      -0.021   0.465 -13.303  0.00  0.00    +0.019 A 
ATOM     11  C   UNL     1       0.775   1.474 -13.818  0.00  0.00    +0.019 A 
ATOM     12  C   UNL     1       1.476   2.312 -12.971  0.00  0.00    +0.047 A 
ATOM     13  C   UNL     1       1.385   2.147 -11.598  0.00  0.00    +0.128 A 
ATOM     14 BR   UNL     1      -0.974  -0.673 -14.473  0.00  0.00    -0.050 Br
BRANCH  13  15
ATOM     15  O   UNL     1       2.074   2.970 -10.765  0.00  0.00    -0.506 OA
ATOM     16  H   UNL     1       2.961   2.655 -10.546  0.00  0.00    +0.292 HD
ENDBRANCH  13  15
ENDBRANCH   5   8
ENDBRANCH   1   2
BRANCH   1  17
ATOM     17  C   UNL     1       0.180   0.098  -4.883  0.00  0.00    +0.173 C 
BRANCH  17  19
ATOM     18  N   UNL     1      -0.021  -0.005  -2.420  0.00  0.00    -0.282 N 
ATOM     19  C   UNL     1       0.170  -0.661  -3.581  0.00  0.00    +0.228 C 
ATOM     20  O   UNL     1       0.333  -1.863  -3.579  0.00  0.00    -0.275 OA
ATOM     21  H   UNL     1      -0.219   0.944  -2.426  0.00  0.00    +0.155 HD
BRANCH  18  27
ATOM     22  C   UNL     1      -0.477  -4.196   0.113  0.00  0.00    +0.044 C 
ATOM     23  C   UNL     1      -0.148  -2.726   0.054  0.00  0.00    -0.048 A 
ATOM     24  C   UNL     1       0.234  -2.058   1.203  0.00  0.00    +0.007 A 
ATOM     25  C   UNL     1       0.536  -0.710   1.155  0.00  0.00    +0.047 A 
ATOM     26  C   UNL     1       0.457  -0.024  -0.046  0.00  0.00    +0.138 A 
ATOM     27  C   UNL     1       0.067  -0.695  -1.203  0.00  0.00    +0.076 A 
ATOM     28  C   UNL     1      -0.230  -2.049  -1.148  0.00  0.00    +0.030 A 
BRANCH  26  29
ATOM     29  O   UNL     1       0.753   1.302  -0.095  0.00  0.00    -0.505 OA
ATOM     30  H   UNL     1       1.684   1.491  -0.276  0.00  0.00    +0.292 HD
ENDBRANCH  26  29
ENDBRANCH  18  27
ENDBRANCH  17  19
ENDBRANCH   1  17
TORSDOF 7
