REMARK  Name = ZINC17150295
REMARK  13 active torsions:
REMARK  status: ('A' for Active; 'I' for Inactive)
REMARK    1  A    between atoms: C_1  and  C_2
REMARK    2  A    between atoms: C_5  and  C_29
REMARK    3  A    between atoms: C_6  and  O_8
REMARK    4  A    between atoms: O_8  and  C_9
REMARK    5  A    between atoms: C_9  and  C_10
REMARK    6  A    between atoms: C_13  and  S_16
REMARK    7  A    between atoms: N_14  and  N_15
REMARK    8  A    between atoms: S_16  and  C_17
REMARK    9  A    between atoms: C_17  and  C_18
REMARK   10  A    between atoms: N_20  and  C_21
REMARK   11  A    between atoms: C_24  and  C_28
REMARK   12  A    between atoms: C_29  and  C_30
REMARK   13  A    between atoms: C_29  and  C_31
REMARK                            x       y       z     vdW  Elec       q    Type
REMARK                         _______ _______ _______ _____ _____    ______ ____
ROOT
ATOM      1  C   UNL     1      -9.657   4.634  -0.504  0.00  0.00    +0.189 A 
ATOM      2  N   UNL     1      -8.782   5.596  -0.430  0.00  0.00    -0.128 NA
ATOM      3  N   UNL     1      -7.596   5.108  -0.337  0.00  0.00    -0.121 NA
ATOM      4  C   UNL     1      -7.651   3.797  -0.355  0.00  0.00    +0.209 A 
ATOM      5  N   UNL     1      -8.969   3.453  -0.459  0.00  0.00    -0.225 N 
ENDROOT
BRANCH   5   6
ATOM      6  N   UNL     1      -9.491   2.192  -0.508  0.00  0.00    -0.295 N 
ATOM      7  H   UNL     1      -9.701   1.851   0.418  0.00  0.00    +0.163 HD
ATOM      8  H   UNL     1     -10.308   2.161  -1.099  0.00  0.00    +0.163 HD
ENDBRANCH   5   6
BRANCH   1   9
ATOM      9  C   UNL     1     -11.151   4.793  -0.619  0.00  0.00    +0.306 C 
BRANCH   9  10
ATOM     10  O   UNL     1     -11.727   4.834   0.689  0.00  0.00    -0.484 OA
BRANCH  10  16
ATOM     11  C   UNL     1     -16.023   5.319  -1.577  0.00  0.00    +0.044 C 
ATOM     12  C   UNL     1     -15.203   5.214  -0.317  0.00  0.00    -0.047 A 
ATOM     13  C   UNL     1     -15.824   5.261   0.917  0.00  0.00    +0.004 A 
ATOM     14  C   UNL     1     -15.075   5.165   2.075  0.00  0.00    +0.008 A 
ATOM     15  C   UNL     1     -13.703   5.016   2.001  0.00  0.00    -0.003 A 
ATOM     16  C   UNL     1     -13.077   4.974   0.764  0.00  0.00    +0.125 A 
ATOM     17  C   UNL     1     -13.831   5.071  -0.397  0.00  0.00    +0.049 A 
BRANCH  15  18
ATOM     18  C   UNL     1     -12.887   4.905   3.263  0.00  0.00    +0.016 C 
ATOM     19  C   UNL     1     -13.082   6.165   4.109  0.00  0.00    +0.012 C 
ATOM     20  C   UNL     1     -13.344   3.680   4.059  0.00  0.00    +0.012 C 
ENDBRANCH  15  18
ENDBRANCH  10  16
ENDBRANCH   9  10
ENDBRANCH   1   9
BRANCH   4  21
ATOM     21  S   UNL     1      -6.284   2.689  -0.256  0.00  0.00    -0.075 S 
BRANCH  21  22
ATOM     22  C   UNL     1      -4.924   3.878  -0.143  0.00  0.00    +0.173 C 
BRANCH  22  23
ATOM     23  C   UNL     1      -3.616   3.137  -0.047  0.00  0.00    +0.227 C 
ATOM     24  O   UNL     1      -3.604   1.924  -0.054  0.00  0.00    -0.275 OA
ATOM     25  N   UNL     1      -2.458   3.821   0.047  0.00  0.00    -0.285 N 
ATOM     26  H   UNL     1      -2.472   4.788   0.130  0.00  0.00    +0.155 HD
BRANCH  25  27
ATOM     27  C   UNL     1      -1.238   3.138   0.025  0.00  0.00    +0.036 A 
ATOM     28  C   UNL     1      -0.162   3.611   0.767  0.00  0.00    +0.024 A 
ATOM     29  C   UNL     1       1.044   2.939   0.740  0.00  0.00    +0.008 A 
ATOM     30  C   UNL     1       1.179   1.789  -0.016  0.00  0.00    -0.015 A 
ATOM     31  C   UNL     1       0.108   1.310  -0.751  0.00  0.00    +0.128 A 
ATOM     32  C   UNL     1      -1.101   1.983  -0.732  0.00  0.00    +0.062 A 
ATOM     33  F   UNL     1       0.243   0.186  -1.488  0.00  0.00    -0.205 F 
ATOM     34  C   UNL     1       2.495   1.055  -0.038  0.00  0.00    +0.047 C 
ENDBRANCH  25  27
ENDBRANCH  22  23
ENDBRANCH  21  22
ENDBRANCH   4  21
TORSDOF 9
