REMARK  Name = ZINC39379824
REMARK  6 active torsions:
REMARK  status: ('A' for Active; 'I' for Inactive)
REMARK    1  A    between atoms: C_4  and  C_7
REMARK    2  A    between atoms: C_7  and  C_12
REMARK    3  A    between atoms: C_12  and  N_13
REMARK    4  A    between atoms: C_14  and  C_16
REMARK    5  A    between atoms: N_22  and  C_25
REMARK    6  A    between atoms: C_25  and  C_26
REMARK                            x       y       z     vdW  Elec       q    Type
REMARK                         _______ _______ _______ _____ _____    ______ ____
ROOT
ATOM      1  C   UNL     1       5.431   2.972  -2.230  0.00  0.00    +0.082 C 
ATOM      2  C   UNL     1       6.938   3.054  -1.976  0.00  0.00    +0.020 C 
ATOM      3  C   UNL     1       6.374   3.384  -3.358  0.00  0.00    -0.021 C 
ATOM      4  C   UNL     1       6.367   4.852  -3.797  0.00  0.00    -0.011 C 
ATOM      5  C   UNL     1       5.416   5.000  -4.989  0.00  0.00    -0.078 C 
ATOM      6  N   UNL     1       5.827   4.086  -6.062  0.00  0.00    +0.380 N 
ATOM      7  C   UNL     1       5.649   2.693  -5.636  0.00  0.00    -0.078 C 
ATOM      8  C   UNL     1       6.617   2.380  -4.490  0.00  0.00    -0.011 C 
ATOM      9  H   UNL     1       6.799   4.246  -6.283  0.00  0.00    -0.082 HD
ENDROOT
BRANCH   1  11
ATOM     10  N   UNL     1       3.470   1.466  -2.301  0.00  0.00    -0.314 N 
ATOM     11  C   UNL     1       4.811   1.601  -2.306  0.00  0.00    +0.217 C 
ATOM     12  O   UNL     1       5.519   0.618  -2.372  0.00  0.00    -0.275 OA
ATOM     13  H   UNL     1       2.904   2.252  -2.248  0.00  0.00    +0.149 HD
BRANCH  10  14
ATOM     14  C   UNL     1       2.867   0.133  -2.375  0.00  0.00    +0.115 C 
BRANCH  14  15
ATOM     15  C   UNL     1       1.346   0.265  -2.465  0.00  0.00    +0.011 C 
ATOM     16  C   UNL     1       0.817   1.095  -1.282  0.00  0.00    +0.013 C 
ATOM     17  C   UNL     1      -0.144   0.179  -0.496  0.00  0.00    +0.001 C 
ATOM     18  C   UNL     1       0.315  -1.255  -0.858  0.00  0.00    +0.001 C 
ATOM     19  C   UNL     1       0.687  -1.126  -2.357  0.00  0.00    +0.013 C 
BRANCH  15  23
ATOM     20  C   UNL     1       0.255   2.120  -6.155  0.00  0.00    +0.000 A 
ATOM     21  C   UNL     1      -0.725   1.733  -5.260  0.00  0.00    +0.000 A 
ATOM     22  C   UNL     1      -0.372   1.132  -4.065  0.00  0.00    +0.004 A 
ATOM     23  C   UNL     1       0.961   0.918  -3.767  0.00  0.00    -0.040 A 
ATOM     24  C   UNL     1       1.940   1.305  -4.662  0.00  0.00    +0.004 A 
ATOM     25  C   UNL     1       1.587   1.907  -5.856  0.00  0.00    +0.000 A 
ENDBRANCH  15  23
ENDBRANCH  14  15
ENDBRANCH  10  14
ENDBRANCH   1  11
BRANCH   6  26
ATOM     26  C   UNL     1       5.011   4.339  -7.256  0.00  0.00    -0.062 C 
BRANCH  26  27
ATOM     27  C   UNL     1       5.546   3.508  -8.425  0.00  0.00    +0.082 C 
ATOM     28  C   UNL     1       4.489   3.499  -9.512  0.00  0.00    -0.007 C 
ATOM     29  C   UNL     1       4.850   3.976 -10.737  0.00  0.00    -0.007 A 
ATOM     30  C   UNL     1       3.892   4.003 -11.843  0.00  0.00    +0.009 A 
ATOM     31  C   UNL     1       4.295   4.486 -13.047  0.00  0.00    +0.001 A 
ATOM     32  C   UNL     1       5.596   4.951 -13.244  0.00  0.00    +0.002 A 
ATOM     33  C   UNL     1       6.531   4.952 -12.259  0.00  0.00    +0.024 A 
ATOM     34  C   UNL     1       6.216   4.474 -10.974  0.00  0.00    +0.040 A 
ATOM     35  N   UNL     1       7.141   4.480 -10.015  0.00  0.00    -0.285 N 
ATOM     36  C   UNL     1       6.912   4.044  -8.788  0.00  0.00    +0.222 C 
ATOM     37  O   UNL     1       7.798   4.075  -7.955  0.00  0.00    -0.275 OA
ATOM     38  H   UNL     1       8.024   4.820 -10.227  0.00  0.00    +0.155 HD
ENDBRANCH  26  27
ENDBRANCH   6  26
TORSDOF 6
