REMARK  Name = ZINC39324665
REMARK  7 active torsions:
REMARK  status: ('A' for Active; 'I' for Inactive)
REMARK    1  A    between atoms: C_1  and  C_2
REMARK    2  A    between atoms: C_2  and  C_3
REMARK    3  A    between atoms: C_3  and  C_4
REMARK    4  A    between atoms: C_4  and  C_5
REMARK    5  A    between atoms: C_7  and  C_19
REMARK    6  A    between atoms: C_9  and  C_17
REMARK    7  A    between atoms: C_10  and  N_16
REMARK                            x       y       z     vdW  Elec       q    Type
REMARK                         _______ _______ _______ _____ _____    ______ ____
ROOT
ATOM      1  C   UNL     1      -2.826  -2.585   0.015  0.00  0.00    +0.069 C 
ATOM      2  C   UNL     1      -3.505  -2.932  -1.052  0.00  0.00    +0.030 C 
ATOM      3  C   UNL     1      -3.241  -2.823  -2.529  0.00  0.00    +0.098 C 
ATOM      4  C   UNL     1      -4.554  -2.374  -3.145  0.00  0.00    +0.097 C 
ATOM      5  C   UNL     1      -5.695  -2.326  -2.426  0.00  0.00    +0.195 C 
ATOM      6  O   UNL     1      -5.836  -2.623  -1.121  0.00  0.00    -0.448 OA
ATOM      7  C   UNL     1      -4.840  -3.456  -0.522  0.00  0.00    +0.343 C 
ATOM      8  N   UNL     1      -4.711  -3.216   0.919  0.00  0.00    -0.138 NA
ATOM      9  N   UNL     1      -3.577  -2.769   1.131  0.00  0.00    -0.155 NA
ENDROOT
BRANCH   3  10
ATOM     10  C   UNL     1      -2.833  -4.163  -3.085  0.00  0.00    -0.035 A 
ATOM     11  C   UNL     1      -3.694  -5.241  -2.993  0.00  0.00    +0.005 A 
ATOM     12  C   UNL     1      -3.320  -6.470  -3.503  0.00  0.00    +0.015 A 
ATOM     13  C   UNL     1      -2.084  -6.621  -4.105  0.00  0.00    +0.018 A 
ATOM     14  C   UNL     1      -1.223  -5.543  -4.197  0.00  0.00    +0.015 A 
ATOM     15  C   UNL     1      -1.600  -4.313  -3.691  0.00  0.00    +0.005 A 
ATOM     16 BR   UNL     1      -1.571  -8.302  -4.803  0.00  0.00    -0.050 Br
ENDBRANCH   3  10
BRANCH   5  17
ATOM     17  N   UNL     1      -6.827  -1.935  -3.094  0.00  0.00    -0.329 N 
ATOM     18  H   UNL     1      -6.781  -1.709  -4.036  0.00  0.00    +0.145 HD
ATOM     19  H   UNL     1      -7.674  -1.883  -2.624  0.00  0.00    +0.145 HD
ENDBRANCH   5  17
BRANCH   4  20
ATOM     20  C   UNL     1      -4.582  -1.992  -4.524  0.00  0.00    +0.101 C 
ATOM     21  N   UNL     1      -4.604  -1.688  -5.619  0.00  0.00    -0.191 NA
ENDBRANCH   4  20
BRANCH   1  22
ATOM     22  C   UNL     1      -1.413  -2.063   0.004  0.00  0.00    +0.057 C 
BRANCH  22  23
ATOM     23  C   UNL     1      -1.433  -0.534   0.013  0.00  0.00    +0.006 C 
BRANCH  23  25
ATOM     24  C   UNL     1      -0.019   1.526   0.010  0.00  0.00    +0.004 C 
ATOM     25  C   UNL     1       0.002  -0.004   0.002  0.00  0.00    -0.003 C 
ENDBRANCH  23  25
ENDBRANCH  22  23
ENDBRANCH   1  22
TORSDOF 6
