REMARK  Name = ZINC39685849
REMARK  14 active torsions:
REMARK  status: ('A' for Active; 'I' for Inactive)
REMARK    1  A    between atoms: C_1  and  C_2
REMARK    2  A    between atoms: C_4  and  C_7
REMARK    3  A    between atoms: C_8  and  C_13
REMARK    4  A    between atoms: C_9  and  C_12
REMARK    5  A    between atoms: C_17  and  C_26
REMARK    6  A    between atoms: N_28  and  C_29
REMARK    7  A    between atoms: C_29  and  C_31
REMARK    8  A    between atoms: C_29  and  C_34
REMARK    9  A    between atoms: C_31  and  C_32
REMARK   10  A    between atoms: C_31  and  C_33
REMARK   11  A    between atoms: N_36  and  C_37
REMARK   12  A    between atoms: C_37  and  C_38
REMARK   13  A    between atoms: C_37  and  C_39
REMARK   14  A    between atoms: C_37  and  C_40
REMARK                            x       y       z     vdW  Elec       q    Type
REMARK                         _______ _______ _______ _____ _____    ______ ____
ROOT
ATOM      1  C   UNL     1      -3.079  -3.693  -1.939  0.00  0.00    +0.252 C 
ATOM      2  O   UNL     1      -3.405  -3.857  -0.779  0.00  0.00    -0.270 OA
ATOM      3  N   UNL     1      -1.968  -4.288  -2.418  0.00  0.00    -0.296 N 
ATOM      4  C   UNL     1      -1.412  -4.204  -3.788  0.00  0.00    +0.121 C 
ATOM      5  C   UNL     1       0.118  -4.125  -3.584  0.00  0.00    +0.100 C 
ATOM      6  C   UNL     1       0.364  -4.766  -2.208  0.00  0.00    -0.004 C 
ATOM      7  C   UNL     1      -1.024  -5.170  -1.690  0.00  0.00    +0.115 C 
ATOM      8  C   UNL     1       0.999  -3.753  -1.260  0.00  0.00    -0.010 C 
ATOM      9  C   UNL     1       1.286  -4.430   0.084  0.00  0.00    -0.082 C 
ATOM     10  N   UNL     1       2.187  -5.570  -0.123  0.00  0.00    +0.379 N 
ATOM     11  C   UNL     1       1.532  -6.581  -0.961  0.00  0.00    -0.082 C 
ATOM     12  C   UNL     1       1.255  -5.996  -2.348  0.00  0.00    -0.010 C 
ATOM     13  H   UNL     1       3.030  -5.253  -0.578  0.00  0.00    -0.086 HD
ATOM     14  H   UNL     1       2.423  -5.976   0.770  0.00  0.00    -0.086 HD
ENDROOT
BRANCH   1  16
ATOM     15  C   UNL     1      -3.751  -1.480  -3.018  0.00  0.00    +0.201 A 
ATOM     16  C   UNL     1      -3.898  -2.845  -2.821  0.00  0.00    +0.108 A 
ATOM     17  C   UNL     1      -4.983  -3.272  -3.627  0.00  0.00    +0.093 A 
ATOM     18  N   UNL     1      -5.450  -2.237  -4.259  0.00  0.00    -0.082 NA
ATOM     19  O   UNL     1      -4.698  -1.098  -3.891  0.00  0.00    -0.352 OA
ATOM     20  C   UNL     1      -5.505  -4.682  -3.732  0.00  0.00    +0.070 C 
BRANCH  15  24
ATOM     21  C   UNL     1      -1.073   2.634  -1.735  0.00  0.00    +0.089 C 
ATOM     22  C   UNL     1      -1.573   1.216  -1.826  0.00  0.00    +0.135 A 
ATOM     23  C   UNL     1      -2.600   0.789  -2.582  0.00  0.00    +0.079 A 
ATOM     24  C   UNL     1      -2.743  -0.606  -2.381  0.00  0.00    +0.152 A 
ATOM     25  N   UNL     1      -1.820  -0.984  -1.528  0.00  0.00    -0.075 NA
ATOM     26  O   UNL     1      -1.066   0.160  -1.170  0.00  0.00    -0.359 OA
ENDBRANCH  15  24
ENDBRANCH   1  16
BRANCH   5  27
ATOM     27  C   UNL     1       0.575  -2.689  -3.586  0.00  0.00    +0.219 C 
ATOM     28  O   UNL     1       0.012  -1.873  -2.887  0.00  0.00    -0.275 OA
ATOM     29  N   UNL     1       1.608  -2.312  -4.365  0.00  0.00    -0.303 N 
ATOM     30  H   UNL     1       2.060  -2.965  -4.921  0.00  0.00    +0.149 HD
BRANCH  29  31
ATOM     31  C   UNL     1       2.049  -0.914  -4.370  0.00  0.00    +0.161 C 
BRANCH  31  32
ATOM     32  C   UNL     1       1.925  -0.354  -5.764  0.00  0.00    +0.234 C 
ATOM     33  O   UNL     1       1.837  -1.103  -6.713  0.00  0.00    -0.274 OA
ATOM     34  N   UNL     1       1.911   0.980  -5.955  0.00  0.00    -0.309 N 
ATOM     35  H   UNL     1       2.039   1.579  -5.202  0.00  0.00    +0.149 HD
BRANCH  34  36
ATOM     36  C   UNL     1       1.703   1.526  -7.298  0.00  0.00    +0.026 C 
ATOM     37  C   UNL     1       0.346   1.062  -7.832  0.00  0.00    +0.031 C 
ATOM     38  C   UNL     1       1.732   3.054  -7.238  0.00  0.00    +0.031 C 
ATOM     39  C   UNL     1       2.813   1.030  -8.227  0.00  0.00    +0.031 C 
ENDBRANCH  34  36
ENDBRANCH  31  32
BRANCH  31  40
ATOM     40  C   UNL     1       3.509  -0.839  -3.918  0.00  0.00    +0.012 C 
ATOM     41  C   UNL     1       3.606  -1.226  -2.442  0.00  0.00    +0.009 C 
ATOM     42  C   UNL     1       4.352  -1.802  -4.755  0.00  0.00    +0.009 C 
ENDBRANCH  31  40
ENDBRANCH  29  31
ENDBRANCH   5  27
TORSDOF 7
