REMARK  Name = ZINC38649391
REMARK  5 active torsions:
REMARK  status: ('A' for Active; 'I' for Inactive)
REMARK    1  A    between atoms: C_5  and  C_6
REMARK    2  A    between atoms: N_8  and  N_9
REMARK    3  A    between atoms: C_10  and  C_12
REMARK    4  A    between atoms: C_12  and  C_13
REMARK    5  A    between atoms: C_13  and  C_14
REMARK                            x       y       z     vdW  Elec       q    Type
REMARK                         _______ _______ _______ _____ _____    ______ ____
ROOT
ATOM      1  N   UNL     1      -1.959  -3.175  -0.039  0.00  0.00    -0.234 N 
ATOM      2  C   UNL     1      -1.724  -4.502  -0.044  0.00  0.00    +0.229 C 
ATOM      3  O   UNL     1      -0.585  -4.916  -0.033  0.00  0.00    -0.274 OA
ATOM      4  H   UNL     1      -2.870  -2.843  -0.048  0.00  0.00    +0.173 HD
ENDROOT
BRANCH   1   7
ATOM      5  C   UNL     1      -1.120  -0.947  -0.017  0.00  0.00    +0.267 C 
ATOM      6  O   UNL     1      -2.264  -0.531  -0.028  0.00  0.00    -0.268 OA
ATOM      7  N   UNL     1      -0.886  -2.274  -0.021  0.00  0.00    -0.230 N 
ATOM      8  H   UNL     1       0.026  -2.605  -0.012  0.00  0.00    +0.173 HD
BRANCH   5  13
ATOM      9  C   UNL     1      -0.017   1.373   0.010  0.00  0.00    +0.024 A 
ATOM     10  C   UNL     1       1.220   2.026   0.001  0.00  0.00    -0.036 A 
ATOM     11  C   UNL     1       2.318   1.249  -0.055  0.00  0.00    -0.006 A 
ATOM     12  S   UNL     1       1.751  -0.336   0.022  0.00  0.00    -0.088 S 
ATOM     13  C   UNL     1       0.002  -0.004   0.002  0.00  0.00    +0.076 A 
ATOM     14  C   UNL     1       3.782   1.565  -0.240  0.00  0.00    +0.043 C 
ATOM     15  C   UNL     1       4.036   3.063  -0.409  0.00  0.00    +0.005 C 
ATOM     16  C   UNL     1       4.022   3.772   0.935  0.00  0.00    +0.000 C 
ATOM     17  C   UNL     1       2.973   3.221   1.880  0.00  0.00    +0.000 C 
ATOM     18  C   UNL     1       1.654   3.921   1.538  0.00  0.00    +0.005 C 
ATOM     19  C   UNL     1       1.248   3.543   0.113  0.00  0.00    +0.036 C 
ENDBRANCH   5  13
ENDBRANCH   1   7
BRANCH   2  20
ATOM     20  C   UNL     1      -2.878  -5.471  -0.063  0.00  0.00    +0.105 C 
BRANCH  20  21
ATOM     21  C   UNL     1      -2.341  -6.904  -0.065  0.00  0.00    +0.083 C 
BRANCH  21  22
ATOM     22  C   UNL     1      -3.495  -7.872  -0.084  0.00  0.00    +0.124 C 
ATOM     23  N   UNL     1      -4.713  -7.388  -0.101  0.00  0.00    -0.161 NA
ATOM     24  C   UNL     1      -5.801  -8.165  -0.122  0.00  0.00    +0.271 C 
ATOM     25  O   UNL     1      -6.920  -7.680  -0.134  0.00  0.00    -0.268 OA
ATOM     26  C   UNL     1      -5.602  -9.649  -0.132  0.00  0.00    +0.071 C 
ATOM     27  C   UNL     1      -6.540 -10.609  -0.217  0.00  0.00    -0.042 C 
ATOM     28  C   UNL     1      -8.017 -10.335  -0.492  0.00  0.00    +0.033 C 
ATOM     29  C   UNL     1      -8.401 -11.173  -1.720  0.00  0.00    +0.004 C 
ATOM     30  C   UNL     1      -8.017 -12.635  -1.503  0.00  0.00    +0.002 C 
ATOM     31  C   UNL     1      -6.500 -12.784  -1.360  0.00  0.00    +0.019 C 
ATOM     32  C   UNL     1      -6.054 -12.050  -0.093  0.00  0.00    +0.079 C 
ATOM     33  S   UNL     1      -4.234 -11.839  -0.097  0.00  0.00    -0.097 S 
ATOM     34  C   UNL     1      -4.184 -10.065  -0.102  0.00  0.00    +0.111 C 
ATOM     35  N   UNL     1      -3.226  -9.169  -0.088  0.00  0.00    -0.227 NA
ENDBRANCH  21  22
ENDBRANCH  20  21
ENDBRANCH   2  20
TORSDOF 5
