REMARK  Name = ZINC02769262
REMARK  11 active torsions:
REMARK  status: ('A' for Active; 'I' for Inactive)
REMARK    1  A    between atoms: C_7  and  N_11
REMARK    2  A    between atoms: C_8  and  C_9
REMARK    3  A    between atoms: C_12  and  C_14
REMARK    4  A    between atoms: C_14  and  C_15
REMARK    5  A    between atoms: C_15  and  C_16
REMARK    6  A    between atoms: C_16  and  C_17
REMARK    7  A    between atoms: C_17  and  C_18
REMARK    8  A    between atoms: C_18  and  C_19
REMARK    9  A    between atoms: C_19  and  C_20
REMARK   10  A    between atoms: N_22  and  C_23
REMARK   11  A    between atoms: C_24  and  C_33
REMARK                            x       y       z     vdW  Elec       q    Type
REMARK                         _______ _______ _______ _____ _____    ______ ____
ROOT
ATOM      1  C   UNL     1       0.011   1.072   2.506  0.00  0.00    +0.000 C 
ENDROOT
BRANCH   1   2
ATOM      2  C   UNL     1      -0.729   1.579   1.267  0.00  0.00    +0.009 C 
BRANCH   2   3
ATOM      3  C   UNL     1      -0.013   1.086   0.008  0.00  0.00    +0.096 C 
BRANCH   3   5
ATOM      4  N   UNL     1      -0.288   1.272  -2.443  0.00  0.00    -0.279 N 
ATOM      5  C   UNL     1      -0.742   1.585  -1.213  0.00  0.00    +0.218 C 
ATOM      6  O   UNL     1      -1.736   2.268  -1.088  0.00  0.00    -0.275 OA
ATOM      7  H   UNL     1       0.507   0.726  -2.543  0.00  0.00    +0.155 HD
BRANCH   4  14
ATOM      8  C   UNL     1      -3.350   2.834  -8.523  0.00  0.00    +0.001 C 
ATOM      9  C   UNL     1      -1.894   3.118  -8.158  0.00  0.00    +0.005 C 
ATOM     10  C   UNL     1      -1.296   1.939  -7.398  0.00  0.00    +0.037 C 
ATOM     11  C   UNL     1      -1.525   2.115  -5.902  0.00  0.00    -0.018 A 
ATOM     12  C   UNL     1      -2.558   2.830  -5.404  0.00  0.00    -0.004 A 
ATOM     13  S   UNL     1      -2.386   2.712  -3.644  0.00  0.00    -0.077 S 
ATOM     14  C   UNL     1      -0.960   1.732  -3.568  0.00  0.00    +0.090 A 
ATOM     15  C   UNL     1      -0.649   1.524  -4.901  0.00  0.00    +0.084 A 
ATOM     16  C   UNL     1      -3.609   3.573  -6.168  0.00  0.00    +0.043 C 
ATOM     17  C   UNL     1      -4.184   2.659  -7.258  0.00  0.00    +0.005 C 
BRANCH  15  18
ATOM     18  C   UNL     1       0.494   0.750  -5.282  0.00  0.00    +0.102 C 
ATOM     19  N   UNL     1       1.401   0.136  -5.585  0.00  0.00    -0.191 NA
ENDBRANCH  15  18
ENDBRANCH   4  14
ENDBRANCH   3   5
ENDBRANCH   2   3
ENDBRANCH   1   2
BRANCH   1  20
ATOM     20  C   UNL     1      -0.705   1.566   3.765  0.00  0.00    +0.000 C 
BRANCH  20  21
ATOM     21  C   UNL     1       0.035   1.059   5.005  0.00  0.00    +0.009 C 
BRANCH  21  22
ATOM     22  C   UNL     1      -0.681   1.552   6.263  0.00  0.00    +0.096 C 
BRANCH  22  23
ATOM     23  C   UNL     1       0.048   1.053   7.484  0.00  0.00    +0.218 C 
ATOM     24  O   UNL     1       1.042   0.370   7.360  0.00  0.00    -0.275 OA
ATOM     25  N   UNL     1      -0.405   1.366   8.714  0.00  0.00    -0.279 N 
ATOM     26  H   UNL     1      -1.201   1.912   8.814  0.00  0.00    +0.155 HD
BRANCH  25  27
ATOM     27  C   UNL     1       0.266   0.906   9.839  0.00  0.00    +0.090 A 
ATOM     28  C   UNL     1      -0.039   1.124  11.173  0.00  0.00    +0.084 A 
ATOM     29  C   UNL     1       0.829   0.519  12.174  0.00  0.00    -0.018 A 
ATOM     30  C   UNL     1       1.866  -0.189  11.676  0.00  0.00    -0.004 A 
ATOM     31  S   UNL     1       1.692  -0.073   9.916  0.00  0.00    -0.077 S 
ATOM     32  C   UNL     1       2.938  -0.902  12.439  0.00  0.00    +0.043 C 
ATOM     33  C   UNL     1       2.293  -1.765  13.532  0.00  0.00    +0.005 C 
ATOM     34  C   UNL     1       2.157  -0.922  14.795  0.00  0.00    +0.001 C 
ATOM     35  C   UNL     1       1.900   0.538  14.428  0.00  0.00    +0.005 C 
ATOM     36  C   UNL     1       0.584   0.673  13.670  0.00  0.00    +0.037 C 
BRANCH  28  37
ATOM     37  C   UNL     1      -1.171   1.914  11.554  0.00  0.00    +0.102 C 
ATOM     38  N   UNL     1      -2.069   2.540  11.856  0.00  0.00    -0.191 NA
ENDBRANCH  28  37
ENDBRANCH  25  27
ENDBRANCH  22  23
ENDBRANCH  21  22
ENDBRANCH  20  21
ENDBRANCH   1  20
TORSDOF 11
