REMARK  Name = ZINC38703564
REMARK  9 active torsions:
REMARK  status: ('A' for Active; 'I' for Inactive)
REMARK    1  A    between atoms: C_1  and  C_2
REMARK    2  A    between atoms: C_2  and  C_3
REMARK    3  A    between atoms: C_3  and  C_4
REMARK    4  A    between atoms: C_4  and  S_5
REMARK    5  A    between atoms: S_5  and  C_6
REMARK    6  A    between atoms: C_12  and  C_14
REMARK    7  A    between atoms: C_16  and  C_20
REMARK    8  A    between atoms: C_22  and  C_27
REMARK    9  A    between atoms: C_25  and  O_26
REMARK                            x       y       z     vdW  Elec       q    Type
REMARK                         _______ _______ _______ _____ _____    ______ ____
ROOT
ATOM      1  C   UNL     1       1.430 -10.723  -2.328  0.00  0.00    +0.121 A 
ATOM      2  C   UNL     1       0.975 -11.751  -1.524  0.00  0.00    +0.062 A 
ATOM      3  C   UNL     1       1.364 -12.934  -2.178  0.00  0.00    +0.097 A 
ATOM      4  N   UNL     1       1.997 -12.590  -3.279  0.00  0.00    -0.173 NA
ATOM      5  N   UNL     1       2.047 -11.312  -3.396  0.00  0.00    -0.272 N 
ATOM      6  H   UNL     1       2.462 -10.835  -4.131  0.00  0.00    +0.189 HD
ENDROOT
BRANCH   1  13
ATOM      7  C   UNL     1       1.529  -4.368  -2.621  0.00  0.00    +0.160 A 
ATOM      8  N   UNL     1       0.998  -5.132  -1.678  0.00  0.00    -0.133 NA
ATOM      9  N   UNL     1       1.043  -6.391  -1.735  0.00  0.00    -0.125 NA
ATOM     10  C   UNL     1       1.625  -7.027  -2.739  0.00  0.00    +0.189 A 
ATOM     11  S   UNL     1       2.164  -5.630  -3.721  0.00  0.00    -0.024 S 
ATOM     12  N   UNL     1       1.771  -8.391  -2.969  0.00  0.00    -0.258 N 
ATOM     13  C   UNL     1       1.275  -9.280  -2.085  0.00  0.00    +0.268 C 
ATOM     14  O   UNL     1       0.700  -8.890  -1.087  0.00  0.00    -0.268 OA
ATOM     15  H   UNL     1       2.230  -8.703  -3.764  0.00  0.00    +0.157 HD
BRANCH   7  16
ATOM     16  S   UNL     1       1.588  -2.612  -2.758  0.00  0.00    -0.097 S 
BRANCH  16  17
ATOM     17  C   UNL     1       0.739  -2.027  -1.265  0.00  0.00    +0.076 C 
BRANCH  17  18
ATOM     18  C   UNL     1       0.718  -0.497  -1.257  0.00  0.00    +0.011 C 
BRANCH  18  20
ATOM     19  C   UNL     1      -0.019   1.526   0.010  0.00  0.00    +0.004 C 
ATOM     20  C   UNL     1       0.002  -0.004   0.002  0.00  0.00    -0.003 C 
ENDBRANCH  18  20
ENDBRANCH  17  18
ENDBRANCH  16  17
ENDBRANCH   7  16
ENDBRANCH   1  13
BRANCH   3  21
ATOM     21  C   UNL     1       1.107 -14.320  -1.711  0.00  0.00    +0.044 A 
ATOM     22  C   UNL     1       1.556 -15.405  -2.460  0.00  0.00    +0.017 A 
ATOM     23  C   UNL     1       1.315 -16.691  -2.021  0.00  0.00    -0.050 A 
ATOM     24  C   UNL     1       0.628 -16.907  -0.840  0.00  0.00    +0.007 A 
ATOM     25  C   UNL     1       0.178 -15.838  -0.090  0.00  0.00    +0.046 A 
ATOM     26  C   UNL     1       0.418 -14.541  -0.516  0.00  0.00    +0.126 A 
ATOM     27  C   UNL     1       1.802 -17.864  -2.832  0.00  0.00    +0.044 C 
BRANCH  26  28
ATOM     28  O   UNL     1      -0.020 -13.489   0.224  0.00  0.00    -0.506 OA
ATOM     29  H   UNL     1      -0.911 -13.191  -0.004  0.00  0.00    +0.292 HD
ENDBRANCH  26  28
ENDBRANCH   3  21
TORSDOF 7
