REMARK  Name = ZINC32772375
REMARK  7 active torsions:
REMARK  status: ('A' for Active; 'I' for Inactive)
REMARK    1  A    between atoms: C_4  and  C_7
REMARK    2  A    between atoms: C_7  and  C_9
REMARK    3  A    between atoms: C_7  and  N_28
REMARK    4  A    between atoms: C_9  and  N_10
REMARK    5  A    between atoms: C_11  and  C_13
REMARK    6  A    between atoms: N_15  and  C_22
REMARK    7  A    between atoms: C_16  and  C_19
REMARK                            x       y       z     vdW  Elec       q    Type
REMARK                         _______ _______ _______ _____ _____    ______ ____
ROOT
ATOM      1  N   UNL     1      -1.908  -4.946  -0.022  0.00  0.00    -0.312 N 
ATOM      2  C   UNL     1      -0.586  -5.210   0.014  0.00  0.00    +0.260 C 
ATOM      3  O   UNL     1      -0.198  -6.356   0.141  0.00  0.00    -0.269 OA
ATOM      4  H   UNL     1      -2.259  -3.910  -0.137  0.00  0.00    +0.149 HD
ENDROOT
BRANCH   2   5
ATOM      5  C   UNL     1       0.381  -4.118  -0.100  0.00  0.00    +0.123 C 
ATOM      6  N   UNL     1       0.082  -2.866  -0.238  0.00  0.00    -0.178 NA
ATOM      7  N   UNL     1       1.190  -2.025  -0.324  0.00  0.00    -0.212 N 
ATOM      8  C   UNL     1       2.413  -2.838  -0.235  0.00  0.00    +0.189 C 
ATOM      9  C   UNL     1       1.884  -4.277  -0.074  0.00  0.00    +0.096 C 
BRANCH   7  10
ATOM     10  C   UNL     1       1.146  -0.638  -0.476  0.00  0.00    +0.052 A 
ATOM     11  C   UNL     1      -0.078   0.016  -0.554  0.00  0.00    +0.025 A 
ATOM     12  C   UNL     1      -0.117   1.388  -0.703  0.00  0.00    +0.002 A 
ATOM     13  C   UNL     1       1.060   2.111  -0.776  0.00  0.00    +0.000 A 
ATOM     14  C   UNL     1       2.279   1.464  -0.699  0.00  0.00    +0.002 A 
ATOM     15  C   UNL     1       2.326   0.092  -0.549  0.00  0.00    +0.025 A 
ENDBRANCH   7  10
BRANCH   8  16
ATOM     16  C   UNL     1       3.228  -2.708  -1.496  0.00  0.00    +0.233 C 
ATOM     17  O   UNL     1       2.712  -2.296  -2.512  0.00  0.00    -0.274 OA
ATOM     18  N   UNL     1       4.532  -3.050  -1.493  0.00  0.00    -0.328 N 
ATOM     19  H   UNL     1       5.128  -2.955  -2.413  0.00  0.00    +0.145 HD
ATOM     20  H   UNL     1       5.001  -3.423  -0.571  0.00  0.00    +0.145 HD
ENDBRANCH   8  16
ENDBRANCH   2   5
BRANCH   1  21
ATOM     21  C   UNL     1      -2.876  -6.040   0.091  0.00  0.00    +0.094 C 
BRANCH  21  22
ATOM     22  C   UNL     1      -4.293  -5.463   0.139  0.00  0.00    -0.020 C 
BRANCH  22  26
ATOM     23  C   UNL     1      -5.188  -3.575  -3.586  0.00  0.00    +0.000 A 
ATOM     24  C   UNL     1      -4.804  -2.812  -2.499  0.00  0.00    +0.000 A 
ATOM     25  C   UNL     1      -4.514  -3.423  -1.294  0.00  0.00    +0.002 A 
ATOM     26  C   UNL     1      -4.609  -4.797  -1.175  0.00  0.00    -0.059 A 
ATOM     27  C   UNL     1      -4.987  -5.561  -2.264  0.00  0.00    +0.002 A 
ATOM     28  C   UNL     1      -5.282  -4.949  -3.468  0.00  0.00    +0.000 A 
ENDBRANCH  22  26
BRANCH  22  29
ATOM     29  N   UNL     1      -5.254  -6.547   0.383  0.00  0.00    +0.385 N 
ATOM     30  C   UNL     1      -4.956  -7.247   1.658  0.00  0.00    -0.078 C 
ATOM     31  C   UNL     1      -6.297  -7.942   2.003  0.00  0.00    -0.020 C 
ATOM     32  C   UNL     1      -7.350  -6.904   1.554  0.00  0.00    -0.020 C 
ATOM     33  C   UNL     1      -6.627  -6.016   0.525  0.00  0.00    -0.078 C 
ATOM     34  H   UNL     1      -5.171  -7.221  -0.483  0.00  0.00    -0.081 HD
ENDBRANCH  22  29
ENDBRANCH  21  22
ENDBRANCH   1  21
TORSDOF 7
