REMARK  Name = ZINC40318643
REMARK  11 active torsions:
REMARK  status: ('A' for Active; 'I' for Inactive)
REMARK    1  A    between atoms: C_3  and  C_35
REMARK    2  A    between atoms: C_5  and  O_7
REMARK    3  A    between atoms: O_7  and  C_8
REMARK    4  A    between atoms: C_8  and  C_9
REMARK    5  A    between atoms: C_9  and  C_11
REMARK    6  A    between atoms: C_9  and  O_34
REMARK    7  A    between atoms: C_11  and  N_12
REMARK    8  A    between atoms: N_12  and  C_13
REMARK    9  A    between atoms: N_12  and  C_26
REMARK   10  A    between atoms: C_13  and  C_14
REMARK   11  A    between atoms: C_17  and  C_19
REMARK                            x       y       z     vdW  Elec       q    Type
REMARK                         _______ _______ _______ _____ _____    ______ ____
ROOT
ATOM      1  N   UNL     1      -1.219  -6.545  -0.156  0.00  0.00    +0.389 N 
ATOM      2  H   UNL     1      -1.124  -7.107  -0.988  0.00  0.00    -0.081 HD
ENDROOT
BRANCH   1   3
ATOM      3  C   UNL     1      -0.435  -7.146   0.932  0.00  0.00    -0.045 C 
ATOM      4  C   UNL     1      -0.536  -8.679   0.860  0.00  0.00    +0.009 C 
ATOM      5  C   UNL     1       0.008  -9.305   2.166  0.00  0.00    +0.164 C 
ATOM      6  S   UNL     1      -0.309  -7.988   3.409  0.00  0.00    -0.033 S 
ATOM      7  O   UNL     1       0.932  -7.536   3.932  0.00  0.00    -0.174 OA
ATOM      8  O   UNL     1      -1.324  -8.429   4.301  0.00  0.00    -0.174 OA
ATOM      9  C   UNL     1      -1.004  -6.687   2.305  0.00  0.00    +0.151 C 
ENDBRANCH   1   3
BRANCH   1  10
ATOM     10  C   UNL     1      -0.727  -5.188  -0.422  0.00  0.00    -0.043 C 
BRANCH  10  11
ATOM     11  C   UNL     1       0.695  -5.262  -0.984  0.00  0.00    +0.135 C 
BRANCH  11  12
ATOM     12  O   UNL     1       0.687  -6.011  -2.201  0.00  0.00    -0.390 OA
ATOM     13  H   UNL     1       0.126  -5.633  -2.892  0.00  0.00    +0.210 HD
ENDBRANCH  11  12
BRANCH  11  14
ATOM     14  C   UNL     1       1.209  -3.847  -1.259  0.00  0.00    +0.258 C 
BRANCH  14  15
ATOM     15  O   UNL     1       2.575  -3.909  -1.674  0.00  0.00    -0.489 OA
BRANCH  15  20
ATOM     16  C   UNL     1       3.101  -0.334  -2.132  0.00  0.00    +0.004 A 
ATOM     17  C   UNL     1       4.419  -0.308  -2.539  0.00  0.00    +0.011 A 
ATOM     18  C   UNL     1       5.135  -1.503  -2.659  0.00  0.00    +0.018 A 
ATOM     19  C   UNL     1       4.510  -2.718  -2.366  0.00  0.00    +0.056 A 
ATOM     20  C   UNL     1       3.187  -2.730  -1.959  0.00  0.00    +0.121 A 
ATOM     21  C   UNL     1       2.485  -1.537  -1.843  0.00  0.00    +0.046 A 
BRANCH  18  22
ATOM     22  C   UNL     1       6.541  -1.481  -3.093  0.00  0.00    +0.258 C 
ATOM     23  O   UNL     1       7.081  -0.425  -3.347  0.00  0.00    -0.296 OA
ENDBRANCH  18  22
ENDBRANCH  15  20
ENDBRANCH  14  15
ENDBRANCH  11  14
ENDBRANCH  10  11
ENDBRANCH   1  10
BRANCH   1  24
ATOM     24  C   UNL     1      -2.634  -6.485   0.236  0.00  0.00    -0.003 C 
BRANCH  24  25
ATOM     25  C   UNL     1      -3.177  -7.884   0.375  0.00  0.00    +0.089 A 
ATOM     26  C   UNL     1      -3.544  -8.473   1.530  0.00  0.00    +0.043 A 
ATOM     27  C   UNL     1      -3.991  -9.770   1.207  0.00  0.00    +0.050 A 
ATOM     28  C   UNL     1      -3.870  -9.902  -0.140  0.00  0.00    +0.135 A 
ATOM     29  O   UNL     1      -3.380  -8.749  -0.632  0.00  0.00    -0.462 OA
BRANCH  28  30
ATOM     30  C   UNL     1      -4.221 -11.102  -0.929  0.00  0.00    +0.019 A 
ATOM     31  C   UNL     1      -4.733 -12.235  -0.292  0.00  0.00    +0.011 A 
ATOM     32  C   UNL     1      -5.059 -13.351  -1.034  0.00  0.00    +0.002 A 
ATOM     33  C   UNL     1      -4.879 -13.352  -2.405  0.00  0.00    +0.020 A 
ATOM     34  C   UNL     1      -4.371 -12.233  -3.043  0.00  0.00    +0.042 A 
ATOM     35  C   UNL     1      -4.048 -11.106  -2.313  0.00  0.00    +0.031 A 
ATOM     36 CL   UNL     1      -4.149 -12.243  -4.765  0.00  0.00    -0.084 Cl
ENDBRANCH  28  30
ENDBRANCH  24  25
ENDBRANCH   1  24
TORSDOF 11
