REMARK  Name = ZINC09491073
REMARK  4 active torsions:
REMARK  status: ('A' for Active; 'I' for Inactive)
REMARK    1  A    between atoms: C_3  and  N_17
REMARK    2  A    between atoms: C_6  and  C_7
REMARK    3  A    between atoms: C_18  and  C_20
REMARK    4  A    between atoms: N_22  and  C_27
REMARK                            x       y       z     vdW  Elec       q    Type
REMARK                         _______ _______ _______ _____ _____    ______ ____
ROOT
ATOM      1  N   UNL     1      -2.427   1.042   0.019  0.00  0.00    -0.280 N 
ATOM      2  C   UNL     1      -2.465  -0.215   0.506  0.00  0.00    +0.264 C 
ATOM      3  O   UNL     1      -1.476  -0.696   1.026  0.00  0.00    -0.268 OA
ATOM      4  H   UNL     1      -3.235   1.452  -0.326  0.00  0.00    +0.155 HD
ENDROOT
BRANCH   2   5
ATOM      5  C   UNL     1      -3.698  -1.002   0.408  0.00  0.00    +0.122 C 
ATOM      6  N   UNL     1      -4.748  -0.481  -0.149  0.00  0.00    -0.177 NA
ATOM      7  N   UNL     1      -5.941  -1.202  -0.258  0.00  0.00    -0.188 N 
ATOM      8  C   UNL     1      -6.165  -2.275   0.526  0.00  0.00    +0.235 C 
ATOM      9  O   UNL     1      -7.203  -2.893   0.430  0.00  0.00    -0.274 OA
ATOM     10  C   UNL     1      -5.118  -2.704   1.522  0.00  0.00    +0.104 C 
ATOM     11  C   UNL     1      -3.727  -2.407   0.949  0.00  0.00    +0.071 C 
BRANCH   7  12
ATOM     12  C   UNL     1      -6.956  -0.787  -1.230  0.00  0.00    +0.124 C 
ATOM     13  C   UNL     1      -6.355  -0.802  -2.646  0.00  0.00    +0.049 C 
ATOM     14  C   UNL     1      -7.300  -0.069  -3.628  0.00  0.00    +0.168 C 
ATOM     15  S   UNL     1      -8.158   1.139  -2.538  0.00  0.00    -0.029 S 
ATOM     16  O   UNL     1      -9.547   0.840  -2.519  0.00  0.00    -0.174 OA
ATOM     17  O   UNL     1      -7.730   2.452  -2.873  0.00  0.00    -0.174 OA
ATOM     18  C   UNL     1      -7.421   0.664  -0.917  0.00  0.00    +0.190 C 
ENDBRANCH   7  12
ENDBRANCH   2   5
BRANCH   1  21
ATOM     19  C   UNL     1       1.166   1.790  -0.189  0.00  0.00    +0.006 A 
ATOM     20  C   UNL     1      -0.021   1.083  -0.177  0.00  0.00    +0.023 A 
ATOM     21  C   UNL     1      -1.223   1.753   0.012  0.00  0.00    +0.034 A 
ATOM     22  C   UNL     1      -1.226   3.129   0.201  0.00  0.00    +0.023 A 
ATOM     23  C   UNL     1      -0.036   3.829   0.187  0.00  0.00    +0.006 A 
ATOM     24  C   UNL     1       1.159   3.160  -0.007  0.00  0.00    -0.041 A 
BRANCH  24  25
ATOM     25  C   UNL     1       2.456   3.928  -0.021  0.00  0.00    -0.003 C 
ATOM     26  C   UNL     1       3.147   3.737  -1.372  0.00  0.00    +0.015 C 
ATOM     27  C   UNL     1       4.464   4.516  -1.386  0.00  0.00    -0.010 C 
ATOM     28  C   UNL     1       4.180   6.003  -1.164  0.00  0.00    +0.007 C 
ATOM     29  C   UNL     1       3.488   6.193   0.188  0.00  0.00    -0.010 C 
ATOM     30  C   UNL     1       2.171   5.415   0.201  0.00  0.00    +0.015 C 
ATOM     31  C   UNL     1       4.398   5.676   1.304  0.00  0.00    +0.007 C 
ATOM     32  C   UNL     1       4.683   4.189   1.082  0.00  0.00    -0.010 C 
ATOM     33  C   UNL     1       5.374   3.998  -0.270  0.00  0.00    +0.007 C 
ATOM     34  C   UNL     1       3.366   3.410   1.095  0.00  0.00    +0.015 C 
ENDBRANCH  24  25
ENDBRANCH   1  21
TORSDOF 4
