REMARK  Name = ZINC21985865
REMARK  10 active torsions:
REMARK  status: ('A' for Active; 'I' for Inactive)
REMARK    1  A    between atoms: C_1  and  C_2
REMARK    2  A    between atoms: C_5  and  C_9
REMARK    3  A    between atoms: C_7  and  C_8
REMARK    4  A    between atoms: C_18  and  C_32
REMARK    5  A    between atoms: C_21  and  C_24
REMARK    6  A    between atoms: C_27  and  C_31
REMARK    7  A    between atoms: C_28  and  C_30
REMARK    8  A    between atoms: C_32  and  C_34
REMARK    9  A    between atoms: C_32  and  O_36
REMARK   10  A    between atoms: C_34  and  O_35
REMARK                            x       y       z     vdW  Elec       q    Type
REMARK                         _______ _______ _______ _____ _____    ______ ____
ROOT
ATOM      1  C   UNL     1       2.490   1.047  -0.016  0.00  0.00    +0.282 C 
ATOM      2  O   UNL     1       2.567   0.234  -1.190  0.00  0.00    -0.345 OA
ATOM      3  C   UNL     1       3.795  -0.490  -1.308  0.00  0.00    +0.197 C 
ATOM      4  C   UNL     1       4.962   0.502  -1.309  0.00  0.00    +0.179 C 
ATOM      5  C   UNL     1       4.861   1.391  -0.064  0.00  0.00    +0.184 C 
ATOM      6  O   UNL     1       3.564   1.991  -0.021  0.00  0.00    -0.339 OA
ATOM      7  C   UNL     1       5.060   0.525   1.184  0.00  0.00    +0.184 C 
ATOM      8  O   UNL     1       6.291  -0.195   1.062  0.00  0.00    -0.339 OA
ATOM      9  C   UNL     1       6.358  -1.025  -0.100  0.00  0.00    +0.283 C 
ATOM     10  O   UNL     1       6.196  -0.220  -1.270  0.00  0.00    -0.339 OA
ENDROOT
BRANCH   1  15
ATOM     11  C   UNL     1      -2.553   3.868   0.047  0.00  0.00    +0.044 C 
ATOM     12  C   UNL     1      -1.238   3.133   0.030  0.00  0.00    -0.048 A 
ATOM     13  C   UNL     1      -0.050   3.840   0.023  0.00  0.00    +0.004 A 
ATOM     14  C   UNL     1       1.156   3.166   0.008  0.00  0.00    +0.009 A 
ATOM     15  C   UNL     1       1.175   1.783   0.000  0.00  0.00    +0.008 A 
ATOM     16  C   UNL     1      -0.013   1.076   0.008  0.00  0.00    +0.012 A 
ATOM     17  C   UNL     1      -1.219   1.751   0.017  0.00  0.00    -0.047 A 
ATOM     18  C   UNL     1      -2.514   0.980   0.019  0.00  0.00    +0.044 C 
ENDBRANCH   1  15
BRANCH   9  19
ATOM     19  C   UNL     1       7.697  -1.716  -0.147  0.00  0.00    +0.008 A 
ATOM     20  C   UNL     1       8.630  -1.484   0.848  0.00  0.00    +0.009 A 
ATOM     21  C   UNL     1       9.856  -2.121   0.807  0.00  0.00    +0.004 A 
ATOM     22  C   UNL     1      10.153  -2.982  -0.233  0.00  0.00    -0.048 A 
ATOM     23  C   UNL     1       9.223  -3.210  -1.229  0.00  0.00    -0.047 A 
ATOM     24  C   UNL     1       7.995  -2.576  -1.186  0.00  0.00    +0.012 A 
ATOM     25  C   UNL     1       9.548  -4.148  -2.363  0.00  0.00    +0.044 C 
ATOM     26  C   UNL     1      11.492  -3.672  -0.280  0.00  0.00    +0.044 C 
ENDBRANCH   9  19
BRANCH   7  27
ATOM     27  C   UNL     1       5.111   1.419   2.425  0.00  0.00    +0.171 C 
BRANCH  27  28
ATOM     28  O   UNL     1       3.885   2.144   2.539  0.00  0.00    -0.387 OA
ATOM     29  H   UNL     1       3.736   2.843   3.376  0.00  0.00    +0.210 HD
ENDBRANCH  27  28
BRANCH  27  30
ATOM     30  C   UNL     1       5.309   0.553   3.670  0.00  0.00    +0.189 C 
BRANCH  30  31
ATOM     31  O   UNL     1       5.473   1.393   4.814  0.00  0.00    -0.392 OA
ATOM     32  H   UNL     1       5.629   0.947   5.807  0.00  0.00    +0.210 HD
ENDBRANCH  30  31
ENDBRANCH  27  30
ENDBRANCH   7  27
TORSDOF 6
