REMARK  Name = ZINC08869324
REMARK  6 active torsions:
REMARK  status: ('A' for Active; 'I' for Inactive)
REMARK    1  A    between atoms: C_1  and  C_2
REMARK    2  A    between atoms: C_11  and  C_13
REMARK    3  A    between atoms: N_15  and  C_16
REMARK    4  A    between atoms: C_17  and  C_25
REMARK    5  A    between atoms: N_27  and  C_28
REMARK    6  A    between atoms: C_28  and  C_29
REMARK                            x       y       z     vdW  Elec       q    Type
REMARK                         _______ _______ _______ _____ _____    ______ ____
ROOT
ATOM      1  C   UNL     1      -0.340   6.402  -2.782  0.00  0.00    +0.085 A 
ATOM      2  C   UNL     1      -1.364   5.665  -2.202  0.00  0.00    +0.069 A 
ATOM      3  C   UNL     1      -2.447   6.400  -1.573  0.00  0.00    -0.023 A 
ATOM      4  C   UNL     1      -2.338   7.746  -1.629  0.00  0.00    -0.004 A 
ATOM      5  S   UNL     1      -0.825   8.041  -2.499  0.00  0.00    -0.077 S 
ATOM      6  C   UNL     1      -3.296   8.753  -1.072  0.00  0.00    +0.043 C 
ATOM      7  C   UNL     1      -4.617   8.039  -0.751  0.00  0.00    +0.005 C 
ATOM      8  C   UNL     1      -4.308   6.759   0.030  0.00  0.00    +0.005 C 
ATOM      9  C   UNL     1      -3.637   5.737  -0.890  0.00  0.00    +0.037 C 
ENDROOT
BRANCH   1  12
ATOM     10  C   UNL     1       1.685   6.814  -3.934  0.00  0.00    +0.284 C 
ATOM     11  O   UNL     1       1.496   8.009  -3.819  0.00  0.00    -0.266 OA
ATOM     12  N   UNL     1       0.792   5.939  -3.430  0.00  0.00    -0.273 N 
ATOM     13  H   UNL     1       0.943   4.986  -3.522  0.00  0.00    +0.156 HD
BRANCH  10  24
ATOM     14  C   UNL     1       7.554   2.726  -7.303  0.00  0.00    +0.044 C 
ATOM     15  C   UNL     1       6.361   3.342  -6.619  0.00  0.00    -0.050 A 
ATOM     16  C   UNL     1       5.385   2.524  -6.067  0.00  0.00    +0.007 A 
ATOM     17  C   UNL     1       4.285   3.066  -5.438  0.00  0.00    +0.047 A 
ATOM     18  C   UNL     1       4.147   4.448  -5.352  0.00  0.00    +0.139 A 
ATOM     19  C   UNL     1       5.140   5.269  -5.913  0.00  0.00    +0.064 A 
ATOM     20  C   UNL     1       6.246   4.702  -6.546  0.00  0.00    +0.018 A 
ATOM     21  C   UNL     1       4.980   6.732  -5.813  0.00  0.00    +0.193 A 
ATOM     22  O   UNL     1       5.805   7.498  -6.279  0.00  0.00    -0.287 OA
ATOM     23  C   UNL     1       3.777   7.222  -5.124  0.00  0.00    +0.103 A 
ATOM     24  C   UNL     1       2.897   6.320  -4.628  0.00  0.00    +0.194 A 
ATOM     25  O   UNL     1       3.082   4.996  -4.735  0.00  0.00    -0.450 OA
ENDBRANCH  10  24
ENDBRANCH   1  12
BRANCH   2  26
ATOM     26  C   UNL     1      -1.349   4.199  -2.219  0.00  0.00    +0.247 C 
ATOM     27  O   UNL     1      -1.870   3.596  -3.139  0.00  0.00    -0.270 OA
ATOM     28  N   UNL     1      -0.759   3.519  -1.216  0.00  0.00    -0.309 N 
ATOM     29  H   UNL     1      -0.344   4.000  -0.483  0.00  0.00    +0.149 HD
BRANCH  28  30
ATOM     30  C   UNL     1      -0.745   2.054  -1.233  0.00  0.00    +0.136 C 
BRANCH  30  31
ATOM     31  C   UNL     1      -0.019   1.537   0.011  0.00  0.00    +0.135 C 
ATOM     32  C   UNL     1       0.002  -0.004   0.002  0.00  0.00    +0.035 C 
ATOM     33  C   UNL     1       1.508  -0.363   0.039  0.00  0.00    +0.031 C 
ATOM     34  C   UNL     1       2.138   0.935   0.603  0.00  0.00    +0.160 C 
ATOM     35  O   UNL     1       1.348   1.983  -0.000  0.00  0.00    -0.375 OA
ENDBRANCH  30  31
ENDBRANCH  28  30
ENDBRANCH   2  26
TORSDOF 5
