REMARK  Name = ZINC17086672
REMARK  12 active torsions:
REMARK  status: ('A' for Active; 'I' for Inactive)
REMARK    1  A    between atoms: C_1  and  C_2
REMARK    2  A    between atoms: C_5  and  C_9
REMARK    3  A    between atoms: C_6  and  C_8
REMARK    4  A    between atoms: C_9  and  C_11
REMARK    5  A    between atoms: C_11  and  C_12
REMARK    6  A    between atoms: C_12  and  O_34
REMARK    7  A    between atoms: N_19  and  C_22
REMARK    8  A    between atoms: C_22  and  C_23
REMARK    9  A    between atoms: C_26  and  O_31
REMARK   10  A    between atoms: C_27  and  O_29
REMARK   11  A    between atoms: O_29  and  C_30
REMARK   12  A    between atoms: O_31  and  C_32
REMARK                            x       y       z     vdW  Elec       q    Type
REMARK                         _______ _______ _______ _____ _____    ______ ____
ROOT
ATOM      1  C   UNL     1      -2.362   0.870  -0.959  0.00  0.00    +0.175 C 
ATOM      2  C   UNL     1      -3.692   1.564  -1.147  0.00  0.00    +0.016 A 
ATOM      3  C   UNL     1      -4.153   2.468  -2.077  0.00  0.00    +0.024 A 
ATOM      4  C   UNL     1      -5.451   2.943  -1.994  0.00  0.00    +0.018 A 
ATOM      5  C   UNL     1      -6.279   2.507  -0.976  0.00  0.00    +0.017 A 
ATOM      6  C   UNL     1      -5.818   1.598  -0.035  0.00  0.00    +0.025 A 
ATOM      7  C   UNL     1      -4.513   1.116  -0.116  0.00  0.00    +0.043 A 
ATOM      8  N   UNL     1      -3.824   0.210   0.692  0.00  0.00    -0.264 N 
ATOM      9  C   UNL     1      -2.563   0.009   0.271  0.00  0.00    +0.257 C 
ATOM     10  O   UNL     1      -1.741  -0.723   0.780  0.00  0.00    -0.272 OA
ATOM     11 BR   UNL     1      -6.089   4.186  -3.269  0.00  0.00    -0.050 Br
ENDROOT
BRANCH   1  12
ATOM     12  O   UNL     1      -2.057   0.057  -2.094  0.00  0.00    -0.374 OA
ATOM     13  H   UNL     1      -1.228  -0.434  -2.014  0.00  0.00    +0.211 HD
ENDBRANCH   1  12
BRANCH   1  14
ATOM     14  C   UNL     1      -1.252   1.895  -0.721  0.00  0.00    +0.129 C 
BRANCH  14  15
ATOM     15  C   UNL     1       0.053   1.176  -0.490  0.00  0.00    +0.167 C 
ATOM     16  O   UNL     1       0.091  -0.035  -0.514  0.00  0.00    -0.292 OA
BRANCH  15  21
ATOM     17  C   UNL     1       4.857   4.182   0.478  0.00  0.00    +0.044 C 
ATOM     18  C   UNL     1       3.597   3.394   0.225  0.00  0.00    -0.050 A 
ATOM     19  C   UNL     1       2.425   4.055  -0.098  0.00  0.00    +0.004 A 
ATOM     20  C   UNL     1       1.270   3.341  -0.338  0.00  0.00    +0.012 A 
ATOM     21  C   UNL     1       1.283   1.946  -0.242  0.00  0.00    +0.020 A 
ATOM     22  C   UNL     1       2.471   1.286   0.085  0.00  0.00    -0.040 A 
ATOM     23  C   UNL     1       3.619   2.014   0.316  0.00  0.00    +0.007 A 
ATOM     24  C   UNL     1       2.497  -0.218   0.185  0.00  0.00    +0.044 C 
ENDBRANCH  15  21
ENDBRANCH  14  15
ENDBRANCH   1  14
BRANCH   8  25
ATOM     25  C   UNL     1      -4.407  -0.447   1.864  0.00  0.00    +0.149 C 
BRANCH  25  26
ATOM     26  C   UNL     1      -4.162   0.399   3.087  0.00  0.00    -0.026 A 
ATOM     27  C   UNL     1      -3.019   0.205   3.842  0.00  0.00    +0.009 A 
ATOM     28  C   UNL     1      -2.787   0.982   4.961  0.00  0.00    +0.050 A 
ATOM     29  C   UNL     1      -3.706   1.949   5.336  0.00  0.00    +0.162 A 
ATOM     30  C   UNL     1      -4.858   2.140   4.580  0.00  0.00    +0.162 A 
ATOM     31  C   UNL     1      -5.082   1.362   3.456  0.00  0.00    +0.054 A 
BRANCH  30  32
ATOM     32  O   UNL     1      -5.763   3.087   4.945  0.00  0.00    -0.491 OA
ATOM     33  C   UNL     1      -6.923   3.227   4.122  0.00  0.00    +0.277 C 
ENDBRANCH  30  32
BRANCH  29  34
ATOM     34  O   UNL     1      -3.482   2.710   6.441  0.00  0.00    -0.491 OA
ATOM     35  C   UNL     1      -2.277   2.459   7.168  0.00  0.00    +0.277 C 
ENDBRANCH  29  34
ENDBRANCH  25  26
ENDBRANCH   8  25
TORSDOF 8
