REMARK  Name = ZINC45520751
REMARK  3 active torsions:
REMARK  status: ('A' for Active; 'I' for Inactive)
REMARK    1  A    between atoms: N_7  and  N_8
REMARK    2  A    between atoms: C_9  and  C_11
REMARK    3  A    between atoms: C_17  and  C_19
REMARK                            x       y       z     vdW  Elec       q    Type
REMARK                         _______ _______ _______ _____ _____    ______ ____
ROOT
ATOM      1  C   UNL     1       4.820  -3.808  -0.950  0.00  0.00    +0.079 C 
ATOM      2  C   UNL     1       3.982  -4.612  -1.946  0.00  0.00    +0.032 C 
ATOM      3  C   UNL     1       3.972  -6.085  -1.527  0.00  0.00    +0.109 C 
ATOM      4  N   UNL     1       5.360  -6.549  -1.394  0.00  0.00    -0.297 N 
ATOM      5  C   UNL     1       6.277  -5.793  -0.529  0.00  0.00    +0.109 C 
ATOM      6  C   UNL     1       6.261  -4.323  -0.960  0.00  0.00    +0.032 C 
ATOM      7  C   UNL     1       5.784  -7.646  -2.051  0.00  0.00    +0.247 C 
ATOM      8  O   UNL     1       4.999  -8.302  -2.708  0.00  0.00    -0.270 OA
ENDROOT
BRANCH   7   9
ATOM      9  C   UNL     1       7.203  -8.052  -1.974  0.00  0.00    +0.037 A 
ATOM     10  C   UNL     1       7.831  -8.172  -0.733  0.00  0.00    +0.014 A 
ATOM     11  C   UNL     1       9.156  -8.551  -0.667  0.00  0.00    +0.016 A 
ATOM     12  C   UNL     1       9.863  -8.812  -1.829  0.00  0.00    +0.018 A 
ATOM     13  C   UNL     1       9.245  -8.694  -3.063  0.00  0.00    +0.016 A 
ATOM     14  C   UNL     1       7.920  -8.322  -3.141  0.00  0.00    +0.014 A 
ATOM     15 BR   UNL     1      11.678  -9.330  -1.730  0.00  0.00    -0.050 Br
ENDBRANCH   7   9
BRANCH   1  17
ATOM     16  N   UNL     1       3.636  -1.683  -1.399  0.00  0.00    -0.234 N 
ATOM     17  C   UNL     1       4.804  -2.352  -1.340  0.00  0.00    +0.232 C 
ATOM     18  O   UNL     1       5.843  -1.783  -1.600  0.00  0.00    -0.274 OA
ATOM     19  H   UNL     1       2.805  -2.139  -1.191  0.00  0.00    +0.173 HD
BRANCH  16  26
ATOM     20  C   UNL     1       0.101   1.686  -1.942  0.00  0.00    +0.039 A 
ATOM     21  C   UNL     1       1.297   2.322  -2.236  0.00  0.00    +0.116 A 
ATOM     22  N   UNL     1       2.426   1.636  -2.168  0.00  0.00    -0.222 NA
ATOM     23  C   UNL     1       2.422   0.357  -1.823  0.00  0.00    +0.232 A 
ATOM     24  N   UNL     1       1.296  -0.280  -1.536  0.00  0.00    -0.222 NA
ATOM     25  C   UNL     1       0.133   0.347  -1.585  0.00  0.00    +0.116 A 
ATOM     26  N   UNL     1       3.622  -0.330  -1.762  0.00  0.00    -0.233 N 
ATOM     27  H   UNL     1       4.452   0.125  -1.970  0.00  0.00    +0.173 HD
ENDBRANCH  16  26
ENDBRANCH   1  17
TORSDOF 3
