REMARK  Name = ZINC01338030
REMARK  11 active torsions:
REMARK  status: ('A' for Active; 'I' for Inactive)
REMARK    1  A    between atoms: C_1  and  C_2
REMARK    2  A    between atoms: C_2  and  C_3
REMARK    3  A    between atoms: C_3  and  C_4
REMARK    4  A    between atoms: C_4  and  C_6
REMARK    5  A    between atoms: C_4  and  N_19
REMARK    6  A    between atoms: N_10  and  C_11
REMARK    7  A    between atoms: C_11  and  C_12
REMARK    8  A    between atoms: N_19  and  C_20
REMARK    9  A    between atoms: N_19  and  C_26
REMARK   10  A    between atoms: C_20  and  C_21
REMARK   11  A    between atoms: C_26  and  C_27
REMARK                            x       y       z     vdW  Elec       q    Type
REMARK                         _______ _______ _______ _____ _____    ______ ____
ROOT
ATOM      1  N   UNL     1      -0.575  -2.601   1.559  0.00  0.00    -0.284 NA
ENDROOT
BRANCH   1   2
ATOM      2  C   UNL     1       0.845  -2.420   1.228  0.00  0.00    +0.127 C 
BRANCH   2   3
ATOM      3  C   UNL     1       1.263  -3.461   0.222  0.00  0.00    +0.169 A 
ATOM      4  N   UNL     1       0.973  -4.739   0.252  0.00  0.00    -0.112 NA
ATOM      5  N   UNL     1       1.510  -5.293  -0.780  0.00  0.00    -0.023 NA
ATOM      6  N   UNL     1       2.134  -4.402  -1.468  0.00  0.00    -0.044 NA
ATOM      7  N   UNL     1       2.001  -3.258  -0.885  0.00  0.00    -0.223 N 
BRANCH   7   8
ATOM      8  C   UNL     1       2.552  -1.980  -1.341  0.00  0.00    +0.182 C 
BRANCH   8   9
ATOM      9  C   UNL     1       3.926  -1.786  -0.752  0.00  0.00    -0.026 A 
ATOM     10  C   UNL     1       4.071  -1.156   0.469  0.00  0.00    +0.008 A 
ATOM     11  C   UNL     1       5.330  -0.978   1.010  0.00  0.00    +0.038 A 
ATOM     12  C   UNL     1       6.447  -1.432   0.328  0.00  0.00    +0.123 A 
ATOM     13  C   UNL     1       6.300  -2.064  -0.896  0.00  0.00    +0.038 A 
ATOM     14  C   UNL     1       5.039  -2.245  -1.432  0.00  0.00    +0.008 A 
ATOM     15  F   UNL     1       7.678  -1.259   0.856  0.00  0.00    -0.205 F 
ENDBRANCH   8   9
ENDBRANCH   7   8
ENDBRANCH   2   3
BRANCH   2  16
ATOM     16  C   UNL     1       1.687  -2.570   2.497  0.00  0.00    +0.026 C 
BRANCH  16  18
ATOM     17  C   UNL     1       2.110  -1.648   4.780  0.00  0.00    +0.004 C 
ATOM     18  C   UNL     1       1.353  -1.435   3.468  0.00  0.00    -0.001 C 
ENDBRANCH  16  18
ENDBRANCH   2  16
ENDBRANCH   1   2
BRANCH   1  19
ATOM     19  C   UNL     1      -0.848  -3.985   1.967  0.00  0.00    +0.127 C 
BRANCH  19  20
ATOM     20  C   UNL     1      -2.179  -4.048   2.671  0.00  0.00    +0.004 A 
ATOM     21  C   UNL     1      -3.398  -4.358   2.165  0.00  0.00    +0.012 A 
ATOM     22  C   UNL     1      -4.494  -4.353   3.007  0.00  0.00    +0.008 A 
ATOM     23  C   UNL     1      -4.318  -4.039   4.314  0.00  0.00    +0.045 A 
ATOM     24  S   UNL     1      -2.559  -3.742   4.388  0.00  0.00    -0.100 S 
ENDBRANCH  19  20
ENDBRANCH   1  19
BRANCH   1  25
ATOM     25  C   UNL     1      -1.432  -2.204   0.434  0.00  0.00    +0.126 C 
BRANCH  25  26
ATOM     26  C   UNL     1      -1.496  -0.701   0.357  0.00  0.00    +0.031 A 
ATOM     27  C   UNL     1      -0.691  -0.033  -0.507  0.00  0.00    +0.020 A 
ATOM     28  C   UNL     1      -0.776   1.426  -0.558  0.00  0.00    +0.003 A 
ATOM     29  C   UNL     1       0.032   2.167  -1.430  0.00  0.00    +0.059 A 
ATOM     30  C   UNL     1      -0.070   3.540  -1.456  0.00  0.00    +0.167 A 
ATOM     31  C   UNL     1      -0.979   4.196  -0.614  0.00  0.00    +0.168 A 
ATOM     32  C   UNL     1      -1.780   3.472   0.249  0.00  0.00    +0.075 A 
ATOM     33  C   UNL     1      -1.689   2.087   0.287  0.00  0.00    +0.053 A 
ATOM     34  N   UNL     1      -2.480   1.348   1.144  0.00  0.00    -0.322 N 
ATOM     35  H   UNL     1      -3.109   1.804   1.725  0.00  0.00    +0.169 HD
ATOM     36  C   UNL     1      -2.397   0.007   1.179  0.00  0.00    +0.254 A 
ATOM     37  O   UNL     1      -3.114  -0.613   1.946  0.00  0.00    -0.268 OA
ATOM     38  O   UNL     1      -0.881   5.538  -0.836  0.00  0.00    -0.453 OA
ATOM     39  C   UNL     1       0.375   5.728  -1.514  0.00  0.00    +0.466 C 
ATOM     40  O   UNL     1       0.589   4.479  -2.197  0.00  0.00    -0.453 OA
ENDBRANCH  25  26
ENDBRANCH   1  25
TORSDOF 10
