REMARK  Name = ZINC04629522
REMARK  2 active torsions:
REMARK  status: ('A' for Active; 'I' for Inactive)
REMARK    1  A    between atoms: C_7  and  N_12
REMARK    2  A    between atoms: N_12  and  C_13
REMARK                            x       y       z     vdW  Elec       q    Type
REMARK                         _______ _______ _______ _____ _____    ______ ____
ROOT
ATOM      1  C   UNL     1      -2.842  -0.675   0.026  0.00  0.00    +0.000 C 
ATOM      2  C   UNL     1      -2.144  -0.127   1.272  0.00  0.00    +0.004 C 
ATOM      3  C   UNL     1      -0.673  -0.549   1.259  0.00  0.00    +0.054 C 
ATOM      4  C   UNL     1       0.002  -0.004   0.002  0.00  0.00    +0.151 C 
ATOM      5  C   UNL     1      -0.697  -0.535  -1.247  0.00  0.00    +0.054 C 
ATOM      6  C   UNL     1      -2.168  -0.114  -1.227  0.00  0.00    +0.004 C 
ATOM      7  C   UNL     1       1.461  -0.391  -0.014  0.00  0.00    +0.055 C 
ATOM      8  C   UNL     1       2.155   0.769  -0.015  0.00  0.00    +0.114 C 
ATOM      9  C   UNL     1       1.260   1.855   0.000  0.00  0.00    +0.334 C 
ATOM     10  O   UNL     1       1.595   3.025   0.003  0.00  0.00    -0.246 OA
ATOM     11  O   UNL     1      -0.017   1.426   0.010  0.00  0.00    -0.449 OA
ENDROOT
BRANCH   7  12
ATOM     12  N   UNL     1       1.976  -1.657  -0.027  0.00  0.00    -0.339 N 
ATOM     13  H   UNL     1       1.301  -2.525  -0.026  0.00  0.00    +0.146 HD
BRANCH  12  14
ATOM     14  C   UNL     1       3.427  -1.857  -0.042  0.00  0.00    +0.093 C 
ATOM     15  C   UNL     1       3.747  -3.225  -0.666  0.00  0.00    +0.046 C 
ATOM     16  C   UNL     1       5.243  -3.547  -0.387  0.00  0.00    +0.168 C 
ATOM     17  S   UNL     1       5.397  -2.956   1.352  0.00  0.00    -0.029 S 
ATOM     18  O   UNL     1       5.145  -4.042   2.233  0.00  0.00    -0.174 OA
ATOM     19  O   UNL     1       6.601  -2.214   1.483  0.00  0.00    -0.174 OA
ATOM     20  C   UNL     1       3.969  -1.798   1.407  0.00  0.00    +0.188 C 
ENDBRANCH  12  14
ENDBRANCH   7  12
TORSDOF 2
