REMARK  Name = ZINC43673599
REMARK  6 active torsions:
REMARK  status: ('A' for Active; 'I' for Inactive)
REMARK    1  A    between atoms: C_1  and  C_2
REMARK    2  A    between atoms: C_2  and  C_3
REMARK    3  A    between atoms: C_2  and  C_4
REMARK    4  A    between atoms: N_6  and  C_7
REMARK    5  A    between atoms: C_10  and  N_13
REMARK    6  A    between atoms: C_20  and  C_23
REMARK                            x       y       z     vdW  Elec       q    Type
REMARK                         _______ _______ _______ _____ _____    ______ ____
ROOT
ATOM      1  N   UNL     1      -7.514  -1.994  -0.607  0.00  0.00    -0.269 N 
ATOM      2  C   UNL     1      -8.387  -1.750  -1.604  0.00  0.00    +0.307 C 
ATOM      3  O   UNL     1      -8.051  -1.072  -2.555  0.00  0.00    -0.252 OA
ATOM      4  N   UNL     1      -9.634  -2.259  -1.546  0.00  0.00    -0.280 N 
ATOM      5  C   UNL     1     -10.125  -2.926  -0.330  0.00  0.00    +0.137 C 
ATOM      6  C   UNL     1     -11.481  -2.317   0.042  0.00  0.00    +0.179 C 
ATOM      7  O   UNL     1     -12.344  -2.358  -1.097  0.00  0.00    -0.369 OA
ATOM      8  C   UNL     1     -11.882  -1.590  -2.211  0.00  0.00    +0.166 C 
ATOM      9  C   UNL     1     -10.547  -2.157  -2.696  0.00  0.00    +0.145 C 
ATOM     10  H   UNL     1      -7.812  -2.441   0.201  0.00  0.00    +0.156 HD
ENDROOT
BRANCH   8  11
ATOM     11  C   UNL     1     -12.895  -1.657  -3.324  0.00  0.00    -0.017 A 
ATOM     12  C   UNL     1     -13.620  -2.816  -3.530  0.00  0.00    +0.009 A 
ATOM     13  C   UNL     1     -14.550  -2.878  -4.550  0.00  0.00    +0.039 A 
ATOM     14  C   UNL     1     -14.755  -1.778  -5.367  0.00  0.00    +0.123 A 
ATOM     15  C   UNL     1     -14.029  -0.618  -5.159  0.00  0.00    +0.039 A 
ATOM     16  C   UNL     1     -13.103  -0.557  -4.135  0.00  0.00    +0.009 A 
ATOM     17  F   UNL     1     -15.664  -1.838  -6.365  0.00  0.00    -0.205 F 
ENDBRANCH   8  11
BRANCH   1  21
ATOM     18  C   UNL     1      -3.529  -0.827  -0.996  0.00  0.00    +0.034 A 
ATOM     19  C   UNL     1      -3.866  -1.872  -0.146  0.00  0.00    +0.025 A 
ATOM     20  C   UNL     1      -5.186  -2.259  -0.018  0.00  0.00    +0.025 A 
ATOM     21  C   UNL     1      -6.175  -1.602  -0.738  0.00  0.00    +0.035 A 
ATOM     22  C   UNL     1      -5.837  -0.556  -1.587  0.00  0.00    +0.025 A 
ATOM     23  C   UNL     1      -4.519  -0.166  -1.711  0.00  0.00    +0.025 A 
BRANCH  18  26
ATOM     24  C   UNL     1      -1.881   0.869  -1.276  0.00  0.00    +0.220 C 
ATOM     25  O   UNL     1      -2.762   1.703  -1.294  0.00  0.00    -0.275 OA
ATOM     26  N   UNL     1      -2.190  -0.435  -1.126  0.00  0.00    -0.285 N 
ATOM     27  H   UNL     1      -1.486  -1.101  -1.109  0.00  0.00    +0.155 HD
BRANCH  24  29
ATOM     28  C   UNL     1       0.163   0.622  -2.658  0.00  0.00    +0.017 C 
ATOM     29  C   UNL     1      -0.442   1.290  -1.421  0.00  0.00    +0.069 C 
ATOM     30  C   UNL     1      -0.368   2.810  -1.575  0.00  0.00    +0.017 C 
ENDBRANCH  24  29
ENDBRANCH  18  26
ENDBRANCH   1  21
TORSDOF 4
