REMARK  Name = ZINC20347398
REMARK  12 active torsions:
REMARK  status: ('A' for Active; 'I' for Inactive)
REMARK    1  A    between atoms: C_1  and  C_2
REMARK    2  A    between atoms: C_2  and  C_3
REMARK    3  A    between atoms: C_2  and  C_4
REMARK    4  A    between atoms: C_9  and  O_10
REMARK    5  A    between atoms: O_10  and  C_11
REMARK    6  A    between atoms: C_11  and  C_12
REMARK    7  A    between atoms: C_12  and  C_14
REMARK    8  A    between atoms: C_12  and  O_38
REMARK    9  A    between atoms: C_14  and  N_15
REMARK   10  A    between atoms: N_18  and  C_21
REMARK   11  A    between atoms: C_21  and  C_22
REMARK   12  A    between atoms: C_22  and  N_23
REMARK                            x       y       z     vdW  Elec       q    Type
REMARK                         _______ _______ _______ _____ _____    ______ ____
ROOT
ATOM      1  N   UNL     1      -0.052   1.619   0.091  0.00  0.00    -0.303 NA
ATOM      2  C   UNL     1       1.204   2.377   0.184  0.00  0.00    +0.066 C 
ATOM      3  C   UNL     1       1.913   2.025   1.494  0.00  0.00    -0.063 C 
ATOM      4  N   UNL     1       2.171   0.578   1.534  0.00  0.00    +0.382 N 
ATOM      5  C   UNL     1       0.915  -0.180   1.440  0.00  0.00    -0.063 C 
ATOM      6  C   UNL     1       0.206   0.173   0.131  0.00  0.00    +0.066 C 
ATOM      7  H   UNL     1       2.790   0.319   0.663  0.00  0.00    -0.082 HD
ENDROOT
BRANCH   1   8
ATOM      8  C   UNL     1      -0.800   1.987  -1.118  0.00  0.00    +0.119 C 
BRANCH   8   9
ATOM      9  C   UNL     1      -2.266   1.580  -0.955  0.00  0.00    +0.166 C 
BRANCH   9  10
ATOM     10  O   UNL     1      -2.841   2.301   0.137  0.00  0.00    -0.387 OA
ATOM     11  H   UNL     1      -2.422   2.196   1.148  0.00  0.00    +0.210 HD
ENDBRANCH   9  10
BRANCH   9  12
ATOM     12  C   UNL     1      -3.031   1.903  -2.240  0.00  0.00    +0.261 C 
BRANCH  12  13
ATOM     13  O   UNL     1      -4.371   1.418  -2.131  0.00  0.00    -0.489 OA
BRANCH  13  19
ATOM     14  C   UNL     1      -6.504   1.179  -3.157  0.00  0.00    -0.003 A 
ATOM     15  C   UNL     1      -7.335   1.391  -4.240  0.00  0.00    +0.007 A 
ATOM     16  C   UNL     1      -6.859   2.046  -5.361  0.00  0.00    +0.001 A 
ATOM     17  C   UNL     1      -5.550   2.490  -5.401  0.00  0.00    +0.004 A 
ATOM     18  C   UNL     1      -4.717   2.286  -4.319  0.00  0.00    +0.046 A 
ATOM     19  C   UNL     1      -5.191   1.625  -3.195  0.00  0.00    +0.124 A 
BRANCH  14  21
ATOM     20  C   UNL     1      -8.201   1.249  -1.350  0.00  0.00    +0.012 C 
ATOM     21  C   UNL     1      -7.024   0.466  -1.935  0.00  0.00    +0.016 C 
ATOM     22  C   UNL     1      -7.488  -0.939  -2.324  0.00  0.00    +0.012 C 
ENDBRANCH  14  21
ENDBRANCH  13  19
ENDBRANCH  12  13
ENDBRANCH   9  12
ENDBRANCH   8   9
ENDBRANCH   1   8
BRANCH   4  23
ATOM     23  C   UNL     1       2.919   0.210   2.743  0.00  0.00    -0.059 C 
BRANCH  23  24
ATOM     24  C   UNL     1       4.083   1.184   2.939  0.00  0.00    +0.098 C 
BRANCH  24  25
ATOM     25  N   UNL     1       4.829   0.817   4.145  0.00  0.00    -0.236 N 
ATOM     26  C   UNL     1       4.467   1.361   5.322  0.00  0.00    +0.254 C 
ATOM     27  O   UNL     1       3.535   2.141   5.367  0.00  0.00    -0.270 OA
ATOM     28  C   UNL     1       5.189   1.013   6.555  0.00  0.00    +0.046 A 
ATOM     29  C   UNL     1       4.847   1.546   7.789  0.00  0.00    +0.014 A 
ATOM     30  C   UNL     1       5.563   1.191   8.926  0.00  0.00    +0.001 A 
ATOM     31  C   UNL     1       6.612   0.318   8.867  0.00  0.00    +0.008 A 
ATOM     32  C   UNL     1       6.990  -0.245   7.636  0.00  0.00    -0.016 A 
ATOM     33  C   UNL     1       6.271   0.108   6.475  0.00  0.00    +0.006 A 
ATOM     34  C   UNL     1       6.628  -0.440   5.222  0.00  0.00    +0.046 A 
ATOM     35  C   UNL     1       7.692  -1.327   5.154  0.00  0.00    +0.014 A 
ATOM     36  C   UNL     1       8.393  -1.667   6.305  0.00  0.00    +0.001 A 
ATOM     37  C   UNL     1       8.062  -1.148   7.524  0.00  0.00    +0.008 A 
ATOM     38  C   UNL     1       5.856  -0.048   4.034  0.00  0.00    +0.254 C 
ATOM     39  O   UNL     1       6.145  -0.507   2.946  0.00  0.00    -0.270 OA
ENDBRANCH  24  25
ENDBRANCH  23  24
ENDBRANCH   4  23
TORSDOF 10
