REMARK  Name = ZINC04981527
REMARK  6 active torsions:
REMARK  status: ('A' for Active; 'I' for Inactive)
REMARK    1  A    between atoms: C_1  and  C_2
REMARK    2  A    between atoms: C_5  and  C_8
REMARK    3  A    between atoms: C_8  and  N_22
REMARK    4  A    between atoms: C_13  and  C_14
REMARK    5  A    between atoms: C_13  and  N_50
REMARK    6  A    between atoms: C_23  and  C_25
REMARK                            x       y       z     vdW  Elec       q    Type
REMARK                         _______ _______ _______ _____ _____    ______ ____
ROOT
ATOM      1  C   UNL     1      -0.715   3.118   1.284  0.00  0.00    +0.056 C 
ATOM      2  C   UNL     1      -0.492   1.617   1.483  0.00  0.00    +0.012 C 
ATOM      3  C   UNL     1       0.079   1.016   0.197  0.00  0.00    -0.076 C 
ATOM      4  C   UNL     1      -1.050   2.683  -1.151  0.00  0.00    -0.076 C 
ATOM      5  C   UNL     1      -1.655   3.333   0.095  0.00  0.00    +0.012 C 
ATOM      6  N   UNL     1      -0.883   1.235  -0.904  0.00  0.00    +0.386 N 
ATOM      7  H   UNL     1      -1.791   0.836  -0.637  0.00  0.00    -0.081 HD
ENDROOT
BRANCH   1  12
ATOM      8  C   UNL     1      -3.082   5.373   6.049  0.00  0.00    +0.044 C 
ATOM      9  C   UNL     1      -2.466   4.786   4.806  0.00  0.00    -0.050 A 
ATOM     10  C   UNL     1      -1.546   5.517   4.078  0.00  0.00    +0.004 A 
ATOM     11  C   UNL     1      -0.979   4.978   2.939  0.00  0.00    +0.006 A 
ATOM     12  C   UNL     1      -1.333   3.707   2.527  0.00  0.00    -0.024 A 
ATOM     13  C   UNL     1      -2.256   2.977   3.251  0.00  0.00    +0.006 A 
ATOM     14  C   UNL     1      -2.820   3.515   4.393  0.00  0.00    +0.004 A 
ENDBRANCH   1  12
BRANCH   1  15
ATOM     15  N   UNL     1       0.569   3.773   1.018  0.00  0.00    -0.306 N 
ATOM     16  C   UNL     1       1.541   3.753   1.952  0.00  0.00    +0.211 C 
ATOM     17  O   UNL     1       1.388   3.118   2.974  0.00  0.00    -0.276 OA
ATOM     18  C   UNL     1       2.818   4.521   1.726  0.00  0.00    +0.109 C 
ATOM     19  H   UNL     1       0.719   4.220   0.171  0.00  0.00    +0.150 HD
ENDBRANCH   1  15
BRANCH   6  20
ATOM     20  C   UNL     1      -0.407   0.564  -2.131  0.00  0.00    +0.019 C 
BRANCH  20  21
ATOM     21  C   UNL     1      -1.500   0.616  -3.167  0.00  0.00    +0.202 C 
ATOM     22  O   UNL     1      -2.551   1.167  -2.914  0.00  0.00    -0.277 OA
ATOM     23  N   UNL     1      -1.311   0.049  -4.375  0.00  0.00    -0.266 N 
ATOM     24  C   UNL     1      -2.319   0.096  -5.331  0.00  0.00    +0.164 A 
ATOM     25  N   UNL     1      -3.519   0.638  -5.244  0.00  0.00    -0.233 NA
ATOM     26  C   UNL     1      -4.361   0.598  -6.257  0.00  0.00    +0.120 A 
ATOM     27  C   UNL     1      -3.973  -0.026  -7.396  0.00  0.00    +0.068 A 
ATOM     28  S   UNL     1      -2.326  -0.549  -6.943  0.00  0.00    -0.061 S 
ATOM     29  H   UNL     1      -0.471  -0.392  -4.578  0.00  0.00    +0.157 HD
ENDBRANCH  20  21
ENDBRANCH   6  20
TORSDOF 4
