REMARK  Name = ZINC14723284
REMARK  7 active torsions:
REMARK  status: ('A' for Active; 'I' for Inactive)
REMARK    1  A    between atoms: C_6  and  C_11
REMARK    2  A    between atoms: C_11  and  C_12
REMARK    3  A    between atoms: N_14  and  C_15
REMARK    4  A    between atoms: C_15  and  C_16
REMARK    5  A    between atoms: C_16  and  N_17
REMARK    6  A    between atoms: C_21  and  C_22
REMARK    7  A    between atoms: C_26  and  N_28
REMARK                            x       y       z     vdW  Elec       q    Type
REMARK                         _______ _______ _______ _____ _____    ______ ____
ROOT
ATOM      1  N   UNL     1      -5.627  -3.459  -4.111  0.00  0.00    -0.227 N 
ATOM      2  C   UNL     1      -4.993  -4.346  -4.860  0.00  0.00    +0.260 C 
ATOM      3  O   UNL     1      -4.120  -5.061  -4.405  0.00  0.00    -0.269 OA
ATOM      4  C   UNL     1      -5.399  -4.424  -6.279  0.00  0.00    +0.080 C 
ATOM      5  C   UNL     1      -4.932  -5.224  -7.269  0.00  0.00    +0.028 C 
ATOM      6  S   UNL     1      -6.673  -3.171  -6.332  0.00  0.00    -0.026 S 
ATOM      7  C   UNL     1      -6.598  -2.673  -4.620  0.00  0.00    +0.286 C 
ATOM      8  O   UNL     1      -7.259  -1.826  -4.049  0.00  0.00    -0.262 OA
ENDROOT
BRANCH   5   9
ATOM      9  C   UNL     1      -5.604  -5.245  -8.577  0.00  0.00    -0.022 A 
ATOM     10  C   UNL     1      -5.028  -5.929  -9.653  0.00  0.00    +0.009 A 
ATOM     11  C   UNL     1      -5.663  -5.944 -10.875  0.00  0.00    +0.023 A 
ATOM     12  C   UNL     1      -6.870  -5.283 -11.040  0.00  0.00    +0.071 A 
ATOM     13  C   UNL     1      -7.446  -4.603  -9.980  0.00  0.00    +0.145 A 
ATOM     14  C   UNL     1      -6.825  -4.584  -8.750  0.00  0.00    +0.042 A 
ATOM     15 CL   UNL     1      -7.664  -5.308 -12.584  0.00  0.00    -0.081 Cl
BRANCH  13  16
ATOM     16  N   UNL     1      -8.735  -3.899 -10.167  0.00  0.00    +0.058 N 
ATOM     17  O   UNL     1      -9.243  -3.300  -9.236  0.00  0.00    -0.126 OA
ATOM     18  O   UNL     1      -9.288  -3.919 -11.252  0.00  0.00    -0.126 OA
ENDBRANCH  13  16
ENDBRANCH   5   9
BRANCH   1  19
ATOM     19  C   UNL     1      -5.272  -3.334  -2.696  0.00  0.00    +0.136 C 
BRANCH  19  20
ATOM     20  C   UNL     1      -4.158  -2.297  -2.540  0.00  0.00    +0.123 C 
BRANCH  20  23
ATOM     21  C   UNL     1      -2.837  -1.310  -0.746  0.00  0.00    +0.217 C 
ATOM     22  O   UNL     1      -2.263  -0.638  -1.577  0.00  0.00    -0.275 OA
ATOM     23  N   UNL     1      -3.802  -2.171  -1.124  0.00  0.00    -0.314 N 
ATOM     24  H   UNL     1      -4.261  -2.708  -0.459  0.00  0.00    +0.149 HD
BRANCH  21  25
ATOM     25  C   UNL     1      -2.472  -1.180   0.711  0.00  0.00    +0.130 C 
BRANCH  25  31
ATOM     26  C   UNL     1       2.940   2.305   1.233  0.00  0.00    +0.001 A 
ATOM     27  C   UNL     1       3.272   0.966   1.032  0.00  0.00    +0.001 A 
ATOM     28  C   UNL     1       2.305   0.019   0.890  0.00  0.00    +0.008 A 
ATOM     29  C   UNL     1       0.951   0.392   0.947  0.00  0.00    -0.018 A 
ATOM     30  C   UNL     1      -0.074  -0.557   0.804  0.00  0.00    +0.012 A 
ATOM     31  C   UNL     1      -1.374  -0.159   0.864  0.00  0.00    -0.038 A 
ATOM     32  C   UNL     1      -1.706   1.180   1.065  0.00  0.00    +0.005 A 
ATOM     33  C   UNL     1      -0.739   2.127   1.208  0.00  0.00    +0.009 A 
ATOM     34  C   UNL     1       0.614   1.754   1.152  0.00  0.00    -0.018 A 
ATOM     35  C   UNL     1       1.640   2.704   1.294  0.00  0.00    +0.008 A 
ENDBRANCH  25  31
ENDBRANCH  21  25
ENDBRANCH  20  23
ENDBRANCH  19  20
ENDBRANCH   1  19
TORSDOF 7
