REMARK  Name = ZINC46230405
REMARK  8 active torsions:
REMARK  status: ('A' for Active; 'I' for Inactive)
REMARK    1  A    between atoms: C_1  and  C_2
REMARK    2  A    between atoms: C_3  and  C_25
REMARK    3  A    between atoms: C_7  and  N_11
REMARK    4  A    between atoms: N_11  and  C_12
REMARK    5  A    between atoms: C_12  and  C_14
REMARK    6  A    between atoms: C_12  and  C_15
REMARK    7  A    between atoms: C_18  and  S_21
REMARK    8  A    between atoms: S_21  and  N_24
REMARK                            x       y       z     vdW  Elec       q    Type
REMARK                         _______ _______ _______ _____ _____    ______ ____
ROOT
ATOM      1  C   UNL     1       0.498   1.576   4.201  0.00  0.00    +0.099 C 
ATOM      2  C   UNL     1      -0.822   1.583   4.976  0.00  0.00    +0.033 C 
ENDROOT
BRANCH   1   3
ATOM      3  C   UNL     1       1.056   2.975   4.148  0.00  0.00    -0.027 A 
ATOM      4  C   UNL     1       0.558   3.883   3.233  0.00  0.00    +0.007 A 
ATOM      5  C   UNL     1       1.070   5.166   3.184  0.00  0.00    +0.029 A 
ATOM      6  C   UNL     1       2.081   5.541   4.050  0.00  0.00    +0.105 A 
ATOM      7  C   UNL     1       2.579   4.632   4.965  0.00  0.00    +0.029 A 
ATOM      8  C   UNL     1       2.063   3.351   5.017  0.00  0.00    +0.007 A 
BRANCH   6   9
ATOM      9  S   UNL     1       2.734   7.176   3.986  0.00  0.00    +0.056 S 
ATOM     10  O   UNL     1       4.045   7.110   4.531  0.00  0.00    -0.153 OA
ATOM     11  O   UNL     1       2.477   7.666   2.678  0.00  0.00    -0.153 OA
BRANCH   9  12
ATOM     12  N   UNL     1       1.837   8.103   5.024  0.00  0.00    -0.204 NA
ATOM     13  H   UNL     1       1.106   7.704   5.522  0.00  0.00    +0.144 HD
ATOM     14  H   UNL     1       2.041   9.045   5.133  0.00  0.00    +0.144 HD
ENDBRANCH   9  12
ENDBRANCH   6   9
ENDBRANCH   1   3
BRANCH   1  15
ATOM     15  N   UNL     1       0.262   1.092   2.839  0.00  0.00    -0.322 N 
ATOM     16  H   UNL     1       0.110   1.724   2.119  0.00  0.00    +0.148 HD
BRANCH  15  23
ATOM     17  C   UNL     1      -0.556   1.486   0.114  0.00  0.00    +0.045 C 
ATOM     18  C   UNL     1      -0.484  -0.020   0.096  0.00  0.00    -0.028 A 
ATOM     19  C   UNL     1      -0.771  -0.699  -1.024  0.00  0.00    -0.008 A 
ATOM     20  S   UNL     1      -0.546  -2.402  -0.548  0.00  0.00    -0.074 S 
ATOM     21  C   UNL     1      -0.073  -2.156   1.143  0.00  0.00    +0.114 A 
ATOM     22  C   UNL     1      -0.097  -0.751   1.289  0.00  0.00    +0.051 A 
ATOM     23  C   UNL     1       0.255  -0.267   2.579  0.00  0.00    +0.131 A 
ATOM     24  N   UNL     1       0.577  -1.132   3.527  0.00  0.00    -0.220 NA
ATOM     25  C   UNL     1       0.583  -2.436   3.318  0.00  0.00    +0.224 A 
ATOM     26  N   UNL     1       0.256  -2.946   2.146  0.00  0.00    -0.228 NA
ATOM     27  C   UNL     1      -1.186  -0.153  -2.366  0.00  0.00    +0.052 C 
ENDBRANCH  15  23
ENDBRANCH   1  15
TORSDOF 5
