REMARK  Name = ZINC23541560
REMARK  7 active torsions:
REMARK  status: ('A' for Active; 'I' for Inactive)
REMARK    1  A    between atoms: C_1  and  C_2
REMARK    2  A    between atoms: C_2  and  C_4
REMARK    3  A    between atoms: C_2  and  S_18
REMARK    4  A    between atoms: C_4  and  C_6
REMARK    5  A    between atoms: C_6  and  C_16
REMARK    6  A    between atoms: S_18  and  C_19
REMARK    7  A    between atoms: N_24  and  C_25
REMARK                            x       y       z     vdW  Elec       q    Type
REMARK                         _______ _______ _______ _____ _____    ______ ____
ROOT
ATOM      1  C   UNL     1      -4.057  -4.799   0.918  0.00  0.00    +0.028 C 
ATOM      2  C   UNL     1      -4.076  -4.118  -0.453  0.00  0.00    +0.122 C 
ENDROOT
BRANCH   2   3
ATOM      3  C   UNL     1      -3.073  -2.993  -0.468  0.00  0.00    +0.189 C 
ATOM      4  O   UNL     1      -3.430  -1.857  -0.222  0.00  0.00    -0.290 OA
BRANCH   3   5
ATOM      5  C   UNL     1      -1.726  -3.257  -0.767  0.00  0.00    +0.123 C 
ATOM      6  C   UNL     1      -0.790  -2.206  -0.781  0.00  0.00    +0.091 C 
ATOM      7  N   UNL     1      -1.000  -0.887  -0.535  0.00  0.00    -0.307 N 
ATOM      8  C   UNL     1       0.051   0.007  -0.596  0.00  0.00    +0.046 A 
ATOM      9  C   UNL     1       0.031   1.393  -0.375  0.00  0.00    +0.024 A 
ATOM     10  C   UNL     1       1.181   2.139  -0.479  0.00  0.00    +0.002 A 
ATOM     11  C   UNL     1       2.392   1.549  -0.802  0.00  0.00    +0.001 A 
ATOM     12  C   UNL     1       2.441   0.185  -1.025  0.00  0.00    +0.017 A 
ATOM     13  C   UNL     1       1.291  -0.562  -0.922  0.00  0.00    +0.035 A 
ATOM     14  S   UNL     1       0.909  -2.284  -1.118  0.00  0.00    -0.071 S 
ATOM     15  H   UNL     1      -2.010  -0.528  -0.286  0.00  0.00    +0.153 HD
BRANCH   5  16
ATOM     16  C   UNL     1      -1.306  -4.595  -1.057  0.00  0.00    +0.105 C 
ATOM     17  N   UNL     1      -0.972  -5.656  -1.287  0.00  0.00    -0.191 NA
ENDBRANCH   5  16
ENDBRANCH   3   5
ENDBRANCH   2   3
BRANCH   2  18
ATOM     18  S   UNL     1      -5.733  -3.456  -0.776  0.00  0.00    -0.086 S 
BRANCH  18  19
ATOM     19  C   UNL     1      -6.753  -4.889  -0.872  0.00  0.00    +0.161 A 
ATOM     20  N   UNL     1      -6.423  -6.161  -0.750  0.00  0.00    -0.133 NA
ATOM     21  N   UNL     1      -7.391  -7.133  -0.858  0.00  0.00    -0.125 NA
ATOM     22  C   UNL     1      -8.642  -6.789  -1.093  0.00  0.00    +0.187 A 
ATOM     23  S   UNL     1      -8.511  -5.010  -1.169  0.00  0.00    -0.024 S 
ATOM     24  N   UNL     1      -9.764  -7.597  -1.243  0.00  0.00    -0.290 N 
ATOM     25  H   UNL     1     -10.727  -7.152  -1.535  0.00  0.00    +0.154 HD
BRANCH  24  26
ATOM     26  C   UNL     1      -9.668  -8.975  -1.021  0.00  0.00    +0.068 A 
ATOM     27  C   UNL     1      -8.509  -9.513  -0.478  0.00  0.00    +0.026 A 
ATOM     28  C   UNL     1      -8.418 -10.874  -0.261  0.00  0.00    +0.002 A 
ATOM     29  C   UNL     1      -9.478 -11.701  -0.582  0.00  0.00    +0.003 A 
ATOM     30  C   UNL     1     -10.635 -11.170  -1.122  0.00  0.00    +0.040 A 
ATOM     31  C   UNL     1     -10.736  -9.808  -1.338  0.00  0.00    +0.144 A 
ATOM     32  F   UNL     1     -11.868  -9.288  -1.861  0.00  0.00    -0.204 F 
ENDBRANCH  24  26
ENDBRANCH  18  19
ENDBRANCH   2  18
TORSDOF 6
