REMARK  Name = ZINC10065682
REMARK  7 active torsions:
REMARK  status: ('A' for Active; 'I' for Inactive)
REMARK    1  A    between atoms: C_1  and  N_44
REMARK    2  A    between atoms: C_2  and  N_44
REMARK    3  A    between atoms: C_3  and  C_4
REMARK    4  A    between atoms: C_3  and  N_44
REMARK    5  A    between atoms: C_4  and  N_5
REMARK    6  A    between atoms: C_16  and  C_18
REMARK    7  A    between atoms: C_23  and  N_24
REMARK                            x       y       z     vdW  Elec       q    Type
REMARK                         _______ _______ _______ _____ _____    ______ ____
ROOT
ATOM      1  N   UNL     1       2.112  -1.525  -0.118  0.00  0.00    -0.248 N 
ATOM      2  C   UNL     1       1.284  -0.424  -0.250  0.00  0.00    +0.168 A 
ATOM      3  N   UNL     1       1.609   0.843  -0.364  0.00  0.00    -0.224 NA
ATOM      4  C   UNL     1       0.687   1.822  -0.487  0.00  0.00    +0.080 A 
ATOM      5  C   UNL     1       0.902   3.213  -0.616  0.00  0.00    +0.030 A 
ATOM      6  C   UNL     1      -0.155   4.078  -0.731  0.00  0.00    +0.017 A 
ATOM      7  C   UNL     1      -1.467   3.624  -0.725  0.00  0.00    +0.019 A 
ATOM      8  C   UNL     1      -1.714   2.269  -0.596  0.00  0.00    +0.032 A 
ATOM      9  C   UNL     1      -0.661   1.396  -0.485  0.00  0.00    +0.042 A 
ATOM     10  S   UNL     1      -0.502  -0.365  -0.308  0.00  0.00    -0.052 S 
ATOM     11 BR   UNL     1      -2.901   4.846  -0.886  0.00  0.00    -0.050 Br
ATOM     12  C   UNL     1       1.581  -2.759  -0.012  0.00  0.00    +0.254 C 
ATOM     13  O   UNL     1       0.380  -2.915  -0.120  0.00  0.00    -0.270 OA
ENDROOT
BRANCH  12  14
ATOM     14  C   UNL     1       2.458  -3.922   0.235  0.00  0.00    +0.069 A 
ATOM     15  C   UNL     1       3.431  -4.278  -0.701  0.00  0.00    +0.035 A 
ATOM     16  C   UNL     1       4.250  -5.363  -0.462  0.00  0.00    +0.042 A 
ATOM     17  C   UNL     1       4.101  -6.104   0.699  0.00  0.00    +0.022 A 
ATOM     18  C   UNL     1       3.135  -5.760   1.627  0.00  0.00    +0.035 A 
ATOM     19  C   UNL     1       2.314  -4.674   1.402  0.00  0.00    +0.138 A 
ATOM     20 CL   UNL     1       5.465  -5.804  -1.621  0.00  0.00    -0.084 Cl
BRANCH  19  21
ATOM     21  N   UNL     1       1.280  -4.308   2.397  0.00  0.00    +0.057 N 
ATOM     22  O   UNL     1       1.099  -5.011   3.374  0.00  0.00    -0.126 OA
ATOM     23  O   UNL     1       0.611  -3.303   2.238  0.00  0.00    -0.126 OA
ENDBRANCH  19  21
ENDBRANCH  12  14
BRANCH   1  24
ATOM     24  C   UNL     1       3.566  -1.349  -0.092  0.00  0.00    +0.097 C 
BRANCH  24  25
ATOM     25  C   UNL     1       4.032  -1.165   1.353  0.00  0.00    -0.060 C 
BRANCH  25  28
ATOM     26  C   UNL     1       5.864  -0.259   2.652  0.00  0.00    -0.097 C 
ATOM     27  C   UNL     1       6.269  -2.050   1.075  0.00  0.00    -0.097 C 
ATOM     28  N   UNL     1       5.473  -0.835   1.349  0.00  0.00    +0.377 N 
ATOM     29  H   UNL     1       5.655  -0.145   0.611  0.00  0.00    -0.083 HD
ENDBRANCH  25  28
ENDBRANCH  24  25
ENDBRANCH   1  24
TORSDOF 5
