REMARK  Name = ZINC44749551
REMARK  4 active torsions:
REMARK  status: ('A' for Active; 'I' for Inactive)
REMARK    1  A    between atoms: C_1  and  C_2
REMARK    2  A    between atoms: C_4  and  N_21
REMARK    3  A    between atoms: C_7  and  C_8
REMARK    4  A    between atoms: N_12  and  C_13
REMARK                            x       y       z     vdW  Elec       q    Type
REMARK                         _______ _______ _______ _____ _____    ______ ____
ROOT
ATOM      1  C   UNL     1       0.068   0.019   2.494  0.00  0.00    +0.187 A 
ATOM      2  N   UNL     1       0.119   1.325   2.654  0.00  0.00    -0.108 NA
ATOM      3  N   UNL     1       0.046   1.630   3.899  0.00  0.00    -0.022 NA
ATOM      4  N   UNL     1      -0.056   0.567   4.621  0.00  0.00    -0.039 NA
ATOM      5  N   UNL     1      -0.051  -0.528   3.739  0.00  0.00    -0.190 N 
ENDROOT
BRANCH   5   6
ATOM      6  C   UNL     1      -0.146  -1.888   4.067  0.00  0.00    +0.106 A 
ATOM      7  C   UNL     1       0.743  -2.800   3.516  0.00  0.00    +0.046 A 
ATOM      8  C   UNL     1       0.647  -4.140   3.841  0.00  0.00    +0.020 A 
ATOM      9  C   UNL     1      -0.334  -4.573   4.716  0.00  0.00    +0.018 A 
ATOM     10  C   UNL     1      -1.221  -3.668   5.268  0.00  0.00    +0.041 A 
ATOM     11  C   UNL     1      -1.127  -2.324   4.951  0.00  0.00    +0.149 A 
ATOM     12  F   UNL     1      -1.991  -1.439   5.494  0.00  0.00    -0.203 F 
ATOM     13 BR   UNL     1       1.857  -5.383   3.090  0.00  0.00    -0.050 Br
ENDBRANCH   5   6
BRANCH   1  20
ATOM     14  C   UNL     1       2.149   0.637   0.586  0.00  0.00    +0.044 C 
ATOM     15  C   UNL     1       1.123  -0.424   0.283  0.00  0.00    -0.038 A 
ATOM     16  C   UNL     1       1.175  -1.113  -0.910  0.00  0.00    +0.026 A 
ATOM     17  C   UNL     1       0.229  -2.093  -1.190  0.00  0.00    +0.025 A 
ATOM     18  C   UNL     1      -0.772  -2.380  -0.268  0.00  0.00    +0.023 A 
ATOM     19  C   UNL     1      -0.829  -1.695   0.925  0.00  0.00    +0.014 A 
ATOM     20  C   UNL     1       0.123  -0.715   1.212  0.00  0.00    +0.024 A 
BRANCH  17  21
ATOM     21  N   UNL     1       0.284  -2.788  -2.397  0.00  0.00    -0.358 N 
ATOM     22  H   UNL     1       0.981  -2.588  -3.041  0.00  0.00    +0.142 HD
ATOM     23  H   UNL     1      -0.376  -3.471  -2.594  0.00  0.00    +0.142 HD
ENDBRANCH  17  21
ENDBRANCH   1  20
TORSDOF 3
