REMARK  Name = ZINC39547155
REMARK  3 active torsions:
REMARK  status: ('A' for Active; 'I' for Inactive)
REMARK    1  A    between atoms: C_1  and  C_2
REMARK    2  A    between atoms: C_9  and  C_11
REMARK    3  A    between atoms: C_11  and  N_12
REMARK                            x       y       z     vdW  Elec       q    Type
REMARK                         _______ _______ _______ _____ _____    ______ ____
ROOT
ATOM      1  N   UNL     1       0.053  -4.884   3.270  0.00  0.00    -0.215 N 
ATOM      2  C   UNL     1       0.790  -5.145   4.370  0.00  0.00    +0.247 C 
ATOM      3  O   UNL     1       1.969  -4.917   4.534  0.00  0.00    -0.273 OA
ATOM      4  C   UNL     1      -0.164  -5.783   5.353  0.00  0.00    +0.113 C 
ATOM      5  C   UNL     1      -0.276  -4.932   6.613  0.00  0.00    +0.035 C 
ATOM      6  C   UNL     1      -1.269  -5.579   7.582  0.00  0.00    +0.003 C 
ATOM      7  C   UNL     1      -0.789  -6.987   7.938  0.00  0.00    +0.000 C 
ATOM      8  C   UNL     1      -0.705  -7.835   6.667  0.00  0.00    +0.003 C 
ATOM      9  C   UNL     1       0.291  -7.197   5.695  0.00  0.00    +0.035 C 
ATOM     10  N   UNL     1      -1.446  -5.813   4.637  0.00  0.00    -0.285 N 
ATOM     11  C   UNL     1      -1.221  -5.261   3.429  0.00  0.00    +0.310 C 
ATOM     12  O   UNL     1      -2.078  -5.125   2.578  0.00  0.00    -0.252 OA
ATOM     13  H   UNL     1      -2.289  -6.159   4.970  0.00  0.00    +0.151 HD
ENDROOT
BRANCH   1  14
ATOM     14  C   UNL     1       0.581  -4.259   2.055  0.00  0.00    +0.213 C 
BRANCH  14  22
ATOM     15  C   UNL     1      -0.019   1.526   0.010  0.00  0.00    +0.009 C 
ATOM     16  C   UNL     1       0.002  -0.004   0.002  0.00  0.00    +0.003 C 
ATOM     17  C   UNL     1       0.720  -0.498  -1.256  0.00  0.00    +0.006 C 
ATOM     18  C   UNL     1       0.712  -2.028  -1.282  0.00  0.00    +0.019 C 
ATOM     19  C   UNL     1       1.463  -2.559  -0.057  0.00  0.00    +0.108 C 
ATOM     20  N   UNL     1       0.869  -1.973   1.153  0.00  0.00    -0.300 N 
ATOM     21  C   UNL     1       0.744  -0.512   1.242  0.00  0.00    +0.111 C 
ATOM     22  C   UNL     1       0.447  -2.761   2.161  0.00  0.00    +0.234 C 
ATOM     23  O   UNL     1      -0.042  -2.265   3.154  0.00  0.00    -0.274 OA
ENDBRANCH  14  22
ENDBRANCH   1  14
TORSDOF 2
