REMARK  Name = ZINC39664705
REMARK  9 active torsions:
REMARK  status: ('A' for Active; 'I' for Inactive)
REMARK    1  A    between atoms: C_1  and  C_2
REMARK    2  A    between atoms: C_2  and  C_8
REMARK    3  A    between atoms: C_12  and  C_21
REMARK    4  A    between atoms: N_23  and  C_24
REMARK    5  A    between atoms: C_24  and  C_26
REMARK    6  A    between atoms: C_24  and  C_30
REMARK    7  A    between atoms: C_26  and  N_27
REMARK    8  A    between atoms: N_27  and  C_28
REMARK    9  A    between atoms: N_27  and  C_29
REMARK                            x       y       z     vdW  Elec       q    Type
REMARK                         _______ _______ _______ _____ _____    ______ ____
ROOT
ATOM      1  C   UNL     1      -0.898  -0.943  -0.664  0.00  0.00    +0.222 C 
ATOM      2  O   UNL     1      -1.264  -1.435   0.382  0.00  0.00    -0.275 OA
ATOM      3  N   UNL     1      -1.798  -0.387  -1.500  0.00  0.00    -0.300 N 
ATOM      4  C   UNL     1      -1.560   0.170  -2.852  0.00  0.00    +0.121 C 
ATOM      5  C   UNL     1      -2.791  -0.268  -3.677  0.00  0.00    +0.100 C 
ATOM      6  C   UNL     1      -3.897  -0.504  -2.635  0.00  0.00    -0.004 C 
ATOM      7  C   UNL     1      -3.252  -0.201  -1.275  0.00  0.00    +0.115 C 
ATOM      8  C   UNL     1      -4.364  -1.956  -2.679  0.00  0.00    -0.010 C 
ATOM      9  C   UNL     1      -5.503  -2.152  -1.675  0.00  0.00    -0.082 C 
ATOM     10  N   UNL     1      -6.612  -1.250  -2.009  0.00  0.00    +0.379 N 
ATOM     11  C   UNL     1      -6.181   0.146  -1.874  0.00  0.00    -0.082 C 
ATOM     12  C   UNL     1      -5.070   0.439  -2.886  0.00  0.00    -0.010 C 
ATOM     13  H   UNL     1      -6.907  -1.420  -2.959  0.00  0.00    -0.086 HD
ATOM     14  H   UNL     1      -7.385  -1.424  -1.383  0.00  0.00    -0.086 HD
ENDROOT
BRANCH   1  16
ATOM     15  C   UNL     1       0.783  -1.870  -2.233  0.00  0.00    +0.021 C 
ATOM     16  C   UNL     1       0.564  -0.951  -1.030  0.00  0.00    +0.044 C 
ATOM     17  C   UNL     1       1.383  -1.462   0.157  0.00  0.00    +0.016 C 
ATOM     18  C   UNL     1       1.164  -0.543   1.361  0.00  0.00    +0.001 C 
ATOM     19  C   UNL     1       1.610   0.877   1.006  0.00  0.00    +0.000 C 
ATOM     20  C   UNL     1       0.790   1.387  -0.181  0.00  0.00    +0.001 C 
ATOM     21  C   UNL     1       1.010   0.469  -1.385  0.00  0.00    +0.016 C 
ENDBRANCH   1  16
BRANCH   5  22
ATOM     22  C   UNL     1      -3.194   0.822  -4.636  0.00  0.00    +0.219 C 
ATOM     23  O   UNL     1      -3.433   0.553  -5.794  0.00  0.00    -0.275 OA
ATOM     24  N   UNL     1      -3.288   2.096  -4.207  0.00  0.00    -0.310 N 
ATOM     25  H   UNL     1      -3.024   2.324  -3.302  0.00  0.00    +0.149 HD
BRANCH  24  26
ATOM     26  C   UNL     1      -3.789   3.137  -5.108  0.00  0.00    +0.087 C 
BRANCH  26  27
ATOM     27  C   UNL     1      -4.316   4.293  -4.297  0.00  0.00    -0.029 A 
ATOM     28  C   UNL     1      -3.638   4.710  -3.167  0.00  0.00    +0.005 A 
ATOM     29  C   UNL     1      -4.122   5.770  -2.423  0.00  0.00    +0.000 A 
ATOM     30  C   UNL     1      -5.282   6.413  -2.809  0.00  0.00    +0.000 A 
ATOM     31  C   UNL     1      -5.959   5.997  -3.940  0.00  0.00    +0.000 A 
ATOM     32  C   UNL     1      -5.474   4.940  -4.687  0.00  0.00    +0.005 A 
ENDBRANCH  26  27
BRANCH  26  33
ATOM     33  C   UNL     1      -2.651   3.623  -6.009  0.00  0.00    -0.052 C 
BRANCH  33  34
ATOM     34  N   UNL     1      -3.182   4.562  -7.006  0.00  0.00    +0.377 N 
ATOM     35  C   UNL     1      -2.073   5.130  -7.784  0.00  0.00    -0.097 C 
ATOM     36  C   UNL     1      -4.099   3.851  -7.907  0.00  0.00    -0.097 C 
ATOM     37  H   UNL     1      -3.680   5.304  -6.537  0.00  0.00    -0.083 HD
ENDBRANCH  33  34
ENDBRANCH  26  33
ENDBRANCH  24  26
ENDBRANCH   5  22
TORSDOF 6
