REMARK  Name = ZINC09552076
REMARK  9 active torsions:
REMARK  status: ('A' for Active; 'I' for Inactive)
REMARK    1  A    between atoms: C_1  and  C_2
REMARK    2  A    between atoms: C_3  and  C_29
REMARK    3  A    between atoms: C_9  and  C_12
REMARK    4  A    between atoms: C_12  and  O_14
REMARK    5  A    between atoms: O_14  and  C_15
REMARK    6  A    between atoms: C_15  and  C_17
REMARK    7  A    between atoms: C_15  and  C_18
REMARK    8  A    between atoms: N_20  and  C_21
REMARK    9  A    between atoms: C_21  and  C_27
REMARK                            x       y       z     vdW  Elec       q    Type
REMARK                         _______ _______ _______ _____ _____    ______ ____
ROOT
ATOM      1  O   UNL     1       0.090  -2.582   5.716  0.00  0.00    -0.449 OA
ENDROOT
BRANCH   1   2
ATOM      2  C   UNL     1       0.068  -1.529   4.876  0.00  0.00    +0.340 C 
ATOM      3  O   UNL     1       0.058  -0.398   5.319  0.00  0.00    -0.245 OA
BRANCH   2  12
ATOM      4  C   UNL     1      -0.018   1.503   0.010  0.00  0.00    +0.046 C 
ATOM      5  C   UNL     1       0.002  -0.004   0.002  0.00  0.00    -0.022 A 
ATOM      6  C   UNL     1       0.009  -0.797  -1.080  0.00  0.00    +0.017 A 
ATOM      7  N   UNL     1       0.028  -2.111  -0.697  0.00  0.00    -0.358 N 
ATOM      8  H   UNL     1       0.036  -2.868  -1.304  0.00  0.00    +0.166 HD
ATOM      9  C   UNL     1       0.035  -2.200   0.674  0.00  0.00    +0.047 A 
ATOM     10  C   UNL     1       0.025  -0.883   1.175  0.00  0.00    +0.004 A 
ATOM     11  C   UNL     1       0.035  -0.661   2.549  0.00  0.00    +0.025 A 
ATOM     12  C   UNL     1       0.057  -1.749   3.417  0.00  0.00    +0.060 A 
ATOM     13  C   UNL     1       0.070  -3.055   2.906  0.00  0.00    +0.017 A 
ATOM     14  C   UNL     1       0.052  -3.275   1.560  0.00  0.00    +0.027 A 
ATOM     15  C   UNL     1      -0.004  -0.313  -2.507  0.00  0.00    +0.063 C 
ENDBRANCH   2  12
ENDBRANCH   1   2
BRANCH   1  16
ATOM     16  C   UNL     1       0.100  -2.295   7.116  0.00  0.00    +0.259 C 
ATOM     17  C   UNL     1      -1.339  -2.211   7.629  0.00  0.00    +0.062 C 
BRANCH  16  18
ATOM     18  C   UNL     1       0.832  -3.390   7.848  0.00  0.00    +0.255 C 
ATOM     19  O   UNL     1       1.299  -4.324   7.232  0.00  0.00    -0.272 OA
ATOM     20  N   UNL     1       0.967  -3.330   9.188  0.00  0.00    -0.294 N 
ATOM     21  H   UNL     1       0.593  -2.583   9.681  0.00  0.00    +0.150 HD
BRANCH  20  22
ATOM     22  C   UNL     1       1.678  -4.395   9.900  0.00  0.00    +0.121 C 
ATOM     23  C   UNL     1       0.972  -5.731   9.658  0.00  0.00    +0.041 C 
ATOM     24  C   UNL     1       1.715  -6.842  10.402  0.00  0.00    +0.003 C 
ATOM     25  C   UNL     1       1.725  -6.535  11.901  0.00  0.00    +0.000 C 
ATOM     26  C   UNL     1       2.431  -5.199  12.143  0.00  0.00    +0.003 C 
ATOM     27  C   UNL     1       1.688  -4.087  11.399  0.00  0.00    +0.041 C 
BRANCH  22  28
ATOM     28  C   UNL     1       3.062  -4.475   9.406  0.00  0.00    +0.088 C 
ATOM     29  N   UNL     1       4.131  -4.537   9.025  0.00  0.00    -0.194 NA
ENDBRANCH  22  28
ENDBRANCH  20  22
ENDBRANCH  16  18
ENDBRANCH   1  16
TORSDOF 6
