REMARK  Name = ZINC57641320
REMARK  10 active torsions:
REMARK  status: ('A' for Active; 'I' for Inactive)
REMARK    1  A    between atoms: C_1  and  C_2
REMARK    2  A    between atoms: C_2  and  C_3
REMARK    3  A    between atoms: C_3  and  C_5
REMARK    4  A    between atoms: C_3  and  N_16
REMARK    5  A    between atoms: N_9  and  C_10
REMARK    6  A    between atoms: N_16  and  C_17
REMARK    7  A    between atoms: N_16  and  C_25
REMARK    8  A    between atoms: C_17  and  C_18
REMARK    9  A    between atoms: C_21  and  C_24
REMARK   10  A    between atoms: C_25  and  C_26
REMARK                            x       y       z     vdW  Elec       q    Type
REMARK                         _______ _______ _______ _____ _____    ______ ____
ROOT
ATOM      1  N   UNL     1      -2.231  -0.401   1.650  0.00  0.00    -0.284 NA
ENDROOT
BRANCH   1   2
ATOM      2  C   UNL     1      -1.809  -1.263   0.538  0.00  0.00    +0.127 C 
BRANCH   2   3
ATOM      3  C   UNL     1      -2.074  -2.704   0.892  0.00  0.00    +0.169 A 
ATOM      4  N   UNL     1      -1.810  -3.291   2.034  0.00  0.00    -0.112 NA
ATOM      5  N   UNL     1      -2.183  -4.521   1.944  0.00  0.00    -0.023 NA
ATOM      6  N   UNL     1      -2.677  -4.734   0.775  0.00  0.00    -0.044 NA
ATOM      7  N   UNL     1      -2.633  -3.636   0.098  0.00  0.00    -0.225 N 
BRANCH   7   8
ATOM      8  C   UNL     1      -3.100  -3.442  -1.277  0.00  0.00    +0.111 C 
ATOM      9  C   UNL     1      -4.596  -3.753  -1.356  0.00  0.00    +0.027 C 
ATOM     10  C   UNL     1      -5.084  -3.550  -2.792  0.00  0.00    +0.002 C 
ATOM     11  C   UNL     1      -4.318  -4.487  -3.728  0.00  0.00    +0.000 C 
ATOM     12  C   UNL     1      -2.822  -4.177  -3.649  0.00  0.00    +0.002 C 
ATOM     13  C   UNL     1      -2.334  -4.380  -2.213  0.00  0.00    +0.027 C 
ENDBRANCH   7   8
ENDBRANCH   2   3
BRANCH   2  15
ATOM     14  C   UNL     1      -0.053   0.381  -0.137  0.00  0.00    +0.006 C 
ATOM     15  C   UNL     1      -0.314  -1.068   0.280  0.00  0.00    +0.023 C 
ENDBRANCH   2  15
ENDBRANCH   1   2
BRANCH   1  16
ATOM     16  C   UNL     1      -1.218  -0.380   2.714  0.00  0.00    +0.120 C 
BRANCH  16  17
ATOM     17  C   UNL     1      -1.833   0.151   3.983  0.00  0.00    -0.033 A 
ATOM     18  C   UNL     1      -1.694   1.487   4.312  0.00  0.00    +0.005 A 
ATOM     19  C   UNL     1      -2.258   1.974   5.476  0.00  0.00    +0.003 A 
ATOM     20  C   UNL     1      -2.962   1.127   6.311  0.00  0.00    -0.050 A 
ATOM     21  C   UNL     1      -3.102  -0.209   5.982  0.00  0.00    +0.003 A 
ATOM     22  C   UNL     1      -2.541  -0.695   4.816  0.00  0.00    +0.005 A 
ATOM     23  C   UNL     1      -3.576   1.658   7.580  0.00  0.00    +0.044 C 
ENDBRANCH  16  17
ENDBRANCH   1  16
BRANCH   1  24
ATOM     24  C   UNL     1      -2.527   0.959   1.179  0.00  0.00    +0.126 C 
BRANCH  24  25
ATOM     25  C   UNL     1      -3.874   0.975   0.504  0.00  0.00    +0.031 A 
ATOM     26  C   UNL     1      -4.986   1.281   1.220  0.00  0.00    +0.020 A 
ATOM     27  C   UNL     1      -6.278   1.288   0.536  0.00  0.00    +0.003 A 
ATOM     28  C   UNL     1      -7.458   1.595   1.224  0.00  0.00    +0.059 A 
ATOM     29  C   UNL     1      -8.663   1.595   0.553  0.00  0.00    +0.163 A 
ATOM     30  C   UNL     1      -8.708   1.292  -0.811  0.00  0.00    +0.164 A 
ATOM     31  C   UNL     1      -7.546   0.985  -1.499  0.00  0.00    +0.075 A 
ATOM     32  C   UNL     1      -6.326   0.979  -0.837  0.00  0.00    +0.053 A 
ATOM     33  N   UNL     1      -5.158   0.676  -1.508  0.00  0.00    -0.322 N 
ATOM     34  H   UNL     1      -5.191   0.464  -2.454  0.00  0.00    +0.169 HD
ATOM     35  C   UNL     1      -3.974   0.677  -0.870  0.00  0.00    +0.254 A 
ATOM     36  O   UNL     1      -2.962   0.410  -1.495  0.00  0.00    -0.268 OA
ATOM     37  O   UNL     1      -9.891   1.298  -1.483  0.00  0.00    -0.485 OA
ATOM     38  C   UNL     1     -11.082   1.242  -0.691  0.00  0.00    +0.270 C 
ATOM     39  C   UNL     1     -10.946   2.253   0.455  0.00  0.00    +0.270 C 
ATOM     40  O   UNL     1      -9.802   1.893   1.237  0.00  0.00    -0.485 OA
ENDBRANCH  24  25
ENDBRANCH   1  24
TORSDOF 8
