REMARK  Name = ZINC08767211
REMARK  14 active torsions:
REMARK  status: ('A' for Active; 'I' for Inactive)
REMARK    1  A    between atoms: C_1  and  C_2
REMARK    2  A    between atoms: C_2  and  O_3
REMARK    3  A    between atoms: O_3  and  C_4
REMARK    4  A    between atoms: C_7  and  C_13
REMARK    5  A    between atoms: C_9  and  O_10
REMARK    6  A    between atoms: O_10  and  C_11
REMARK    7  A    between atoms: C_11  and  C_12
REMARK    8  A    between atoms: C_15  and  C_37
REMARK    9  A    between atoms: C_16  and  C_36
REMARK   10  A    between atoms: C_23  and  C_24
REMARK   11  A    between atoms: C_27  and  N_29
REMARK   12  A    between atoms: C_34  and  N_74
REMARK   13  A    between atoms: C_37  and  O_39
REMARK   14  A    between atoms: O_39  and  C_40
REMARK                            x       y       z     vdW  Elec       q    Type
REMARK                         _______ _______ _______ _____ _____    ______ ____
ROOT
ATOM      1  C   UNL     1       2.705  -0.785  -3.739  0.00  0.00    +0.162 C 
ATOM      2  C   UNL     1       3.898   0.139  -3.829  0.00  0.00    +0.085 C 
ATOM      3  C   UNL     1       4.726   0.017  -4.911  0.00  0.00    +0.053 C 
ATOM      4  N   UNL     1       4.482  -0.888  -5.849  0.00  0.00    -0.228 NA
ATOM      5  C   UNL     1       3.470  -1.721  -5.839  0.00  0.00    +0.178 A 
ATOM      6  N   UNL     1       2.521  -1.765  -4.845  0.00  0.00    -0.275 N 
ATOM      7  C   UNL     1       1.534  -2.664  -4.953  0.00  0.00    +0.268 A 
ATOM      8  O   UNL     1       0.667  -2.747  -4.101  0.00  0.00    -0.266 OA
ATOM      9  C   UNL     1       1.528  -3.515  -6.085  0.00  0.00    +0.084 A 
ATOM     10  C   UNL     1       0.635  -4.510  -6.425  0.00  0.00    +0.067 C 
ATOM     11  S   UNL     1       2.984  -2.955  -6.952  0.00  0.00    -0.046 S 
ATOM     12  C   UNL     1       5.927   0.918  -5.037  0.00  0.00    +0.066 C 
ENDROOT
BRANCH   1  16
ATOM     13  C   UNL     1      -0.819   1.629  -3.530  0.00  0.00    +0.162 A 
ATOM     14  C   UNL     1      -0.292   1.272  -4.761  0.00  0.00    +0.050 A 
ATOM     15  C   UNL     1       0.846   0.490  -4.825  0.00  0.00    +0.010 A 
ATOM     16  C   UNL     1       1.464   0.067  -3.663  0.00  0.00    -0.016 A 
ATOM     17  C   UNL     1       0.947   0.424  -2.432  0.00  0.00    +0.055 A 
ATOM     18  C   UNL     1      -0.194   1.207  -2.360  0.00  0.00    +0.162 A 
BRANCH  13  19
ATOM     19  O   UNL     1      -1.942   2.393  -3.465  0.00  0.00    -0.489 OA
BRANCH  19  21
ATOM     20  C   UNL     1      -3.774   3.637  -4.432  0.00  0.00    +0.048 C 
ATOM     21  C   UNL     1      -2.530   2.789  -4.705  0.00  0.00    +0.226 C 
ENDBRANCH  19  21
ENDBRANCH  13  19
BRANCH  18  22
ATOM     22  O   UNL     1      -0.704   1.559  -1.150  0.00  0.00    -0.489 OA
BRANCH  22  23
ATOM     23  C   UNL     1      -0.013   1.086   0.008  0.00  0.00    +0.226 C 
ATOM     24  C   UNL     1      -0.729   1.579   1.267  0.00  0.00    +0.048 C 
ENDBRANCH  22  23
ENDBRANCH  18  22
ENDBRANCH   1  16
BRANCH  10  25
ATOM     25  C   UNL     1       0.819  -5.244  -7.611  0.00  0.00    +0.131 A 
ATOM     26  C   UNL     1       0.007  -6.268  -8.069  0.00  0.00    +0.051 A 
ATOM     27  C   UNL     1       0.557  -6.705  -9.276  0.00  0.00    +0.066 A 
ATOM     28  C   UNL     1       1.673  -5.953  -9.508  0.00  0.00    +0.189 A 
ATOM     29  O   UNL     1       1.823  -5.077  -8.502  0.00  0.00    -0.442 OA
BRANCH  28  30
ATOM     30  N   UNL     1       2.510  -6.074 -10.598  0.00  0.00    -0.305 N 
ATOM     31  C   UNL     1       3.024  -7.445 -10.718  0.00  0.00    +0.089 C 
ATOM     32  C   UNL     1       3.882  -7.557 -11.981  0.00  0.00    -0.060 C 
ATOM     33  C   UNL     1       4.471  -5.217 -11.787  0.00  0.00    -0.060 C 
ATOM     34  C   UNL     1       3.613  -5.106 -10.525  0.00  0.00    +0.089 C 
ATOM     35  C   UNL     1       5.877  -6.717 -13.068  0.00  0.00    -0.096 C 
ATOM     36  N   UNL     1       5.000  -6.594 -11.884  0.00  0.00    +0.380 N 
ATOM     37  H   UNL     1       5.547  -6.802 -11.041  0.00  0.00    -0.082 HD
ENDBRANCH  28  30
ENDBRANCH  10  25
BRANCH   2  38
ATOM     38  C   UNL     1       4.150   1.093  -2.831  0.00  0.00    +0.339 C 
ATOM     39  O   UNL     1       5.117   1.828  -2.921  0.00  0.00    -0.245 OA
BRANCH  38  40
ATOM     40  O   UNL     1       3.319   1.196  -1.770  0.00  0.00    -0.465 OA
ATOM     41  C   UNL     1       3.636   2.190  -0.793  0.00  0.00    +0.280 C 
ENDBRANCH  38  40
ENDBRANCH   2  38
TORSDOF 9
