REMARK  Name = ZINC44854599
REMARK  8 active torsions:
REMARK  status: ('A' for Active; 'I' for Inactive)
REMARK    1  A    between atoms: C_1  and  O_2
REMARK    2  A    between atoms: O_2  and  C_3
REMARK    3  A    between atoms: C_6  and  C_9
REMARK    4  A    between atoms: C_9  and  C_10
REMARK    5  A    between atoms: C_10  and  N_11
REMARK    6  A    between atoms: C_14  and  C_29
REMARK    7  A    between atoms: C_16  and  N_28
REMARK    8  A    between atoms: N_17  and  C_21
REMARK                            x       y       z     vdW  Elec       q    Type
REMARK                         _______ _______ _______ _____ _____    ______ ____
ROOT
ATOM      1  N   UNL     1      -6.560  -3.832  -1.380  0.00  0.00    -0.313 N 
ATOM      2  C   UNL     1      -7.316  -3.912  -2.536  0.00  0.00    +0.218 A 
ATOM      3  N   UNL     1      -8.520  -4.473  -2.462  0.00  0.00    -0.214 NA
ATOM      4  C   UNL     1      -9.310  -4.590  -3.522  0.00  0.00    +0.091 A 
ATOM      5  C   UNL     1      -8.845  -4.098  -4.762  0.00  0.00    +0.086 A 
ATOM      6  C   UNL     1      -9.344  -4.030  -6.057  0.00  0.00    +0.131 A 
ATOM      7  N   UNL     1      -8.408  -3.434  -6.821  0.00  0.00    -0.216 N 
ATOM      8  N   UNL     1      -7.294  -3.107  -6.041  0.00  0.00    -0.144 NA
ATOM      9  C   UNL     1      -7.505  -3.484  -4.799  0.00  0.00    +0.189 A 
ATOM     10  N   UNL     1      -6.807  -3.424  -3.648  0.00  0.00    -0.193 NA
ATOM     11  H   UNL     1      -6.910  -4.184  -0.547  0.00  0.00    +0.149 HD
ENDROOT
BRANCH   7  12
ATOM     12  C   UNL     1      -8.533  -3.179  -8.193  0.00  0.00    +0.068 A 
ATOM     13  C   UNL     1      -9.219  -4.072  -9.007  0.00  0.00    +0.030 A 
ATOM     14  C   UNL     1      -9.340  -3.819 -10.359  0.00  0.00    +0.040 A 
ATOM     15  C   UNL     1      -8.780  -2.676 -10.903  0.00  0.00    +0.124 A 
ATOM     16  C   UNL     1      -8.095  -1.785 -10.094  0.00  0.00    +0.040 A 
ATOM     17  C   UNL     1      -7.976  -2.031  -8.741  0.00  0.00    +0.030 A 
ATOM     18  F   UNL     1      -8.900  -2.431 -12.227  0.00  0.00    -0.205 F 
ENDBRANCH   7  12
BRANCH   4  19
ATOM     19  C   UNL     1     -10.644  -5.220  -3.408  0.00  0.00    +0.036 A 
ATOM     20  C   UNL     1     -10.966  -6.328  -4.192  0.00  0.00    +0.013 A 
ATOM     21  C   UNL     1     -12.210  -6.911  -4.081  0.00  0.00    +0.001 A 
ATOM     22  C   UNL     1     -13.142  -6.399  -3.194  0.00  0.00    +0.003 A 
ATOM     23  C   UNL     1     -12.833  -5.302  -2.413  0.00  0.00    +0.039 A 
ATOM     24  C   UNL     1     -11.586  -4.711  -2.510  0.00  0.00    +0.133 A 
ATOM     25  F   UNL     1     -11.282  -3.641  -1.743  0.00  0.00    -0.205 F 
ENDBRANCH   4  19
BRANCH   6  26
ATOM     26  N   UNL     1     -10.575  -4.491  -6.483  0.00  0.00    -0.342 N 
ATOM     27  H   UNL     1     -11.175  -4.923  -5.855  0.00  0.00    +0.144 HD
ATOM     28  H   UNL     1     -10.840  -4.383  -7.410  0.00  0.00    +0.144 HD
ENDBRANCH   6  26
BRANCH   1  29
ATOM     29  C   UNL     1      -5.231  -3.217  -1.416  0.00  0.00    +0.109 C 
BRANCH  29  30
ATOM     30  C   UNL     1      -4.614  -3.256  -0.016  0.00  0.00    +0.054 C 
BRANCH  30  34
ATOM     31  C   UNL     1      -0.737  -1.461  -0.119  0.00  0.00    +0.120 A 
ATOM     32  C   UNL     1      -1.856  -0.684   0.144  0.00  0.00    +0.046 A 
ATOM     33  C   UNL     1      -3.108  -1.266   0.176  0.00  0.00    +0.007 A 
ATOM     34  C   UNL     1      -3.247  -2.623  -0.053  0.00  0.00    -0.046 A 
ATOM     35  C   UNL     1      -2.133  -3.400  -0.314  0.00  0.00    +0.007 A 
ATOM     36  C   UNL     1      -0.880  -2.821  -0.353  0.00  0.00    +0.046 A 
BRANCH  31  38
ATOM     37  C   UNL     1       0.567   0.515   0.100  0.00  0.00    +0.277 C 
ATOM     38  O   UNL     1       0.495  -0.890  -0.151  0.00  0.00    -0.495 OA
ENDBRANCH  31  38
ENDBRANCH  30  34
ENDBRANCH  29  30
ENDBRANCH   1  29
TORSDOF 7
