REMARK  Name = ZINC10040709
REMARK  10 active torsions:
REMARK  status: ('A' for Active; 'I' for Inactive)
REMARK    1  A    between atoms: C_1  and  C_2
REMARK    2  A    between atoms: C_2  and  C_3
REMARK    3  A    between atoms: C_2  and  C_4
REMARK    4  A    between atoms: C_4  and  C_6
REMARK    5  A    between atoms: C_4  and  N_21
REMARK    6  A    between atoms: N_8  and  N_9
REMARK    7  A    between atoms: N_9  and  C_10
REMARK    8  A    between atoms: C_15  and  O_18
REMARK    9  A    between atoms: O_18  and  C_19
REMARK   10  A    between atoms: C_22  and  C_24
REMARK                            x       y       z     vdW  Elec       q    Type
REMARK                         _______ _______ _______ _____ _____    ______ ____
ROOT
ATOM      1  C   UNL     1      -2.375  -0.017   0.803  0.00  0.00    +0.250 C 
ATOM      2  O   UNL     1      -3.391   0.525   0.424  0.00  0.00    -0.272 OA
ATOM      3  N   UNL     1      -2.098  -0.086   2.120  0.00  0.00    -0.235 N 
ATOM      4  H   UNL     1      -1.321  -0.578   2.428  0.00  0.00    +0.173 HD
ENDROOT
BRANCH   3   5
ATOM      5  N   UNL     1      -2.934   0.552   3.046  0.00  0.00    -0.271 N 
ATOM      6  H   UNL     1      -3.712   1.044   2.738  0.00  0.00    +0.169 HD
BRANCH   5   7
ATOM      7  C   UNL     1      -2.659   0.484   4.357  0.00  0.00    +0.099 C 
ATOM      8  C   UNL     1      -3.492   1.120   5.280  0.00  0.00    +0.041 C 
ATOM      9  C   UNL     1      -4.633   1.836   4.849  0.00  0.00    +0.028 C 
ATOM     10  C   UNL     1      -5.433   2.449   5.760  0.00  0.00    +0.022 C 
ATOM     11  C   UNL     1      -5.159   2.392   7.125  0.00  0.00    +0.065 C 
ATOM     12  C   UNL     1      -4.075   1.720   7.608  0.00  0.00    +0.168 C 
ATOM     13  C   UNL     1      -3.207   1.055   6.717  0.00  0.00    +0.229 C 
ATOM     14  O   UNL     1      -2.233   0.443   7.134  0.00  0.00    -0.283 OA
ATOM     15 BR   UNL     1      -6.954   3.401   5.162  0.00  0.00    -0.050 Br
BRANCH  12  16
ATOM     16  O   UNL     1      -3.836   1.685   8.947  0.00  0.00    -0.491 OA
ATOM     17  C   UNL     1      -4.761   2.375   9.789  0.00  0.00    +0.277 C 
ENDBRANCH  12  16
ENDBRANCH   5   7
ENDBRANCH   3   5
BRANCH   1  18
ATOM     18  C   UNL     1      -1.420  -0.614  -0.199  0.00  0.00    +0.163 C 
BRANCH  18  19
ATOM     19  N   UNL     1      -2.146  -0.944  -1.428  0.00  0.00    -0.300 N 
ATOM     20  C   UNL     1      -1.680  -1.905  -2.249  0.00  0.00    +0.245 C 
ATOM     21  O   UNL     1      -0.657  -2.500  -1.969  0.00  0.00    -0.270 OA
ATOM     22  H   UNL     1      -2.962  -0.469  -1.651  0.00  0.00    +0.150 HD
BRANCH  20  23
ATOM     23  C   UNL     1      -2.412  -2.238  -3.489  0.00  0.00    +0.038 A 
ATOM     24  C   UNL     1      -3.584  -1.553  -3.816  0.00  0.00    +0.014 A 
ATOM     25  C   UNL     1      -4.263  -1.867  -4.974  0.00  0.00    +0.022 A 
ATOM     26  C   UNL     1      -3.786  -2.861  -5.813  0.00  0.00    +0.059 A 
ATOM     27  C   UNL     1      -2.623  -3.544  -5.494  0.00  0.00    +0.060 A 
ATOM     28  C   UNL     1      -1.931  -3.234  -4.341  0.00  0.00    +0.034 A 
ATOM     29 CL   UNL     1      -2.031  -4.787  -6.551  0.00  0.00    -0.082 Cl
ATOM     30 CL   UNL     1      -4.647  -3.251  -7.268  0.00  0.00    -0.082 Cl
ENDBRANCH  20  23
ENDBRANCH  18  19
BRANCH  18  32
ATOM     31  C   UNL     1       0.730  -0.258  -1.420  0.00  0.00    +0.009 C 
ATOM     32  C   UNL     1      -0.315   0.396  -0.515  0.00  0.00    +0.012 C 
ATOM     33  C   UNL     1      -0.920   1.608  -1.227  0.00  0.00    +0.009 C 
ENDBRANCH  18  32
ENDBRANCH   1  18
TORSDOF 7
