REMARK  Name = ZINC04029269
REMARK  9 active torsions:
REMARK  status: ('A' for Active; 'I' for Inactive)
REMARK    1  A    between atoms: C_1  and  O_2
REMARK    2  A    between atoms: O_2  and  C_3
REMARK    3  A    between atoms: C_3  and  C_4
REMARK    4  A    between atoms: C_6  and  C_12
REMARK    5  A    between atoms: C_9  and  O_10
REMARK    6  A    between atoms: O_10  and  C_11
REMARK    7  A    between atoms: C_25  and  C_27
REMARK    8  A    between atoms: C_27  and  O_29
REMARK    9  A    between atoms: O_29  and  C_30
REMARK                            x       y       z     vdW  Elec       q    Type
REMARK                         _______ _______ _______ _____ _____    ______ ____
ROOT
ATOM      1  C   UNL     1       1.239   2.188   0.002  0.00  0.00    +0.008 C 
ATOM      2  C   UNL     1      -0.016   1.348   0.009  0.00  0.00    +0.010 A 
ATOM      3  C   UNL     1       0.002  -0.004   0.002  0.00  0.00    -0.021 A 
ATOM      4  C   UNL     1      -1.373  -0.450   0.013  0.00  0.00    +0.003 A 
ATOM      5  C   UNL     1      -1.961  -1.719   0.013  0.00  0.00    +0.010 A 
ATOM      6  C   UNL     1      -3.333  -1.768   0.026  0.00  0.00    +0.001 A 
ATOM      7  C   UNL     1      -4.111  -0.621   0.036  0.00  0.00    +0.002 A 
ATOM      8  C   UNL     1      -3.556   0.647   0.037  0.00  0.00    +0.026 A 
ATOM      9  C   UNL     1      -2.165   0.728   0.026  0.00  0.00    +0.047 A 
ATOM     10  N   UNL     1      -1.310   1.793   0.018  0.00  0.00    -0.359 N 
ATOM     11  H   UNL     1      -1.580   2.725   0.025  0.00  0.00    +0.166 HD
ATOM     12  C   UNL     1       1.271  -0.819  -0.016  0.00  0.00    +0.033 C 
ATOM     13  C   UNL     1       2.424   0.110  -0.422  0.00  0.00    +0.045 C 
ATOM     14  N   UNL     1       2.383   1.338   0.398  0.00  0.00    +0.396 N 
ATOM     15  H   UNL     1       2.286   1.080   1.387  0.00  0.00    -0.083 HD
ATOM     16  H   UNL     1       3.256   1.862   0.265  0.00  0.00    -0.083 HD
ENDROOT
BRANCH   1  19
ATOM     17  C   UNL     1       0.633   5.622   1.448  0.00  0.00    +0.020 A 
ATOM     18  C   UNL     1       0.768   4.585   0.544  0.00  0.00    +0.011 A 
ATOM     19  C   UNL     1       1.098   3.319   0.989  0.00  0.00    -0.055 A 
ATOM     20  C   UNL     1       1.303   3.088   2.337  0.00  0.00    +0.006 A 
ATOM     21  C   UNL     1       1.174   4.122   3.243  0.00  0.00    +0.046 A 
ATOM     22  C   UNL     1       0.838   5.393   2.800  0.00  0.00    +0.125 A 
BRANCH  22  23
ATOM     23  O   UNL     1       0.711   6.413   3.690  0.00  0.00    -0.495 OA
ATOM     24  C   UNL     1       0.937   6.104   5.067  0.00  0.00    +0.277 C 
ENDBRANCH  22  23
BRANCH  17  25
ATOM     25  C   UNL     1       0.267   7.002   0.963  0.00  0.00    +0.198 C 
BRANCH  25  27
ATOM     26  C   UNL     1      -0.239   8.247  -1.021  0.00  0.00    +0.194 C 
ATOM     27  O   UNL     1       0.110   6.982  -0.457  0.00  0.00    -0.378 OA
ENDBRANCH  25  27
ENDBRANCH  17  25
ENDBRANCH   1  19
BRANCH  13  28
ATOM     28  C   UNL     1       3.738  -0.591  -0.192  0.00  0.00    +0.293 C 
ATOM     29  O   UNL     1       4.388  -0.349   0.797  0.00  0.00    -0.253 OA
BRANCH  28  30
ATOM     30  O   UNL     1       4.188  -1.485  -1.087  0.00  0.00    -0.469 OA
ATOM     31  C   UNL     1       5.461  -2.122  -0.801  0.00  0.00    +0.280 C 
ENDBRANCH  28  30
ENDBRANCH  13  28
TORSDOF 6
