REMARK  Name = ZINC01883835
REMARK  12 active torsions:
REMARK  status: ('A' for Active; 'I' for Inactive)
REMARK    1  A    between atoms: C_1  and  C_2
REMARK    2  A    between atoms: C_2  and  O_3
REMARK    3  A    between atoms: O_3  and  C_4
REMARK    4  A    between atoms: C_4  and  C_6
REMARK    5  A    between atoms: C_7  and  N_38
REMARK    6  A    between atoms: C_12  and  C_13
REMARK    7  A    between atoms: C_22  and  C_32
REMARK    8  A    between atoms: C_23  and  C_25
REMARK    9  A    between atoms: C_32  and  O_34
REMARK   10  A    between atoms: O_34  and  C_35
REMARK   11  A    between atoms: C_35  and  C_36
REMARK   12  A    between atoms: C_35  and  C_37
REMARK                            x       y       z     vdW  Elec       q    Type
REMARK                         _______ _______ _______ _____ _____    ______ ____
ROOT
ATOM      1  C   UNL     1       2.804   3.449  -0.913  0.00  0.00    +0.087 C 
ATOM      2  C   UNL     1       3.954   2.917  -0.437  0.00  0.00    +0.115 C 
ATOM      3  N   UNL     1       4.071   1.606   0.031  0.00  0.00    -0.257 N 
ATOM      4  C   UNL     1       5.224   1.090   0.503  0.00  0.00    +0.271 A 
ATOM      5  O   UNL     1       6.237   1.762   0.542  0.00  0.00    -0.266 OA
ATOM      6  C   UNL     1       5.228  -0.302   0.968  0.00  0.00    +0.080 A 
ATOM      7  C   UNL     1       6.248  -1.037   1.479  0.00  0.00    +0.031 C 
ATOM      8  S   UNL     1       3.528  -0.767   0.681  0.00  0.00    -0.065 S 
ATOM      9  C   UNL     1       2.962   0.785   0.015  0.00  0.00    +0.100 A 
ATOM     10  C   UNL     1       1.726   1.169  -0.434  0.00  0.00    +0.079 C 
ATOM     11  C   UNL     1       1.561   2.583  -0.956  0.00  0.00    +0.101 C 
ENDROOT
BRANCH   7  12
ATOM     12  C   UNL     1       6.068  -2.475   1.721  0.00  0.00    +0.011 A 
ATOM     13  C   UNL     1       5.029  -3.170   1.090  0.00  0.00    +0.011 A 
ATOM     14  C   UNL     1       4.867  -4.519   1.323  0.00  0.00    +0.001 A 
ATOM     15  C   UNL     1       5.728  -5.188   2.176  0.00  0.00    +0.003 A 
ATOM     16  C   UNL     1       6.758  -4.511   2.804  0.00  0.00    +0.039 A 
ATOM     17  C   UNL     1       6.939  -3.160   2.579  0.00  0.00    +0.131 A 
ATOM     18  F   UNL     1       7.949  -2.500   3.188  0.00  0.00    -0.205 F 
ENDBRANCH   7  12
BRANCH  11  19
ATOM     19  C   UNL     1       1.081   2.507  -2.382  0.00  0.00    +0.000 A 
ATOM     20  C   UNL     1       1.850   1.868  -3.337  0.00  0.00    +0.007 A 
ATOM     21  C   UNL     1       1.411   1.797  -4.645  0.00  0.00    +0.000 A 
ATOM     22  C   UNL     1       0.201   2.365  -5.001  0.00  0.00    +0.003 A 
ATOM     23  C   UNL     1      -0.569   3.006  -4.049  0.00  0.00    +0.038 A 
ATOM     24  C   UNL     1      -0.132   3.072  -2.736  0.00  0.00    +0.127 A 
ATOM     25  F   UNL     1      -0.887   3.693  -1.803  0.00  0.00    -0.205 F 
ENDBRANCH  11  19
BRANCH   2  26
ATOM     26  N   UNL     1       5.070   3.713  -0.412  0.00  0.00    -0.344 N 
ATOM     27  H   UNL     1       5.926   3.356  -0.696  0.00  0.00    +0.144 HD
ATOM     28  H   UNL     1       5.003   4.632  -0.111  0.00  0.00    +0.144 HD
ENDBRANCH   2  26
BRANCH   1  29
ATOM     29  C   UNL     1       2.765   4.776  -1.366  0.00  0.00    +0.339 C 
ATOM     30  O   UNL     1       3.790   5.431  -1.422  0.00  0.00    -0.245 OA
BRANCH  29  31
ATOM     31  O   UNL     1       1.590   5.328  -1.740  0.00  0.00    -0.462 OA
BRANCH  31  33
ATOM     32  C   UNL     1       0.211   7.131  -2.567  0.00  0.00    +0.048 C 
ATOM     33  C   UNL     1       1.624   6.684  -2.190  0.00  0.00    +0.229 C 
ENDBRANCH  31  33
ENDBRANCH  29  31
ENDBRANCH   1  29
BRANCH  10  34
ATOM     34  C   UNL     1       0.645   0.277  -0.418  0.00  0.00    +0.339 C 
ATOM     35  O   UNL     1       0.798  -0.857  -0.001  0.00  0.00    -0.245 OA
BRANCH  34  36
ATOM     36  O   UNL     1      -0.564   0.673  -0.872  0.00  0.00    -0.459 OA
BRANCH  36  37
ATOM     37  C   UNL     1      -1.619  -0.290  -0.832  0.00  0.00    +0.171 C 
ATOM     38  C   UNL     1      -2.958   0.427  -0.642  0.00  0.00    +0.052 C 
ATOM     39  C   UNL     1      -1.643  -1.075  -2.144  0.00  0.00    +0.052 C 
ENDBRANCH  36  37
ENDBRANCH  34  36
ENDBRANCH  10  34
TORSDOF 9
