REMARK  Name = ZINC13071565
REMARK  9 active torsions:
REMARK  status: ('A' for Active; 'I' for Inactive)
REMARK    1  A    between atoms: C_1  and  C_2
REMARK    2  A    between atoms: C_2  and  C_3
REMARK    3  A    between atoms: C_2  and  C_4
REMARK    4  A    between atoms: C_2  and  C_5
REMARK    5  A    between atoms: C_8  and  C_11
REMARK    6  A    between atoms: N_13  and  C_24
REMARK    7  A    between atoms: N_16  and  C_17
REMARK    8  A    between atoms: C_24  and  N_63
REMARK    9  A    between atoms: C_29  and  C_31
REMARK                            x       y       z     vdW  Elec       q    Type
REMARK                         _______ _______ _______ _____ _____    ______ ____
ROOT
ATOM      1  C   UNL     1      -0.857   4.563  -2.877  0.00  0.00    +0.167 A 
ATOM      2  N   UNL     1      -0.081   3.783  -2.178  0.00  0.00    -0.152 NA
ATOM      3  N   UNL     1      -0.813   2.639  -1.833  0.00  0.00    -0.257 N 
ATOM      4  C   UNL     1      -2.047   2.771  -2.361  0.00  0.00    +0.181 A 
ATOM      5  S   UNL     1      -3.326   1.640  -2.235  0.00  0.00    -0.011 S 
ATOM      6  N   UNL     1      -2.092   3.955  -3.003  0.00  0.00    -0.271 N 
ENDROOT
BRANCH   6   7
ATOM      7  C   UNL     1      -3.199   4.478  -3.686  0.00  0.00    +0.051 A 
ATOM      8  C   UNL     1      -3.848   5.604  -3.199  0.00  0.00    +0.028 A 
ATOM      9  C   UNL     1      -4.935   6.120  -3.876  0.00  0.00    +0.022 A 
ATOM     10  C   UNL     1      -5.384   5.509  -5.034  0.00  0.00    +0.041 A 
ATOM     11  C   UNL     1      -4.742   4.383  -5.518  0.00  0.00    +0.022 A 
ATOM     12  C   UNL     1      -3.651   3.866  -4.847  0.00  0.00    +0.028 A 
ATOM     13 CL   UNL     1      -6.756   6.156  -5.879  0.00  0.00    -0.084 Cl
ENDBRANCH   6   7
BRANCH   1  17
ATOM     14  C   UNL     1       0.228   8.338  -4.498  0.00  0.00    -0.042 A 
ATOM     15  C   UNL     1       0.829   7.889  -3.336  0.00  0.00    +0.005 A 
ATOM     16  C   UNL     1       0.481   6.664  -2.804  0.00  0.00    +0.012 A 
ATOM     17  C   UNL     1      -0.479   5.878  -3.442  0.00  0.00    +0.020 A 
ATOM     18  C   UNL     1      -1.077   6.333  -4.617  0.00  0.00    +0.012 A 
ATOM     19  C   UNL     1      -0.725   7.563  -5.135  0.00  0.00    +0.005 A 
BRANCH  14  21
ATOM     20  C   UNL     1       2.107   9.681  -5.401  0.00  0.00    +0.015 C 
ATOM     21  C   UNL     1       0.612   9.677  -5.072  0.00  0.00    -0.013 C 
ATOM     22  C   UNL     1      -0.192   9.934  -6.348  0.00  0.00    +0.015 C 
ATOM     23  C   UNL     1       0.312  10.775  -4.050  0.00  0.00    +0.015 C 
ENDBRANCH  14  21
ENDBRANCH   1  17
BRANCH   3  24
ATOM     24  C   UNL     1      -0.324   1.502  -1.048  0.00  0.00    +0.073 C 
BRANCH  24  30
ATOM     25  C   UNL     1      -2.024   1.683   0.666  0.00  0.00    -0.075 C 
ATOM     26  C   UNL     1      -2.247   1.793   2.176  0.00  0.00    -0.019 C 
ATOM     27  C   UNL     1      -1.662   3.116   2.679  0.00  0.00    -0.003 C 
ATOM     28  C   UNL     1      -0.174   3.175   2.322  0.00  0.00    -0.006 C 
ATOM     29  C   UNL     1      -0.011   3.025   0.808  0.00  0.00    +0.022 C 
ATOM     30  N   UNL     1      -0.572   1.721   0.392  0.00  0.00    +0.400 N 
ATOM     31  H   UNL     1      -0.112   0.975   0.926  0.00  0.00    -0.078 HD
BRANCH  29  32
ATOM     32  C   UNL     1       1.454   3.062   0.455  0.00  0.00    +0.197 C 
ATOM     33  O   UNL     1       2.091   2.031   0.400  0.00  0.00    -0.278 OA
ATOM     34  N   UNL     1       2.056   4.241   0.200  0.00  0.00    -0.331 N 
ATOM     35  H   UNL     1       1.546   5.065   0.244  0.00  0.00    +0.145 HD
ATOM     36  H   UNL     1       2.998   4.265  -0.027  0.00  0.00    +0.145 HD
ENDBRANCH  29  32
ENDBRANCH  24  30
ENDBRANCH   3  24
TORSDOF 6
