REMARK  Name = ZINC64305058
REMARK  5 active torsions:
REMARK  status: ('A' for Active; 'I' for Inactive)
REMARK    1  A    between atoms: C_1  and  C_2
REMARK    2  A    between atoms: C_8  and  C_10
REMARK    3  A    between atoms: C_13  and  N_16
REMARK    4  A    between atoms: C_17  and  C_19
REMARK    5  A    between atoms: N_25  and  C_28
REMARK                            x       y       z     vdW  Elec       q    Type
REMARK                         _______ _______ _______ _____ _____    ______ ____
ROOT
ATOM      1  N   UNL     1       6.232  -4.541  -0.112  0.00  0.00    -0.278 N 
ATOM      2  C   UNL     1       7.366  -3.822  -0.231  0.00  0.00    +0.303 C 
ATOM      3  O   UNL     1       7.312  -2.612  -0.305  0.00  0.00    -0.265 OA
ATOM      4  H   UNL     1       6.279  -5.500   0.026  0.00  0.00    +0.155 HD
ENDROOT
BRANCH   2   5
ATOM      5  C   UNL     1       8.689  -4.514  -0.269  0.00  0.00    +0.302 C 
ATOM      6  O   UNL     1       8.739  -5.726  -0.304  0.00  0.00    -0.265 OA
ATOM      7  N   UNL     1       9.828  -3.793  -0.265  0.00  0.00    -0.296 N 
ATOM      8  C   UNL     1      11.121  -4.505  -0.280  0.00  0.00    +0.106 C 
ATOM      9  C   UNL     1      12.121  -3.817  -1.227  0.00  0.00    +0.000 C 
ATOM     10  C   UNL     1      11.399  -3.358  -2.474  0.00  0.00    -0.077 C 
ATOM     11  N   UNL     1      10.974  -1.970  -2.303  0.00  0.00    +0.383 N 
ATOM     12  C   UNL     1       9.710  -1.805  -1.694  0.00  0.00    -0.059 C 
ATOM     13  C   UNL     1       9.738  -2.348  -0.252  0.00  0.00    +0.090 C 
ATOM     14  H   UNL     1      11.663  -1.494  -1.740  0.00  0.00    -0.081 HD
BRANCH  11  15
ATOM     15  C   UNL     1      10.940  -1.329  -3.624  0.00  0.00    -0.069 C 
ATOM     16  C   UNL     1      11.981  -0.246  -3.911  0.00  0.00    -0.017 C 
ATOM     17  C   UNL     1      10.518   0.140  -3.686  0.00  0.00    -0.017 C 
ENDBRANCH  11  15
ENDBRANCH   2   5
BRANCH   1  21
ATOM     18  C   UNL     1       2.531  -2.646  -0.343  0.00  0.00    +0.001 A 
ATOM     19  C   UNL     1       3.640  -2.092  -0.984  0.00  0.00    +0.012 A 
ATOM     20  C   UNL     1       4.864  -2.721  -0.906  0.00  0.00    +0.024 A 
ATOM     21  C   UNL     1       4.993  -3.906  -0.189  0.00  0.00    +0.034 A 
ATOM     22  C   UNL     1       3.889  -4.460   0.450  0.00  0.00    +0.024 A 
ATOM     23  C   UNL     1       2.665  -3.832   0.380  0.00  0.00    +0.012 A 
BRANCH  18  31
ATOM     24  C   UNL     1      -2.190  -2.557   0.851  0.00  0.00    +0.086 C 
ATOM     25  C   UNL     1      -1.024  -1.923   0.137  0.00  0.00    +0.107 A 
ATOM     26  N   UNL     1      -1.217  -0.777  -0.546  0.00  0.00    -0.311 N 
ATOM     27  H   UNL     1      -2.098  -0.373  -0.571  0.00  0.00    +0.170 HD
ATOM     28  C   UNL     1      -0.190  -0.188  -1.194  0.00  0.00    +0.252 A 
ATOM     29  O   UNL     1      -0.358   0.850  -1.812  0.00  0.00    -0.268 OA
ATOM     30  C   UNL     1       1.078  -0.794  -1.141  0.00  0.00    +0.098 A 
ATOM     31  C   UNL     1       1.215  -1.972  -0.425  0.00  0.00    +0.078 A 
ATOM     32  N   UNL     1       0.146  -2.496   0.200  0.00  0.00    -0.234 NA
ENDBRANCH  18  31
ENDBRANCH   1  21
TORSDOF 4
