REMARK  Name = ZINC34747496
REMARK  5 active torsions:
REMARK  status: ('A' for Active; 'I' for Inactive)
REMARK    1  A    between atoms: C_4  and  N_7
REMARK    2  A    between atoms: C_8  and  C_10
REMARK    3  A    between atoms: C_10  and  N_11
REMARK    4  A    between atoms: N_24  and  C_27
REMARK    5  A    between atoms: C_27  and  C_28
REMARK                            x       y       z     vdW  Elec       q    Type
REMARK                         _______ _______ _______ _____ _____    ______ ____
ROOT
ATOM      1  N   UNL     1       4.707  -3.488  -3.580  0.00  0.00    -0.271 N 
ATOM      2  C   UNL     1       5.987  -3.614  -3.185  0.00  0.00    +0.264 A 
ATOM      3  O   UNL     1       6.712  -2.637  -3.114  0.00  0.00    -0.267 OA
ATOM      4  C   UNL     1       6.485  -4.913  -2.847  0.00  0.00    +0.076 A 
ATOM      5  C   UNL     1       7.829  -5.281  -2.398  0.00  0.00    -0.023 A 
ATOM      6  C   UNL     1       8.053  -6.585  -2.141  0.00  0.00    -0.004 A 
ATOM      7  S   UNL     1       6.510  -7.391  -2.474  0.00  0.00    -0.073 S 
ATOM      8  C   UNL     1       5.566  -5.969  -2.962  0.00  0.00    +0.117 A 
ATOM      9  N   UNL     1       4.314  -5.776  -3.360  0.00  0.00    -0.208 NA
ATOM     10  C   UNL     1       3.880  -4.569  -3.659  0.00  0.00    +0.202 A 
ATOM     11  N   UNL     1       2.579  -4.398  -4.061  0.00  0.00    -0.304 N 
ATOM     12  C   UNL     1       2.209  -4.482  -5.483  0.00  0.00    +0.089 C 
ATOM     13  C   UNL     1       1.024  -5.444  -5.621  0.00  0.00    -0.059 C 
ATOM     14  N   UNL     1      -0.064  -5.009  -4.737  0.00  0.00    +0.387 N 
ATOM     15  C   UNL     1       0.362  -5.105  -3.335  0.00  0.00    -0.059 C 
ATOM     16  C   UNL     1       1.513  -4.132  -3.083  0.00  0.00    +0.089 C 
ATOM     17  C   UNL     1       9.331  -7.213  -1.674  0.00  0.00    +0.043 C 
ATOM     18  C   UNL     1      10.470  -6.205  -1.885  0.00  0.00    +0.005 C 
ATOM     19  C   UNL     1      10.031  -4.846  -1.333  0.00  0.00    +0.005 C 
ATOM     20  C   UNL     1       8.941  -4.250  -2.224  0.00  0.00    +0.037 C 
ATOM     21  H   UNL     1      -0.306  -4.052  -4.949  0.00  0.00    -0.081 HD
ENDROOT
BRANCH   1  22
ATOM     22  C   UNL     1       4.190  -2.162  -3.927  0.00  0.00    +0.223 C 
BRANCH  22  24
ATOM     23  N   UNL     1       3.210  -0.217  -2.753  0.00  0.00    -0.311 N 
ATOM     24  C   UNL     1       3.727  -1.460  -2.677  0.00  0.00    +0.233 C 
ATOM     25  O   UNL     1       3.820  -2.013  -1.601  0.00  0.00    -0.274 OA
ATOM     26  H   UNL     1       3.136   0.225  -3.613  0.00  0.00    +0.149 HD
BRANCH  23  30
ATOM     27  C   UNL     1       0.907   2.272  -0.165  0.00  0.00    +0.000 C 
ATOM     28  C   UNL     1       2.344   2.692  -0.483  0.00  0.00    +0.002 C 
ATOM     29  C   UNL     1       2.814   1.979  -1.753  0.00  0.00    +0.022 C 
ATOM     30  C   UNL     1       2.760   0.465  -1.537  0.00  0.00    +0.073 C 
ATOM     31  C   UNL     1       1.324   0.046  -1.219  0.00  0.00    +0.022 C 
ATOM     32  C   UNL     1       0.854   0.758   0.051  0.00  0.00    +0.002 C 
ENDBRANCH  23  30
ENDBRANCH  22  24
ENDBRANCH   1  22
BRANCH  14  33
ATOM     33  C   UNL     1      -1.238  -5.865  -4.950  0.00  0.00    +0.019 C 
BRANCH  33  34
ATOM     34  C   UNL     1      -2.394  -5.346  -4.135  0.00  0.00    +0.199 C 
ATOM     35  O   UNL     1      -2.253  -4.359  -3.444  0.00  0.00    -0.278 OA
ATOM     36  N   UNL     1      -3.584  -5.978  -4.173  0.00  0.00    -0.300 N 
ATOM     37  C   UNL     1      -4.397  -7.079  -4.694  0.00  0.00    +0.126 C 
ATOM     38  C   UNL     1      -4.974  -6.051  -3.718  0.00  0.00    +0.126 C 
ENDBRANCH  33  34
ENDBRANCH  14  33
TORSDOF 5
