REMARK  Name = ZINC08845440
REMARK  8 active torsions:
REMARK  status: ('A' for Active; 'I' for Inactive)
REMARK    1  A    between atoms: C_1  and  C_2
REMARK    2  A    between atoms: C_5  and  O_35
REMARK    3  A    between atoms: C_6  and  C_8
REMARK    4  A    between atoms: C_10  and  C_14
REMARK    5  A    between atoms: N_16  and  C_17
REMARK    6  A    between atoms: C_18  and  C_25
REMARK    7  A    between atoms: N_27  and  C_28
REMARK    8  A    between atoms: C_28  and  C_29
REMARK                            x       y       z     vdW  Elec       q    Type
REMARK                         _______ _______ _______ _____ _____    ______ ____
ROOT
ATOM      1  C   UNL     1      -0.785  -5.480   4.841  0.00  0.00    +0.269 C 
ATOM      2  O   UNL     1      -1.554  -6.269   4.325  0.00  0.00    -0.268 OA
ATOM      3  N   UNL     1      -0.379  -5.668   6.112  0.00  0.00    -0.274 N 
ATOM      4  H   UNL     1       0.235  -5.040   6.523  0.00  0.00    +0.156 HD
ENDROOT
BRANCH   3   5
ATOM      5  C   UNL     1      -0.837  -6.760   6.832  0.00  0.00    +0.085 A 
ATOM      6  C   UNL     1      -0.534  -7.107   8.136  0.00  0.00    +0.069 A 
ATOM      7  C   UNL     1      -1.155  -8.319   8.667  0.00  0.00    -0.023 A 
ATOM      8  C   UNL     1      -1.957  -8.954   7.793  0.00  0.00    -0.004 A 
ATOM      9  S   UNL     1      -1.892  -7.961   6.324  0.00  0.00    -0.077 S 
ATOM     10  C   UNL     1      -2.565 -10.195   8.389  0.00  0.00    +0.043 C 
ATOM     11  C   UNL     1      -1.698 -10.496   9.632  0.00  0.00    +0.010 C 
ATOM     12  C   UNL     1      -1.152  -9.097   9.982  0.00  0.00    +0.037 C 
BRANCH   6  13
ATOM     13  C   UNL     1       0.371  -6.293   8.951  0.00  0.00    +0.247 C 
ATOM     14  O   UNL     1      -0.072  -5.386   9.632  0.00  0.00    -0.270 OA
ATOM     15  N   UNL     1       1.695  -6.548   8.948  0.00  0.00    -0.309 N 
ATOM     16  H   UNL     1       2.048  -7.271   8.406  0.00  0.00    +0.149 HD
BRANCH  15  17
ATOM     17  C   UNL     1       2.600  -5.734   9.763  0.00  0.00    +0.136 C 
BRANCH  17  18
ATOM     18  C   UNL     1       4.036  -6.229   9.579  0.00  0.00    +0.135 C 
ATOM     19  C   UNL     1       5.006  -5.403  10.461  0.00  0.00    +0.035 C 
ATOM     20  C   UNL     1       6.175  -6.411  10.636  0.00  0.00    +0.031 C 
ATOM     21  C   UNL     1       5.437  -7.766  10.673  0.00  0.00    +0.160 C 
ATOM     22  O   UNL     1       4.160  -7.582  10.047  0.00  0.00    -0.375 OA
ENDBRANCH  17  18
ENDBRANCH  15  17
ENDBRANCH   6  13
ENDBRANCH   3   5
BRANCH   1  25
ATOM     23  C   UNL     1       0.052  -2.841   2.463  0.00  0.00    +0.070 A 
ATOM     24  C   UNL     1      -0.633  -3.991   2.742  0.00  0.00    +0.062 A 
ATOM     25  C   UNL     1      -0.296  -4.317   4.074  0.00  0.00    +0.148 A 
ATOM     26  N   UNL     1       0.534  -3.389   4.507  0.00  0.00    -0.169 NA
ATOM     27  N   UNL     1       0.757  -2.521   3.586  0.00  0.00    -0.276 N 
ATOM     28  H   UNL     1       1.339  -1.750   3.676  0.00  0.00    +0.189 HD
BRANCH  23  34
ATOM     29  C   UNL     1      -0.018   1.503   0.010  0.00  0.00    +0.044 C 
ATOM     30  C   UNL     1       0.002  -0.004   0.002  0.00  0.00    -0.050 A 
ATOM     31  C   UNL     1       0.006  -0.687  -1.202  0.00  0.00    +0.007 A 
ATOM     32  C   UNL     1       0.024  -2.069  -1.221  0.00  0.00    +0.046 A 
ATOM     33  C   UNL     1       0.040  -2.779  -0.031  0.00  0.00    +0.126 A 
ATOM     34  C   UNL     1       0.036  -2.092   1.188  0.00  0.00    +0.041 A 
ATOM     35  C   UNL     1       0.023  -0.698   1.195  0.00  0.00    +0.017 A 
BRANCH  33  36
ATOM     36  O   UNL     1       0.058  -4.137  -0.049  0.00  0.00    -0.506 OA
ATOM     37  H   UNL     1       0.946  -4.519  -0.058  0.00  0.00    +0.292 HD
ENDBRANCH  33  36
ENDBRANCH  23  34
ENDBRANCH   1  25
TORSDOF 7
