REMARK  Name = ZINC36624890
REMARK  10 active torsions:
REMARK  status: ('A' for Active; 'I' for Inactive)
REMARK    1  A    between atoms: C_1  and  C_2
REMARK    2  A    between atoms: C_2  and  C_3
REMARK    3  A    between atoms: C_3  and  N_4
REMARK    4  A    between atoms: C_5  and  C_7
REMARK    5  A    between atoms: C_7  and  C_9
REMARK    6  A    between atoms: C_7  and  N_10
REMARK    7  A    between atoms: C_11  and  C_13
REMARK    8  A    between atoms: C_16  and  C_19
REMARK    9  A    between atoms: C_19  and  N_20
REMARK   10  A    between atoms: C_21  and  C_23
REMARK                            x       y       z     vdW  Elec       q    Type
REMARK                         _______ _______ _______ _____ _____    ______ ____
ROOT
ATOM      1  C   UNL     1      -5.574  -6.442   0.514  0.00  0.00    +0.037 A 
ATOM      2  C   UNL     1      -6.614  -5.658   0.013  0.00  0.00    +0.013 A 
ATOM      3  C   UNL     1      -7.906  -6.142   0.025  0.00  0.00    +0.006 A 
ATOM      4  C   UNL     1      -8.172  -7.401   0.533  0.00  0.00    -0.030 A 
ATOM      5  C   UNL     1      -7.145  -8.183   1.032  0.00  0.00    +0.006 A 
ATOM      6  C   UNL     1      -5.848  -7.714   1.020  0.00  0.00    +0.013 A 
ENDROOT
BRANCH   1   8
ATOM      7  N   UNL     1      -3.925  -4.702   0.014  0.00  0.00    -0.300 N 
ATOM      8  C   UNL     1      -4.187  -5.930   0.503  0.00  0.00    +0.245 C 
ATOM      9  O   UNL     1      -3.282  -6.617   0.936  0.00  0.00    -0.270 OA
ATOM     10  H   UNL     1      -4.647  -4.154  -0.331  0.00  0.00    +0.150 HD
BRANCH   7  11
ATOM     11  C   UNL     1      -2.551  -4.195   0.004  0.00  0.00    +0.156 C 
ATOM     12  C   UNL     1      -1.835  -4.688  -1.255  0.00  0.00    +0.038 C 
BRANCH  11  14
ATOM     13  N   UNL     1      -1.413  -1.998   0.005  0.00  0.00    -0.314 N 
ATOM     14  C   UNL     1      -2.571  -2.688   0.012  0.00  0.00    +0.233 C 
ATOM     15  O   UNL     1      -3.630  -2.096   0.025  0.00  0.00    -0.274 OA
ATOM     16  H   UNL     1      -0.567  -2.472  -0.006  0.00  0.00    +0.149 HD
BRANCH  13  17
ATOM     17  C   UNL     1      -1.433  -0.534   0.013  0.00  0.00    +0.104 C 
BRANCH  17  19
ATOM     18  C   UNL     1      -0.019   1.526   0.010  0.00  0.00    +0.005 C 
ATOM     19  C   UNL     1       0.002  -0.004   0.002  0.00  0.00    +0.015 C 
ENDBRANCH  17  19
ENDBRANCH  13  17
ENDBRANCH  11  14
ENDBRANCH   7  11
ENDBRANCH   1   8
BRANCH   4  20
ATOM     20  C   UNL     1      -9.585  -7.923   0.544  0.00  0.00    +0.139 C 
BRANCH  20  21
ATOM     21  N   UNL     1      -9.851  -8.638  -0.707  0.00  0.00    -0.311 N 
ATOM     22  C   UNL     1     -11.060  -9.194  -0.921  0.00  0.00    +0.219 C 
ATOM     23  O   UNL     1     -11.928  -9.102  -0.078  0.00  0.00    -0.275 OA
ATOM     24  H   UNL     1      -9.157  -8.712  -1.380  0.00  0.00    +0.149 HD
BRANCH  22  25
ATOM     25  C   UNL     1     -11.334  -9.930  -2.207  0.00  0.00    +0.048 C 
ATOM     26  C   UNL     1     -11.151  -8.977  -3.389  0.00  0.00    +0.019 C 
ATOM     27  C   UNL     1     -11.429  -9.724  -4.695  0.00  0.00    -0.009 C 
ATOM     28  C   UNL     1     -12.864 -10.254  -4.684  0.00  0.00    +0.007 C 
ATOM     29  C   UNL     1     -13.047 -11.207  -3.502  0.00  0.00    -0.009 C 
ATOM     30  C   UNL     1     -12.769 -10.460  -2.196  0.00  0.00    +0.019 C 
ATOM     31  C   UNL     1     -12.072 -12.379  -3.636  0.00  0.00    +0.007 C 
ATOM     32  C   UNL     1     -10.637 -11.849  -3.647  0.00  0.00    -0.009 C 
ATOM     33  C   UNL     1     -10.454 -10.896  -4.829  0.00  0.00    +0.007 C 
ATOM     34  C   UNL     1     -10.359 -11.102  -2.341  0.00  0.00    +0.019 C 
ENDBRANCH  22  25
ENDBRANCH  20  21
ENDBRANCH   4  20
TORSDOF 8
