REMARK  Name = ZINC33078426
REMARK  8 active torsions:
REMARK  status: ('A' for Active; 'I' for Inactive)
REMARK    1  A    between atoms: C_1  and  C_2
REMARK    2  A    between atoms: C_2  and  C_3
REMARK    3  A    between atoms: C_16  and  C_19
REMARK    4  A    between atoms: N_21  and  C_22
REMARK    5  A    between atoms: C_22  and  C_23
REMARK    6  A    between atoms: C_23  and  C_24
REMARK    7  A    between atoms: C_24  and  N_25
REMARK    8  A    between atoms: C_28  and  N_31
REMARK                            x       y       z     vdW  Elec       q    Type
REMARK                         _______ _______ _______ _____ _____    ______ ____
ROOT
ATOM      1  C   UNL     1      -3.075  -2.624  -2.641  0.00  0.00    +0.218 C 
ATOM      2  O   UNL     1      -2.236  -2.557  -3.514  0.00  0.00    -0.275 OA
ATOM      3  N   UNL     1      -4.235  -3.272  -2.869  0.00  0.00    -0.315 N 
ATOM      4  H   UNL     1      -4.995  -3.333  -2.076  0.00  0.00    +0.149 HD
ENDROOT
BRANCH   1  18
ATOM      5  C   UNL     1      -0.868   3.559  -0.878  0.00  0.00    -0.008 A 
ATOM      6  C   UNL     1      -1.109   2.264  -0.627  0.00  0.00    +0.024 A 
ATOM      7  C   UNL     1       0.000   1.386  -0.300  0.00  0.00    +0.048 A 
ATOM      8  C   UNL     1       0.002  -0.004   0.002  0.00  0.00    +0.133 A 
ATOM      9  N   UNL     1       1.150  -0.603   0.275  0.00  0.00    -0.220 NA
ATOM     10  C   UNL     1       2.300   0.047   0.276  0.00  0.00    +0.224 A 
ATOM     11  N   UNL     1       2.362   1.335   0.005  0.00  0.00    -0.228 NA
ATOM     12  C   UNL     1       1.266   2.011  -0.278  0.00  0.00    +0.113 A 
ATOM     13  S   UNL     1       0.900   3.697  -0.689  0.00  0.00    -0.074 S 
ATOM     14  N   UNL     1      -1.181  -0.720   0.010  0.00  0.00    -0.314 N 
ATOM     15  C   UNL     1      -1.175  -1.736   1.071  0.00  0.00    +0.106 C 
ATOM     16  C   UNL     1      -2.548  -2.408   1.144  0.00  0.00    +0.020 C 
ATOM     17  C   UNL     1      -2.867  -3.055  -0.206  0.00  0.00    +0.016 C 
ATOM     18  C   UNL     1      -2.820  -1.985  -1.300  0.00  0.00    +0.092 C 
ATOM     19  C   UNL     1      -1.439  -1.326  -1.303  0.00  0.00    +0.119 C 
BRANCH   5  21
ATOM     20  C   UNL     1      -2.363   5.309   0.045  0.00  0.00    +0.009 C 
ATOM     21  C   UNL     1      -1.855   4.640  -1.234  0.00  0.00    +0.039 C 
ENDBRANCH   5  21
ENDBRANCH   1  18
BRANCH   3  22
ATOM     22  C   UNL     1      -4.483  -3.894  -4.172  0.00  0.00    +0.105 C 
BRANCH  22  23
ATOM     23  C   UNL     1      -5.861  -4.557  -4.167  0.00  0.00    +0.034 C 
BRANCH  23  24
ATOM     24  C   UNL     1      -6.120  -5.206  -5.528  0.00  0.00    +0.086 C 
BRANCH  24  25
ATOM     25  N   UNL     1      -7.444  -5.843  -5.523  0.00  0.00    -0.302 NA
ATOM     26  C   UNL     1      -7.483  -6.968  -4.580  0.00  0.00    +0.083 C 
ATOM     27  C   UNL     1      -8.911  -7.513  -4.493  0.00  0.00    +0.000 C 
ATOM     28  C   UNL     1      -9.362  -7.971  -5.882  0.00  0.00    -0.066 C 
ATOM     29  C   UNL     1      -9.266  -6.793  -6.856  0.00  0.00    +0.000 C 
ATOM     30  C   UNL     1      -7.828  -6.269  -6.874  0.00  0.00    +0.083 C 
BRANCH  28  31
ATOM     31  N   UNL     1     -10.752  -8.441  -5.817  0.00  0.00    +0.382 N 
ATOM     32  C   UNL     1     -11.645  -7.379  -5.335  0.00  0.00    -0.078 C 
ATOM     33  C   UNL     1     -13.097  -7.855  -5.417  0.00  0.00    -0.019 C 
ATOM     34  C   UNL     1     -13.265  -9.115  -4.564  0.00  0.00    -0.004 C 
ATOM     35  C   UNL     1     -12.290 -10.189  -5.055  0.00  0.00    -0.019 C 
ATOM     36  C   UNL     1     -10.862  -9.645  -4.983  0.00  0.00    -0.078 C 
ATOM     37  H   UNL     1     -11.069  -8.709  -6.836  0.00  0.00    -0.081 HD
ENDBRANCH  28  31
ENDBRANCH  24  25
ENDBRANCH  23  24
ENDBRANCH  22  23
ENDBRANCH   3  22
TORSDOF 7
