REMARK  Name = ZINC01185410
REMARK  8 active torsions:
REMARK  status: ('A' for Active; 'I' for Inactive)
REMARK    1  A    between atoms: C_1  and  C_2
REMARK    2  A    between atoms: C_7  and  N_8
REMARK    3  A    between atoms: C_9  and  C_11
REMARK    4  A    between atoms: C_11  and  C_25
REMARK    5  A    between atoms: C_12  and  C_13
REMARK    6  A    between atoms: C_16  and  O_20
REMARK    7  A    between atoms: O_20  and  C_21
REMARK    8  A    between atoms: C_21  and  C_22
REMARK                            x       y       z     vdW  Elec       q    Type
REMARK                         _______ _______ _______ _____ _____    ______ ____
ROOT
ATOM      1  C   UNL     1      -0.121   1.643  -0.084  0.00  0.00    +0.114 C 
ATOM      2  C   UNL     1      -0.201   0.272  -0.187  0.00  0.00    +0.032 C 
ENDROOT
BRANCH   2   3
ATOM      3  C   UNL     1       1.016  -0.520  -0.383  0.00  0.00    -0.022 A 
ATOM      4  C   UNL     1       0.974  -1.699  -1.142  0.00  0.00    +0.011 A 
ATOM      5  C   UNL     1       2.111  -2.432  -1.327  0.00  0.00    +0.047 A 
ATOM      6  C   UNL     1       3.311  -2.021  -0.757  0.00  0.00    +0.135 A 
ATOM      7  C   UNL     1       3.364  -0.856   0.003  0.00  0.00    +0.060 A 
ATOM      8  C   UNL     1       2.225  -0.106   0.192  0.00  0.00    +0.027 A 
ATOM      9 BR   UNL     1       5.000  -0.305   0.776  0.00  0.00    -0.046 Br
BRANCH   6  10
ATOM     10  O   UNL     1       4.435  -2.759  -0.942  0.00  0.00    -0.482 OA
BRANCH  10  11
ATOM     11  C   UNL     1       4.311  -3.943  -1.733  0.00  0.00    +0.324 C 
BRANCH  11  12
ATOM     12  C   UNL     1       5.651  -4.626  -1.828  0.00  0.00    +0.248 C 
ATOM     13  O   UNL     1       6.617  -4.146  -1.273  0.00  0.00    -0.272 OA
ATOM     14  N   UNL     1       5.775  -5.770  -2.529  0.00  0.00    -0.327 N 
ATOM     15  H   UNL     1       5.003  -6.154  -2.973  0.00  0.00    +0.145 HD
ATOM     16  H   UNL     1       6.638  -6.210  -2.590  0.00  0.00    +0.145 HD
ENDBRANCH  11  12
ENDBRANCH  10  11
ENDBRANCH   6  10
ENDBRANCH   2   3
BRANCH   1  18
ATOM     17  N   UNL     1      -1.237   3.766   0.373  0.00  0.00    -0.281 N 
ATOM     18  C   UNL     1      -1.315   2.425   0.271  0.00  0.00    +0.259 C 
ATOM     19  O   UNL     1      -2.374   1.860   0.474  0.00  0.00    -0.269 OA
ATOM     20  H   UNL     1      -0.401   4.219   0.181  0.00  0.00    +0.155 HD
BRANCH  17  27
ATOM     21  C   UNL     1      -0.830   6.165   1.848  0.00  0.00    +0.046 C 
ATOM     22  C   UNL     1      -2.209   5.682   1.476  0.00  0.00    -0.028 A 
ATOM     23  C   UNL     1      -3.320   6.414   1.846  0.00  0.00    +0.025 A 
ATOM     24  C   UNL     1      -4.587   5.968   1.510  0.00  0.00    +0.041 A 
ATOM     25  C   UNL     1      -4.742   4.793   0.796  0.00  0.00    +0.022 A 
ATOM     26  C   UNL     1      -3.634   4.061   0.418  0.00  0.00    +0.025 A 
ATOM     27  C   UNL     1      -2.362   4.506   0.755  0.00  0.00    +0.037 A 
ATOM     28 CL   UNL     1      -5.982   6.886   1.984  0.00  0.00    -0.084 Cl
ENDBRANCH  17  27
ENDBRANCH   1  18
BRANCH   1  29
ATOM     29  C   UNL     1       1.124   2.308  -0.328  0.00  0.00    +0.104 C 
ATOM     30  N   UNL     1       2.111   2.836  -0.521  0.00  0.00    -0.191 NA
ENDBRANCH   1  29
TORSDOF 7
