REMARK  Name = ZINC01807616
REMARK  4 active torsions:
REMARK  status: ('A' for Active; 'I' for Inactive)
REMARK    1  A    between atoms: C_1  and  O_2
REMARK    2  A    between atoms: O_2  and  C_3
REMARK    3  A    between atoms: C_6  and  C_9
REMARK    4  A    between atoms: C_11  and  C_19
REMARK                            x       y       z     vdW  Elec       q    Type
REMARK                         _______ _______ _______ _____ _____    ______ ____
ROOT
ATOM      1  C   UNL     1       2.490  -2.488  -4.355  0.00  0.00    +0.055 C 
ATOM      2  C   UNL     1       2.521  -3.989  -4.406  0.00  0.00    +0.088 C 
ATOM      3  C   UNL     1       2.440  -4.498  -5.850  0.00  0.00    +0.150 C 
ATOM      4  N   UNL     1       3.296  -3.653  -6.677  0.00  0.00    -0.202 N 
ATOM      5  C   UNL     1       3.543  -2.337  -6.386  0.00  0.00    +0.270 A 
ATOM      6  N   UNL     1       4.327  -1.882  -7.330  0.00  0.00    -0.088 NA
ATOM      7  N   UNL     1       4.593  -2.816  -8.178  0.00  0.00    -0.021 NA
ATOM      8  N   UNL     1       4.004  -3.919  -7.844  0.00  0.00    -0.042 NA
ATOM      9  N   UNL     1       3.015  -1.738  -5.287  0.00  0.00    -0.214 NA
ENDROOT
BRANCH   3  10
ATOM     10  C   UNL     1       2.917  -5.926  -5.914  0.00  0.00    -0.004 A 
ATOM     11  C   UNL     1       4.204  -6.243  -5.519  0.00  0.00    +0.007 A 
ATOM     12  C   UNL     1       4.642  -7.553  -5.578  0.00  0.00    +0.000 A 
ATOM     13  C   UNL     1       3.794  -8.546  -6.031  0.00  0.00    +0.001 A 
ATOM     14  C   UNL     1       2.508  -8.231  -6.426  0.00  0.00    +0.020 A 
ATOM     15  C   UNL     1       2.067  -6.921  -6.362  0.00  0.00    +0.046 A 
ATOM     16 CL   UNL     1       0.449  -6.525  -6.852  0.00  0.00    -0.083 Cl
ENDBRANCH   3  10
BRANCH   1  20
ATOM     17  C   UNL     1       0.605  -0.606  -1.054  0.00  0.00    +0.120 A 
ATOM     18  C   UNL     1       1.172   0.167  -2.061  0.00  0.00    +0.046 A 
ATOM     19  C   UNL     1       1.785  -0.439  -3.135  0.00  0.00    +0.013 A 
ATOM     20  C   UNL     1       1.837  -1.836  -3.211  0.00  0.00    -0.003 A 
ATOM     21  C   UNL     1       1.264  -2.610  -2.195  0.00  0.00    +0.013 A 
ATOM     22  C   UNL     1       0.658  -1.994  -1.123  0.00  0.00    +0.046 A 
BRANCH  17  24
ATOM     23  C   UNL     1      -0.017   1.425   0.010  0.00  0.00    +0.277 C 
ATOM     24  O   UNL     1       0.002  -0.004   0.002  0.00  0.00    -0.495 OA
ENDBRANCH  17  24
ENDBRANCH   1  20
TORSDOF 3
