REMARK  Name = ZINC00903947
REMARK  11 active torsions:
REMARK  status: ('A' for Active; 'I' for Inactive)
REMARK    1  A    between atoms: C_1  and  C_2
REMARK    2  A    between atoms: C_6  and  N_9
REMARK    3  A    between atoms: C_7  and  C_8
REMARK    4  A    between atoms: N_9  and  C_10
REMARK    5  A    between atoms: C_10  and  C_12
REMARK    6  A    between atoms: C_10  and  C_17
REMARK    7  A    between atoms: N_19  and  C_20
REMARK    8  A    between atoms: C_20  and  C_21
REMARK    9  A    between atoms: C_27  and  C_29
REMARK   10  A    between atoms: C_29  and  N_30
REMARK   11  A    between atoms: C_32  and  C_35
REMARK                            x       y       z     vdW  Elec       q    Type
REMARK                         _______ _______ _______ _____ _____    ______ ____
ROOT
ATOM      1  N   UNL     1       0.125  -2.869   2.740  0.00  0.00    -0.253 N 
ATOM      2  C   UNL     1      -0.889  -3.409   3.445  0.00  0.00    +0.244 C 
ATOM      3  O   UNL     1      -0.656  -4.207   4.328  0.00  0.00    -0.273 OA
ENDROOT
BRANCH   1   9
ATOM      4  C   UNL     1      -0.696   1.770   1.337  0.00  0.00    +0.044 C 
ATOM      5  C   UNL     1      -0.547   0.306   1.013  0.00  0.00    -0.046 A 
ATOM      6  C   UNL     1      -0.676  -0.129  -0.294  0.00  0.00    +0.004 A 
ATOM      7  C   UNL     1      -0.539  -1.471  -0.595  0.00  0.00    +0.002 A 
ATOM      8  C   UNL     1      -0.273  -2.382   0.408  0.00  0.00    +0.024 A 
ATOM      9  C   UNL     1      -0.143  -1.949   1.721  0.00  0.00    +0.041 A 
ATOM     10  C   UNL     1      -0.276  -0.599   2.020  0.00  0.00    -0.026 A 
ATOM     11  C   UNL     1      -0.130  -0.123   3.442  0.00  0.00    +0.046 C 
ENDBRANCH   1   9
BRANCH   1  12
ATOM     12  C   UNL     1       1.509  -3.247   3.040  0.00  0.00    +0.204 C 
BRANCH  12  13
ATOM     13  C   UNL     1       2.327  -2.004   3.280  0.00  0.00    +0.019 A 
ATOM     14  C   UNL     1       3.109  -1.688   4.341  0.00  0.00    +0.013 A 
ATOM     15  C   UNL     1       3.776  -0.478   4.346  0.00  0.00    +0.008 A 
ATOM     16  C   UNL     1       3.629   0.358   3.289  0.00  0.00    +0.045 A 
ATOM     17  S   UNL     1       2.525  -0.569   2.236  0.00  0.00    -0.099 S 
ENDBRANCH  12  13
BRANCH  12  18
ATOM     18  C   UNL     1       2.085  -4.011   1.877  0.00  0.00    +0.239 C 
ATOM     19  O   UNL     1       1.407  -4.221   0.893  0.00  0.00    -0.273 OA
ATOM     20  N   UNL     1       3.354  -4.462   1.929  0.00  0.00    -0.311 N 
ATOM     21  H   UNL     1       3.896  -4.295   2.716  0.00  0.00    +0.149 HD
BRANCH  20  22
ATOM     22  C   UNL     1       3.914  -5.205   0.798  0.00  0.00    +0.135 C 
BRANCH  22  23
ATOM     23  C   UNL     1       5.359  -5.599   1.111  0.00  0.00    +0.135 C 
ATOM     24  C   UNL     1       5.997  -6.277  -0.120  0.00  0.00    +0.035 C 
ATOM     25  C   UNL     1       6.839  -7.411   0.526  0.00  0.00    +0.031 C 
ATOM     26  C   UNL     1       5.946  -7.787   1.735  0.00  0.00    +0.160 C 
ATOM     27  O   UNL     1       5.382  -6.544   2.188  0.00  0.00    -0.375 OA
ENDBRANCH  22  23
ENDBRANCH  20  22
ENDBRANCH  12  18
ENDBRANCH   1  12
BRANCH   2  28
ATOM     28  C   UNL     1      -2.312  -3.022   3.136  0.00  0.00    +0.264 C 
BRANCH  28  29
ATOM     29  N   UNL     1      -3.220  -3.740   4.033  0.00  0.00    -0.154 N 
ATOM     30  N   UNL     1      -3.741  -4.895   3.798  0.00  0.00    -0.130 NA
ATOM     31  C   UNL     1      -4.498  -5.213   4.829  0.00  0.00    +0.205 A 
ATOM     32  N   UNL     1      -4.409  -4.197   5.699  0.00  0.00    -0.108 NA
ATOM     33  N   UNL     1      -3.617  -3.320   5.183  0.00  0.00    -0.045 NA
BRANCH  31  34
ATOM     34  C   UNL     1      -5.293  -6.456   4.995  0.00  0.00    +0.023 A 
ATOM     35  C   UNL     1      -5.282  -7.431   4.000  0.00  0.00    +0.014 A 
ATOM     36  C   UNL     1      -6.023  -8.584   4.158  0.00  0.00    +0.039 A 
ATOM     37  C   UNL     1      -6.778  -8.773   5.304  0.00  0.00    +0.123 A 
ATOM     38  C   UNL     1      -6.792  -7.806   6.296  0.00  0.00    +0.039 A 
ATOM     39  C   UNL     1      -6.049  -6.652   6.149  0.00  0.00    +0.014 A 
ATOM     40  F   UNL     1      -7.503  -9.903   5.455  0.00  0.00    -0.205 F 
ENDBRANCH  31  34
ENDBRANCH  28  29
ENDBRANCH   2  28
TORSDOF 9
