REMARK  Name = ZINC35363833
REMARK  8 active torsions:
REMARK  status: ('A' for Active; 'I' for Inactive)
REMARK    1  A    between atoms: C_1  and  C_2
REMARK    2  A    between atoms: C_16  and  C_19
REMARK    3  A    between atoms: C_19  and  C_21
REMARK    4  A    between atoms: C_19  and  O_22
REMARK    5  A    between atoms: N_25  and  C_28
REMARK    6  A    between atoms: C_28  and  C_29
REMARK    7  A    between atoms: C_34  and  O_35
REMARK    8  A    between atoms: O_35  and  C_36
REMARK                            x       y       z     vdW  Elec       q    Type
REMARK                         _______ _______ _______ _____ _____    ______ ____
ROOT
ATOM      1  C   UNL     1      -0.018   1.503   0.010  0.00  0.00    +0.045 C 
ATOM      2  C   UNL     1       0.002  -0.004   0.002  0.00  0.00    -0.029 A 
ATOM      3  C   UNL     1       0.006  -0.685  -1.198  0.00  0.00    +0.005 A 
ATOM      4  C   UNL     1       0.025  -2.068  -1.216  0.00  0.00    +0.001 A 
ATOM      5  C   UNL     1       0.040  -2.772  -0.024  0.00  0.00    +0.008 A 
ATOM      6  C   UNL     1       0.037  -2.096   1.175  0.00  0.00    +0.004 A 
ATOM      7  C   UNL     1       0.023  -0.705   1.206  0.00  0.00    +0.042 A 
ATOM      8  N   UNL     1       0.030  -0.250   2.526  0.00  0.00    -0.283 N 
ATOM      9  C   UNL     1       0.053  -1.265   3.412  0.00  0.00    +0.243 C 
ATOM     10  O   UNL     1       0.065  -1.171   4.621  0.00  0.00    -0.273 OA
ATOM     11  C   UNL     1       0.048  -2.538   2.611  0.00  0.00    +0.136 C 
ATOM     12  C   UNL     1       1.282  -3.392   2.926  0.00  0.00    +0.123 C 
ATOM     13  C   UNL     1       0.775  -4.859   2.831  0.00  0.00    +0.109 C 
ATOM     14  C   UNL     1      -0.715  -4.739   2.447  0.00  0.00    +0.096 C 
ATOM     15  N   UNL     1      -1.119  -3.383   2.924  0.00  0.00    -0.293 NA
ATOM     16  C   UNL     1       0.901  -5.364   4.250  0.00  0.00    +0.228 C 
ATOM     17  O   UNL     1       0.604  -6.478   4.625  0.00  0.00    -0.275 OA
ATOM     18  N   UNL     1       1.392  -4.392   5.026  0.00  0.00    -0.237 N 
ATOM     19  C   UNL     1       1.653  -3.231   4.383  0.00  0.00    +0.229 C 
ATOM     20  O   UNL     1       2.107  -2.223   4.882  0.00  0.00    -0.275 OA
ATOM     21  H   UNL     1       0.021   0.687   2.777  0.00  0.00    +0.155 HD
ATOM     22  H   UNL     1      -1.312  -3.381   3.915  0.00  0.00    +0.124 HD
ENDROOT
BRANCH  14  23
ATOM     23  C   UNL     1      -1.537  -5.810   3.167  0.00  0.00    +0.129 C 
ATOM     24  C   UNL     1      -3.009  -5.673   2.772  0.00  0.00    +0.039 C 
BRANCH  23  25
ATOM     25  O   UNL     1      -1.062  -7.106   2.795  0.00  0.00    -0.390 OA
ATOM     26  H   UNL     1      -1.122  -7.289   1.848  0.00  0.00    +0.210 HD
ENDBRANCH  23  25
ENDBRANCH  14  23
BRANCH  18  27
ATOM     27  C   UNL     1       1.635  -4.570   6.460  0.00  0.00    +0.155 C 
BRANCH  27  28
ATOM     28  C   UNL     1       3.039  -5.075   6.672  0.00  0.00    +0.012 A 
ATOM     29  C   UNL     1       3.264  -6.419   6.897  0.00  0.00    +0.009 A 
ATOM     30  C   UNL     1       4.552  -6.883   7.093  0.00  0.00    +0.001 A 
ATOM     31  C   UNL     1       5.618  -6.003   7.063  0.00  0.00    +0.004 A 
ATOM     32  C   UNL     1       5.399  -4.657   6.838  0.00  0.00    +0.046 A 
ATOM     33  C   UNL     1       4.108  -4.191   6.636  0.00  0.00    +0.125 A 
BRANCH  33  34
ATOM     34  O   UNL     1       3.890  -2.869   6.409  0.00  0.00    -0.495 OA
ATOM     35  C   UNL     1       5.037  -2.017   6.386  0.00  0.00    +0.277 C 
ENDBRANCH  33  34
ENDBRANCH  27  28
ENDBRANCH  18  27
TORSDOF 5
