REMARK  Name = ZINC36186413
REMARK  6 active torsions:
REMARK  status: ('A' for Active; 'I' for Inactive)
REMARK    1  A    between atoms: C_7  and  C_28
REMARK    2  A    between atoms: C_10  and  S_11
REMARK    3  A    between atoms: S_11  and  C_12
REMARK    4  A    between atoms: C_12  and  C_13
REMARK    5  A    between atoms: N_15  and  C_16
REMARK    6  A    between atoms: C_17  and  C_25
REMARK                            x       y       z     vdW  Elec       q    Type
REMARK                         _______ _______ _______ _____ _____    ______ ____
ROOT
ATOM      1  C   UNL     1       6.412  -1.095  -0.401  0.00  0.00    +0.172 C 
ENDROOT
BRANCH   1   2
ATOM      2  C   UNL     1       7.792  -0.490  -0.458  0.00  0.00    +0.228 C 
ATOM      3  O   UNL     1       7.937   0.705  -0.307  0.00  0.00    -0.275 OA
ATOM      4  N   UNL     1       8.864  -1.277  -0.676  0.00  0.00    -0.279 N 
ATOM      5  H   UNL     1       8.748  -2.232  -0.796  0.00  0.00    +0.155 HD
BRANCH   4   6
ATOM      6  C   UNL     1      10.133  -0.721  -0.728  0.00  0.00    +0.084 A 
ATOM      7  C   UNL     1      11.339  -1.368  -0.947  0.00  0.00    +0.068 A 
ATOM      8  C   UNL     1      12.540  -0.551  -0.954  0.00  0.00    -0.023 A 
ATOM      9  C   UNL     1      12.315   0.764  -0.742  0.00  0.00    -0.004 A 
ATOM     10  S   UNL     1      10.561   0.893  -0.549  0.00  0.00    -0.077 S 
ATOM     11  C   UNL     1      13.339   1.855  -0.690  0.00  0.00    +0.043 C 
ATOM     12  C   UNL     1      14.724   1.209  -0.539  0.00  0.00    +0.005 C 
ATOM     13  C   UNL     1      14.859   0.080  -1.564  0.00  0.00    +0.005 C 
ATOM     14  C   UNL     1      13.946  -1.086  -1.179  0.00  0.00    +0.037 C 
BRANCH   7  15
ATOM     15  C   UNL     1      11.400  -2.817  -1.161  0.00  0.00    +0.244 C 
ATOM     16  O   UNL     1      11.317  -3.270  -2.287  0.00  0.00    -0.270 OA
ATOM     17  N   UNL     1      11.547  -3.648  -0.110  0.00  0.00    -0.325 N 
ATOM     18  H   UNL     1      11.613  -3.287   0.788  0.00  0.00    +0.145 HD
ATOM     19  H   UNL     1      11.587  -4.607  -0.251  0.00  0.00    +0.145 HD
ENDBRANCH   7  15
ENDBRANCH   4   6
ENDBRANCH   1   2
BRANCH   1  20
ATOM     20  S   UNL     1       5.192   0.212  -0.095  0.00  0.00    -0.094 S 
BRANCH  20  30
ATOM     21  C   UNL     1       0.016   1.319   0.587  0.00  0.00    +0.001 A 
ATOM     22  C   UNL     1       1.198   2.053   0.568  0.00  0.00    +0.001 A 
ATOM     23  C   UNL     1       2.401   1.444   0.361  0.00  0.00    +0.011 A 
ATOM     24  C   UNL     1       2.444   0.060   0.164  0.00  0.00    +0.018 A 
ATOM     25  C   UNL     1       1.240  -0.688   0.182  0.00  0.00    +0.012 A 
ATOM     26  C   UNL     1       0.024  -0.032   0.398  0.00  0.00    +0.011 A 
ATOM     27  C   UNL     1       1.330  -2.088  -0.021  0.00  0.00    +0.101 A 
ATOM     28  N   UNL     1       2.519  -2.630  -0.218  0.00  0.00    -0.148 NA
ATOM     29  N   UNL     1       3.607  -1.954  -0.234  0.00  0.00    -0.142 NA
ATOM     30  C   UNL     1       3.652  -0.644  -0.057  0.00  0.00    +0.127 A 
BRANCH  27  31
ATOM     31  C   UNL     1       0.111  -2.929  -0.013  0.00  0.00    +0.003 A 
ATOM     32  C   UNL     1      -1.031  -2.512  -0.697  0.00  0.00    +0.013 A 
ATOM     33  C   UNL     1      -2.164  -3.299  -0.687  0.00  0.00    +0.039 A 
ATOM     34  C   UNL     1      -2.168  -4.502   0.001  0.00  0.00    +0.123 A 
ATOM     35  C   UNL     1      -1.036  -4.920   0.682  0.00  0.00    +0.039 A 
ATOM     36  C   UNL     1       0.104  -4.143   0.673  0.00  0.00    +0.013 A 
ATOM     37  F   UNL     1      -3.280  -5.269   0.008  0.00  0.00    -0.205 F 
ENDBRANCH  27  31
ENDBRANCH  20  30
ENDBRANCH   1  20
TORSDOF 6
