REMARK  Name = ZINC39357211
REMARK  9 active torsions:
REMARK  status: ('A' for Active; 'I' for Inactive)
REMARK    1  A    between atoms: C_4  and  C_36
REMARK    2  A    between atoms: C_5  and  C_7
REMARK    3  A    between atoms: C_7  and  O_8
REMARK    4  A    between atoms: O_8  and  C_9
REMARK    5  A    between atoms: C_9  and  C_11
REMARK    6  A    between atoms: C_13  and  C_18
REMARK    7  A    between atoms: C_21  and  C_23
REMARK    8  A    between atoms: C_24  and  C_25
REMARK    9  A    between atoms: C_24  and  C_27
REMARK                            x       y       z     vdW  Elec       q    Type
REMARK                         _______ _______ _______ _____ _____    ______ ____
ROOT
ATOM      1  C   UNL     1      -5.219  -3.447   0.025  0.00  0.00    +0.136 A 
ATOM      2  C   UNL     1      -6.518  -3.869   0.041  0.00  0.00    +0.050 A 
ATOM      3  C   UNL     1      -7.322  -2.726   0.047  0.00  0.00    +0.050 A 
ATOM      4  C   UNL     1      -6.469  -1.639   0.035  0.00  0.00    +0.130 A 
ATOM      5  O   UNL     1      -5.202  -2.102   0.028  0.00  0.00    -0.455 OA
ENDROOT
BRANCH   1   8
ATOM      6  C   UNL     1      -1.636  -4.599  -0.007  0.00  0.00    +0.078 A 
ATOM      7  C   UNL     1      -2.753  -3.765   0.004  0.00  0.00    +0.028 A 
ATOM      8  C   UNL     1      -4.031  -4.323   0.013  0.00  0.00    +0.018 A 
ATOM      9  C   UNL     1      -4.184  -5.713   0.013  0.00  0.00    +0.013 A 
ATOM     10  C   UNL     1      -3.075  -6.533   0.003  0.00  0.00    +0.021 A 
ATOM     11  C   UNL     1      -1.804  -5.988  -0.013  0.00  0.00    +0.055 A 
ATOM     12 CL   UNL     1      -0.415  -7.029  -0.033  0.00  0.00    -0.083 Cl
BRANCH   6  13
ATOM     13  C   UNL     1      -0.279  -4.018  -0.017  0.00  0.00    +0.341 C 
ATOM     14  O   UNL     1       0.694  -4.746  -0.031  0.00  0.00    -0.245 OA
BRANCH  13  15
ATOM     15  O   UNL     1      -0.118  -2.680  -0.011  0.00  0.00    -0.456 OA
BRANCH  15  16
ATOM     16  C   UNL     1       1.223  -2.188  -0.022  0.00  0.00    +0.269 C 
BRANCH  16  21
ATOM     17  C   UNL     1      -0.017   1.379   0.010  0.00  0.00    +0.000 A 
ATOM     18  C   UNL     1       1.168   2.094   0.002  0.00  0.00    +0.001 A 
ATOM     19  C   UNL     1       2.377   1.430  -0.013  0.00  0.00    +0.019 A 
ATOM     20  C   UNL     1       2.404   0.034  -0.021  0.00  0.00    +0.058 A 
ATOM     21  C   UNL     1       1.204  -0.681  -0.013  0.00  0.00    +0.007 A 
ATOM     22  C   UNL     1       0.002  -0.004   0.002  0.00  0.00    +0.008 A 
BRANCH  20  23
ATOM     23  C   UNL     1       3.655  -0.662  -0.038  0.00  0.00    +0.100 C 
ATOM     24  N   UNL     1       4.648  -1.214  -0.051  0.00  0.00    -0.191 NA
ENDBRANCH  20  23
ENDBRANCH  16  21
ENDBRANCH  15  16
ENDBRANCH  13  15
ENDBRANCH   6  13
ENDBRANCH   1   8
BRANCH   4  25
ATOM     25  C   UNL     1      -6.857  -0.278   0.035  0.00  0.00    +0.064 C 
ATOM     26  C   UNL     1      -5.912   0.697   0.022  0.00  0.00    +0.075 C 
BRANCH  26  27
ATOM     27  C   UNL     1      -6.325   2.146   0.023  0.00  0.00    +0.216 C 
ATOM     28  N   UNL     1      -5.752   2.833  -1.141  0.00  0.00    -0.359 N 
ATOM     29  C   UNL     1      -4.983   3.784  -0.694  0.00  0.00    +0.060 A 
ATOM     30  C   UNL     1      -4.152   4.795  -1.363  0.00  0.00    +0.027 A 
ATOM     31  C   UNL     1      -3.446   5.672  -0.622  0.00  0.00    +0.002 A 
ATOM     32  C   UNL     1      -3.467   5.665   0.784  0.00  0.00    +0.002 A 
ATOM     33  C   UNL     1      -4.194   4.781   1.497  0.00  0.00    +0.027 A 
ATOM     34  C   UNL     1      -5.005   3.777   0.794  0.00  0.00    +0.060 A 
ATOM     35  N   UNL     1      -5.787   2.823   1.210  0.00  0.00    -0.359 N 
ATOM     36  H   UNL     1      -5.917   2.619  -2.072  0.00  0.00    +0.162 HD
ATOM     37  H   UNL     1      -5.979   2.600   2.134  0.00  0.00    +0.162 HD
ENDBRANCH  26  27
BRANCH  26  38
ATOM     38  C   UNL     1      -4.524   0.347   0.008  0.00  0.00    +0.099 C 
ATOM     39  N   UNL     1      -3.422   0.070  -0.003  0.00  0.00    -0.191 NA
ENDBRANCH  26  38
ENDBRANCH   4  25
TORSDOF 9
