REMARK  Name = ZINC39628522
REMARK  9 active torsions:
REMARK  status: ('A' for Active; 'I' for Inactive)
REMARK    1  A    between atoms: C_1  and  C_2
REMARK    2  A    between atoms: N_8  and  C_9
REMARK    3  A    between atoms: C_9  and  C_10
REMARK    4  A    between atoms: C_10  and  C_11
REMARK    5  A    between atoms: C_11  and  N_12
REMARK    6  A    between atoms: C_13  and  C_15
REMARK    7  A    between atoms: C_26  and  C_28
REMARK    8  A    between atoms: C_30  and  O_35
REMARK    9  A    between atoms: O_35  and  C_36
REMARK                            x       y       z     vdW  Elec       q    Type
REMARK                         _______ _______ _______ _____ _____    ______ ____
ROOT
ATOM      1  C   UNL     1       1.889   0.099   8.810  0.00  0.00    +0.100 C 
ATOM      2  C   UNL     1       1.655  -1.428   8.841  0.00  0.00    +0.121 C 
ATOM      3  N   UNL     1       1.402  -1.740  10.267  0.00  0.00    -0.296 N 
ATOM      4  C   UNL     1       0.574  -0.609  10.750  0.00  0.00    +0.115 C 
ATOM      5  C   UNL     1       1.178   0.633  10.065  0.00  0.00    -0.004 C 
ATOM      6  C   UNL     1       0.072   1.607   9.671  0.00  0.00    -0.010 C 
ATOM      7  C   UNL     1      -0.582   2.169  10.936  0.00  0.00    -0.082 C 
ATOM      8  N   UNL     1       0.430   2.850  11.751  0.00  0.00    +0.379 N 
ATOM      9  C   UNL     1       1.440   1.887  12.204  0.00  0.00    -0.082 C 
ATOM     10  C   UNL     1       2.180   1.313  10.992  0.00  0.00    -0.010 C 
ATOM     11  C   UNL     1       1.829  -2.809  10.967  0.00  0.00    +0.248 C 
ATOM     12  O   UNL     1       1.457  -2.974  12.112  0.00  0.00    -0.270 OA
ATOM     13  H   UNL     1       0.875   3.569  11.201  0.00  0.00    -0.086 HD
ATOM     14  H   UNL     1      -0.014   3.272  12.554  0.00  0.00    -0.086 HD
ENDROOT
BRANCH  11  15
ATOM     15  C   UNL     1       2.751  -3.782  10.342  0.00  0.00    +0.054 A 
ATOM     16  C   UNL     1       2.627  -4.092   8.987  0.00  0.00    +0.059 A 
ATOM     17  C   UNL     1       3.494  -5.004   8.409  0.00  0.00    +0.121 A 
ATOM     18  C   UNL     1       4.483  -5.606   9.175  0.00  0.00    +0.047 A 
ATOM     19  C   UNL     1       4.607  -5.300  10.517  0.00  0.00    +0.019 A 
ATOM     20  C   UNL     1       3.751  -4.389  11.104  0.00  0.00    +0.030 A 
ATOM     21 BR   UNL     1       3.930  -3.968  12.939  0.00  0.00    -0.050 Br
BRANCH  17  22
ATOM     22  O   UNL     1       3.377  -5.309   7.090  0.00  0.00    -0.495 OA
ATOM     23  C   UNL     1       4.304  -6.258   6.558  0.00  0.00    +0.277 C 
ENDBRANCH  17  22
ENDBRANCH  11  15
BRANCH   1  25
ATOM     24  N   UNL     1       1.816   1.812   7.028  0.00  0.00    -0.315 N 
ATOM     25  C   UNL     1       1.283   0.699   7.568  0.00  0.00    +0.218 C 
ATOM     26  O   UNL     1       0.315   0.179   7.054  0.00  0.00    -0.275 OA
ATOM     27  H   UNL     1       2.590   2.228   7.439  0.00  0.00    +0.149 HD
BRANCH  24  28
ATOM     28  C   UNL     1       1.226   2.395   5.820  0.00  0.00    +0.102 C 
BRANCH  28  29
ATOM     29  C   UNL     1       2.015   3.643   5.418  0.00  0.00    +0.000 C 
BRANCH  29  30
ATOM     30  C   UNL     1       1.399   4.252   4.157  0.00  0.00    -0.077 C 
BRANCH  30  37
ATOM     31  C   UNL     1       0.047   6.426   3.004  0.00  0.00    -0.013 C 
ATOM     32  C   UNL     1       1.495   6.100   2.633  0.00  0.00    -0.072 C 
ATOM     33  C   UNL     1       2.234   7.393   2.280  0.00  0.00    -0.016 C 
ATOM     34  C   UNL     1       3.683   7.061   1.909  0.00  0.00    -0.003 C 
ATOM     35  C   UNL     1       4.340   6.317   3.075  0.00  0.00    -0.019 C 
ATOM     36  C   UNL     1       3.523   5.064   3.399  0.00  0.00    -0.078 C 
ATOM     37  N   UNL     1       2.157   5.450   3.771  0.00  0.00    +0.381 N 
ATOM     38  H   UNL     1       2.189   6.090   4.551  0.00  0.00    -0.081 HD
ENDBRANCH  30  37
ENDBRANCH  29  30
ENDBRANCH  28  29
ENDBRANCH  24  28
ENDBRANCH   1  25
TORSDOF 7
