REMARK  Name = ZINC51728639
REMARK  7 active torsions:
REMARK  status: ('A' for Active; 'I' for Inactive)
REMARK    1  A    between atoms: C_1  and  C_2
REMARK    2  A    between atoms: C_7  and  C_10
REMARK    3  A    between atoms: C_11  and  C_13
REMARK    4  A    between atoms: C_15  and  N_21
REMARK    5  A    between atoms: N_17  and  C_18
REMARK    6  A    between atoms: C_18  and  C_19
REMARK    7  A    between atoms: C_18  and  C_20
REMARK                            x       y       z     vdW  Elec       q    Type
REMARK                         _______ _______ _______ _____ _____    ______ ____
ROOT
ATOM      1  C   UNL     1      -2.461  -3.889   1.862  0.00  0.00    +0.107 A 
ATOM      2  C   UNL     1      -3.368  -3.517   0.892  0.00  0.00    +0.055 A 
ATOM      3  C   UNL     1      -4.585  -4.138   1.203  0.00  0.00    +0.043 A 
ATOM      4  C   UNL     1      -4.401  -4.865   2.337  0.00  0.00    +0.109 A 
ATOM      5  N   UNL     1      -3.111  -4.724   2.742  0.00  0.00    -0.339 N 
ENDROOT
BRANCH   1  14
ATOM      6  C   UNL     1       0.009   1.868   1.800  0.00  0.00    +0.007 C 
ATOM      7  C   UNL     1      -0.089   0.453   1.228  0.00  0.00    -0.011 C 
ATOM      8  C   UNL     1      -1.537  -0.034   1.318  0.00  0.00    +0.022 C 
ATOM      9  C   UNL     1      -1.638  -1.438   0.713  0.00  0.00    +0.108 C 
ATOM     10  N   UNL     1      -0.665  -2.312   1.382  0.00  0.00    -0.294 N 
ATOM     11  C   UNL     1       0.743  -1.894   1.433  0.00  0.00    +0.074 C 
ATOM     12  C   UNL     1       0.816  -0.485   2.030  0.00  0.00    +0.025 C 
ATOM     13  C   UNL     1       1.327  -1.887   0.020  0.00  0.00    +0.028 C 
ATOM     14  C   UNL     1      -1.056  -3.476   1.939  0.00  0.00    +0.263 C 
ATOM     15  O   UNL     1      -0.244  -4.183   2.505  0.00  0.00    -0.268 OA
ENDBRANCH   1  14
BRANCH   5  16
ATOM     16  C   UNL     1      -2.513  -5.353   3.922  0.00  0.00    +0.081 C 
ATOM     17  C   UNL     1      -3.345  -5.011   5.160  0.00  0.00    +0.030 C 
ATOM     18  C   UNL     1      -2.485  -6.871   3.731  0.00  0.00    +0.030 C 
ENDBRANCH   5  16
BRANCH   3  19
ATOM     19  N   UNL     1      -5.783  -4.029   0.473  0.00  0.00    -0.357 N 
ATOM     20  H   UNL     1      -5.814  -3.483  -0.328  0.00  0.00    +0.142 HD
ATOM     21  H   UNL     1      -6.577  -4.500   0.771  0.00  0.00    +0.142 HD
ENDBRANCH   3  19
TORSDOF 3
