REMARK  Name = ZINC54233086
REMARK  7 active torsions:
REMARK  status: ('A' for Active; 'I' for Inactive)
REMARK    1  A    between atoms: C_1  and  C_2
REMARK    2  A    between atoms: C_8  and  C_10
REMARK    3  A    between atoms: N_13  and  C_16
REMARK    4  A    between atoms: C_16  and  C_18
REMARK    5  A    between atoms: C_16  and  C_19
REMARK    6  A    between atoms: N_21  and  C_22
REMARK    7  A    between atoms: C_22  and  C_23
REMARK                            x       y       z     vdW  Elec       q    Type
REMARK                         _______ _______ _______ _____ _____    ______ ____
ROOT
ATOM      1  C   UNL     1      -1.114  -5.374   4.067  0.00  0.00    +0.072 C 
ATOM      2  C   UNL     1       0.351  -4.995   4.302  0.00  0.00    -0.006 C 
ATOM      3  C   UNL     1       0.975  -5.981   5.292  0.00  0.00    -0.077 C 
ATOM      4  N   UNL     1       0.901  -7.341   4.745  0.00  0.00    +0.387 N 
ATOM      5  C   UNL     1      -0.503  -7.738   4.585  0.00  0.00    -0.077 C 
ATOM      6  C   UNL     1      -1.183  -6.819   3.567  0.00  0.00    -0.006 C 
ATOM      7  H   UNL     1       1.362  -7.368   3.848  0.00  0.00    -0.081 HD
ENDROOT
BRANCH   1  15
ATOM      8  C   UNL     1      -3.145   1.196   1.403  0.00  0.00    +0.066 C 
ATOM      9  C   UNL     1      -2.993  -0.303   1.358  0.00  0.00    +0.047 A 
ATOM     10  C   UNL     1      -3.417  -1.026   0.292  0.00  0.00    +0.071 A 
ATOM     11  S   UNL     1      -2.977  -2.676   0.813  0.00  0.00    -0.060 S 
ATOM     12  C   UNL     1      -2.311  -2.278   2.307  0.00  0.00    +0.165 A 
ATOM     13  N   UNL     1      -2.436  -0.969   2.352  0.00  0.00    -0.230 NA
ATOM     14  N   UNL     1      -1.759  -3.126   3.260  0.00  0.00    -0.264 N 
ATOM     15  C   UNL     1      -1.712  -4.454   3.034  0.00  0.00    +0.222 C 
ATOM     16  O   UNL     1      -2.152  -4.909   1.999  0.00  0.00    -0.275 OA
ATOM     17  H   UNL     1      -1.408  -2.762   4.088  0.00  0.00    +0.157 HD
ENDBRANCH   1  15
BRANCH   4  18
ATOM     18  C   UNL     1       1.570  -8.273   5.663  0.00  0.00    +0.016 C 
ATOM     19  C   UNL     1       3.037  -7.870   5.819  0.00  0.00    -0.004 C 
BRANCH  18  20
ATOM     20  C   UNL     1       1.489  -9.671   5.106  0.00  0.00    +0.199 C 
ATOM     21  O   UNL     1       1.430  -9.844   3.907  0.00  0.00    -0.278 OA
ATOM     22  N   UNL     1       1.483 -10.730   5.941  0.00  0.00    -0.316 N 
ATOM     23  H   UNL     1       1.531 -10.592   6.900  0.00  0.00    +0.149 HD
BRANCH  22  24
ATOM     24  C   UNL     1       1.405 -12.089   5.399  0.00  0.00    +0.107 C 
BRANCH  24  25
ATOM     25  C   UNL     1       1.415 -13.098   6.550  0.00  0.00    +0.006 C 
ATOM     26  C   UNL     1       2.759 -13.028   7.277  0.00  0.00    +0.005 C 
ATOM     27  C   UNL     1       2.768 -14.037   8.428  0.00  0.00    +0.000 C 
ATOM     28  C   UNL     1       2.562 -15.447   7.871  0.00  0.00    +0.000 C 
ATOM     29  C   UNL     1       1.217 -15.516   7.144  0.00  0.00    +0.000 C 
ATOM     30  C   UNL     1       1.208 -14.508   5.994  0.00  0.00    +0.005 C 
ENDBRANCH  24  25
ENDBRANCH  22  24
ENDBRANCH  18  20
ENDBRANCH   4  18
TORSDOF 5
