REMARK  Name = ZINC09338369
REMARK  6 active torsions:
REMARK  status: ('A' for Active; 'I' for Inactive)
REMARK    1  A    between atoms: C_1  and  C_2
REMARK    2  A    between atoms: C_2  and  C_3
REMARK    3  A    between atoms: C_2  and  C_4
REMARK    4  A    between atoms: C_7  and  N_10
REMARK    5  A    between atoms: N_10  and  S_11
REMARK    6  A    between atoms: S_11  and  C_14
REMARK                            x       y       z     vdW  Elec       q    Type
REMARK                         _______ _______ _______ _____ _____    ______ ____
ROOT
ATOM      1  S   UNL     1      -0.898  -0.850   1.105  0.00  0.00    +0.072 S 
ATOM      2  O   UNL     1      -2.231  -0.372   0.989  0.00  0.00    -0.150 OA
ATOM      3  O   UNL     1      -0.563  -2.222   0.940  0.00  0.00    -0.150 OA
ENDROOT
BRANCH   1   4
ATOM      4  C   UNL     1      -0.333  -0.383   2.707  0.00  0.00    +0.112 A 
ATOM      5  C   UNL     1      -0.985   0.621   3.401  0.00  0.00    +0.031 A 
ATOM      6  C   UNL     1      -0.548   0.993   4.658  0.00  0.00    +0.031 A 
ATOM      7  C   UNL     1       0.546   0.357   5.224  0.00  0.00    +0.087 A 
ATOM      8  C   UNL     1       1.204  -0.655   4.524  0.00  0.00    +0.159 A 
ATOM      9  C   UNL     1       0.755  -1.024   3.266  0.00  0.00    +0.077 A 
ATOM     10  O   UNL     1       2.221  -1.090   5.308  0.00  0.00    -0.408 OA
ATOM     11  C   UNL     1       2.222  -0.394   6.456  0.00  0.00    +0.419 A 
ATOM     12  O   UNL     1       3.011  -0.547   7.369  0.00  0.00    -0.223 OA
ATOM     13  N   UNL     1       1.213   0.499   6.440  0.00  0.00    -0.288 N 
ATOM     14  H   UNL     1       0.991   1.126   7.146  0.00  0.00    +0.172 HD
ENDBRANCH   1   4
BRANCH   1  15
ATOM     15  N   UNL     1       0.005  -0.007   0.002  0.00  0.00    -0.216 N 
ATOM     16  H   UNL     1       0.564  -0.483  -0.632  0.00  0.00    +0.174 HD
BRANCH  15  20
ATOM     17  C   UNL     1      -0.125   4.154  -0.049  0.00  0.00    -0.045 A 
ATOM     18  C   UNL     1       1.093   3.501  -0.113  0.00  0.00    +0.006 A 
ATOM     19  C   UNL     1       1.139   2.121  -0.096  0.00  0.00    +0.025 A 
ATOM     20  C   UNL     1      -0.039   1.389  -0.015  0.00  0.00    +0.048 A 
ATOM     21  C   UNL     1      -1.260   2.048   0.043  0.00  0.00    +0.025 A 
ATOM     22  C   UNL     1      -1.299   3.429   0.032  0.00  0.00    +0.006 A 
BRANCH  17  24
ATOM     23  C   UNL     1      -0.982   6.130  -1.278  0.00  0.00    +0.012 C 
ATOM     24  C   UNL     1      -0.172   5.660  -0.068  0.00  0.00    +0.013 C 
ATOM     25  C   UNL     1      -0.833   6.166   1.216  0.00  0.00    +0.012 C 
ENDBRANCH  17  24
ENDBRANCH  15  20
ENDBRANCH   1  15
TORSDOF 4
