REMARK  Name = ZINC12444765
REMARK  7 active torsions:
REMARK  status: ('A' for Active; 'I' for Inactive)
REMARK    1  A    between atoms: C_1  and  C_2
REMARK    2  A    between atoms: C_9  and  N_31
REMARK    3  A    between atoms: C_10  and  C_29
REMARK    4  A    between atoms: C_11  and  C_13
REMARK    5  A    between atoms: C_15  and  C_18
REMARK    6  A    between atoms: C_18  and  S_19
REMARK    7  A    between atoms: S_19  and  C_20
REMARK                            x       y       z     vdW  Elec       q    Type
REMARK                         _______ _______ _______ _____ _____    ______ ____
ROOT
ATOM      1  C   UNL     1      -0.018   1.503   0.010  0.00  0.00    +0.068 C 
ATOM      2  C   UNL     1       0.002  -0.004   0.002  0.00  0.00    +0.068 A 
ATOM      3  C   UNL     1       0.008  -0.813  -1.126  0.00  0.00    +0.050 A 
ATOM      4  C   UNL     1       0.027  -2.116  -0.713  0.00  0.00    +0.222 A 
ATOM      5  N   UNL     1       0.034  -2.116   0.629  0.00  0.00    -0.246 N 
ATOM      6  H   UNL     1       0.048  -2.900   1.201  0.00  0.00    +0.192 HD
ATOM      7  N   UNL     1       0.023  -0.780   1.060  0.00  0.00    -0.176 NA
ATOM      8  O   UNL     1       0.034  -3.159  -1.580  0.00  0.00    -0.423 OA
ATOM      9  C   UNL     1      -0.255  -2.900  -2.872  0.00  0.00    +0.200 C 
ATOM     10  C   UNL     1      -0.291  -1.656  -3.399  0.00  0.00    +0.099 C 
ATOM     11  C   UNL     1      -0.002  -0.421  -2.581  0.00  0.00    +0.108 C 
ENDROOT
BRANCH  11  12
ATOM     12  C   UNL     1       1.341   0.142  -2.966  0.00  0.00    +0.003 A 
ATOM     13  C   UNL     1       1.646   1.373  -3.443  0.00  0.00    +0.016 A 
ATOM     14  C   UNL     1       2.964   1.674  -3.731  0.00  0.00    -0.030 A 
ATOM     15  C   UNL     1       3.913   0.728  -3.526  0.00  0.00    +0.050 A 
ATOM     16  S   UNL     1       2.947  -0.637  -2.903  0.00  0.00    -0.100 S 
BRANCH  14  17
ATOM     17  C   UNL     1       3.340   3.033  -4.263  0.00  0.00    +0.112 C 
BRANCH  17  18
ATOM     18  S   UNL     1       3.710   4.144  -2.878  0.00  0.00    -0.094 S 
BRANCH  18  19
ATOM     19  C   UNL     1       4.126   5.670  -3.655  0.00  0.00    +0.136 A 
ATOM     20  N   UNL     1       4.160   5.960  -4.937  0.00  0.00    -0.233 NA
ATOM     21  C   UNL     1       4.501   7.185  -5.394  0.00  0.00    +0.079 A 
ATOM     22  C   UNL     1       4.577   7.625  -6.736  0.00  0.00    +0.029 A 
ATOM     23  C   UNL     1       4.942   8.913  -7.031  0.00  0.00    +0.002 A 
ATOM     24  C   UNL     1       5.249   9.825  -6.032  0.00  0.00    +0.001 A 
ATOM     25  C   UNL     1       5.185   9.428  -4.709  0.00  0.00    +0.017 A 
ATOM     26  C   UNL     1       4.820   8.141  -4.404  0.00  0.00    +0.040 A 
ATOM     27  S   UNL     1       4.602   7.219  -2.902  0.00  0.00    -0.061 S 
ENDBRANCH  18  19
ENDBRANCH  17  18
ENDBRANCH  14  17
ENDBRANCH  11  12
BRANCH   9  28
ATOM     28  N   UNL     1      -0.527  -3.961  -3.699  0.00  0.00    -0.328 N 
ATOM     29  H   UNL     1      -0.509  -4.865  -3.349  0.00  0.00    +0.145 HD
ATOM     30  H   UNL     1      -0.738  -3.806  -4.633  0.00  0.00    +0.145 HD
ENDBRANCH   9  28
BRANCH  10  31
ATOM     31  C   UNL     1      -0.615  -1.504  -4.786  0.00  0.00    +0.101 C 
ATOM     32  N   UNL     1      -0.872  -1.384  -5.886  0.00  0.00    -0.191 NA
ENDBRANCH  10  31
TORSDOF 6
