REMARK  Name = ZINC40734916
REMARK  5 active torsions:
REMARK  status: ('A' for Active; 'I' for Inactive)
REMARK    1  A    between atoms: C_1  and  C_2
REMARK    2  A    between atoms: C_7  and  C_9
REMARK    3  A    between atoms: C_7  and  C_10
REMARK    4  A    between atoms: C_14  and  N_29
REMARK    5  A    between atoms: C_15  and  N_19
REMARK                            x       y       z     vdW  Elec       q    Type
REMARK                         _______ _______ _______ _____ _____    ______ ____
ROOT
ATOM      1  C   UNL     1      -0.108   1.543  -0.018  0.00  0.00    +0.013 C 
ATOM      2  C   UNL     1      -0.114   0.007  -0.026  0.00  0.00    -0.014 C 
ATOM      3  C   UNL     1      -1.551  -0.577  -0.121  0.00  0.00    +0.030 C 
ATOM      4  C   UNL     1      -1.215  -2.013  -0.597  0.00  0.00    +0.076 C 
ATOM      5  C   UNL     1      -0.679  -2.777   0.611  0.00  0.00    +0.029 C 
ATOM      6  C   UNL     1       0.501  -2.107   1.290  0.00  0.00    -0.033 C 
ATOM      7  C   UNL     1       0.537  -0.592   1.219  0.00  0.00    +0.014 C 
ATOM      8  C   UNL     1       1.813  -2.691   0.745  0.00  0.00    +0.011 C 
ATOM      9  C   UNL     1       0.442  -2.492   2.790  0.00  0.00    +0.011 C 
ATOM     10  N   UNL     1      -0.129  -1.842  -1.582  0.00  0.00    -0.310 N 
ATOM     11  C   UNL     1       0.562  -0.577  -1.287  0.00  0.00    +0.113 C 
ATOM     12  C   UNL     1       0.182  -2.716  -2.616  0.00  0.00    +0.147 A 
ATOM     13  C   UNL     1       1.152  -2.379  -3.562  0.00  0.00    +0.106 A 
ATOM     14  C   UNL     1       1.426  -3.294  -4.580  0.00  0.00    +0.148 A 
ATOM     15  N   UNL     1       0.758  -4.445  -4.610  0.00  0.00    -0.219 NA
ATOM     16  C   UNL     1      -0.150  -4.725  -3.697  0.00  0.00    +0.225 A 
ATOM     17  N   UNL     1      -0.435  -3.891  -2.717  0.00  0.00    -0.219 NA
ENDROOT
BRANCH  14  18
ATOM     18  N   UNL     1       2.382  -3.008  -5.548  0.00  0.00    -0.309 N 
ATOM     19  C   UNL     1       3.770  -3.480  -5.416  0.00  0.00    +0.111 C 
ATOM     20  C   UNL     1       4.045  -4.455  -6.559  0.00  0.00    +0.054 C 
ATOM     21  C   UNL     1       3.579  -3.886  -7.873  0.00  0.00    -0.041 A 
ATOM     22  C   UNL     1       4.119  -4.423  -9.036  0.00  0.00    +0.004 A 
ATOM     23  C   UNL     1       3.728  -3.955 -10.273  0.00  0.00    +0.000 A 
ATOM     24  C   UNL     1       2.789  -2.943 -10.360  0.00  0.00    +0.000 A 
ATOM     25  C   UNL     1       2.254  -2.406  -9.207  0.00  0.00    +0.005 A 
ATOM     26  C   UNL     1       2.651  -2.873  -7.961  0.00  0.00    -0.027 A 
ATOM     27  C   UNL     1       2.046  -2.229  -6.744  0.00  0.00    +0.142 C 
ENDBRANCH  14  18
BRANCH  13  28
ATOM     28  N   UNL     1       1.832  -1.152  -3.493  0.00  0.00    -0.353 N 
ATOM     29  H   UNL     1       1.705  -0.570  -2.727  0.00  0.00    +0.143 HD
ATOM     30  H   UNL     1       2.429  -0.887  -4.210  0.00  0.00    +0.143 HD
ENDBRANCH  13  28
TORSDOF 2
