REMARK  Name = ZINC03913877
REMARK  10 active torsions:
REMARK  status: ('A' for Active; 'I' for Inactive)
REMARK    1  A    between atoms: C_1  and  C_2
REMARK    2  A    between atoms: C_2  and  C_3
REMARK    3  A    between atoms: C_6  and  C_9
REMARK    4  A    between atoms: N_13  and  C_17
REMARK    5  A    between atoms: C_17  and  C_18
REMARK    6  A    between atoms: C_18  and  C_19
REMARK    7  A    between atoms: C_19  and  C_20
REMARK    8  A    between atoms: N_22  and  N_23
REMARK    9  A    between atoms: C_24  and  C_26
REMARK   10  A    between atoms: C_31  and  O_32
REMARK                            x       y       z     vdW  Elec       q    Type
REMARK                         _______ _______ _______ _____ _____    ______ ____
ROOT
ATOM      1  C   UNL     1       3.192   5.735  -0.092  0.00  0.00    +0.029 C 
ENDROOT
BRANCH   1   2
ATOM      2  C   UNL     1       4.387   6.631   0.237  0.00  0.00    +0.115 C 
BRANCH   2   7
ATOM      3  C   UNL     1       2.617  10.864   2.124  0.00  0.00    +0.028 C 
ATOM      4  C   UNL     1       3.114  10.029   1.178  0.00  0.00    +0.077 C 
ATOM      5  C   UNL     1       3.515   8.610   1.291  0.00  0.00    +0.258 C 
ATOM      6  O   UNL     1       3.429   8.002   2.342  0.00  0.00    -0.269 OA
ATOM      7  N   UNL     1       3.973   8.036   0.191  0.00  0.00    -0.255 N 
ATOM      8  C   UNL     1       4.071   8.714  -0.970  0.00  0.00    +0.121 C 
ATOM      9  S   UNL     1       4.639   8.153  -2.484  0.00  0.00    -0.027 S 
ATOM     10  S   UNL     1       3.464  10.339  -0.547  0.00  0.00    -0.061 S 
BRANCH   3  14
ATOM     11  C   UNL     1       2.114  14.985   1.258  0.00  0.00    -0.048 A 
ATOM     12  C   UNL     1       1.611  14.463   2.438  0.00  0.00    +0.004 A 
ATOM     13  C   UNL     1       1.770  13.124   2.727  0.00  0.00    +0.008 A 
ATOM     14  C   UNL     1       2.442  12.293   1.824  0.00  0.00    -0.024 A 
ATOM     15  C   UNL     1       2.953  12.830   0.636  0.00  0.00    +0.008 A 
ATOM     16  C   UNL     1       2.780  14.169   0.360  0.00  0.00    +0.004 A 
BRANCH  11  18
ATOM     17  C   UNL     1       3.124  17.236   1.508  0.00  0.00    +0.009 C 
ATOM     18  C   UNL     1       1.936  16.449   0.951  0.00  0.00    +0.032 C 
ENDBRANCH  11  18
ENDBRANCH   3  14
ENDBRANCH   2   7
ENDBRANCH   1   2
BRANCH   1  19
ATOM     19  C   UNL     1       3.625   4.269  -0.044  0.00  0.00    +0.099 C 
BRANCH  19  20
ATOM     20  C   UNL     1       2.447   3.386  -0.368  0.00  0.00    +0.229 C 
ATOM     21  O   UNL     1       1.367   3.881  -0.613  0.00  0.00    -0.274 OA
ATOM     22  N   UNL     1       2.594   2.046  -0.386  0.00  0.00    -0.234 N 
ATOM     23  H   UNL     1       3.457   1.650  -0.190  0.00  0.00    +0.173 HD
BRANCH  22  24
ATOM     24  N   UNL     1       1.498   1.226  -0.687  0.00  0.00    -0.230 N 
ATOM     25  C   UNL     1       1.645  -0.114  -0.705  0.00  0.00    +0.264 C 
ATOM     26  O   UNL     1       2.727  -0.610  -0.460  0.00  0.00    -0.269 OA
ATOM     27  H   UNL     1       0.636   1.622  -0.887  0.00  0.00    +0.173 HD
BRANCH  25  28
ATOM     28  C   UNL     1       0.492  -0.978  -1.022  0.00  0.00    +0.079 A 
ATOM     29  C   UNL     1      -0.755  -0.411  -1.299  0.00  0.00    +0.017 A 
ATOM     30  C   UNL     1      -1.827  -1.224  -1.600  0.00  0.00    +0.001 A 
ATOM     31  C   UNL     1      -1.677  -2.601  -1.618  0.00  0.00    +0.004 A 
ATOM     32  C   UNL     1      -0.451  -3.174  -1.341  0.00  0.00    +0.046 A 
ATOM     33  C   UNL     1       0.640  -2.371  -1.042  0.00  0.00    +0.129 A 
BRANCH  33  34
ATOM     34  O   UNL     1       1.844  -2.932  -0.768  0.00  0.00    -0.506 OA
ATOM     35  H   UNL     1       1.983  -3.129   0.168  0.00  0.00    +0.292 HD
ENDBRANCH  33  34
ENDBRANCH  25  28
ENDBRANCH  22  24
ENDBRANCH  19  20
ENDBRANCH   1  19
TORSDOF 9
