REMARK  Name = ZINC01224747
REMARK  7 active torsions:
REMARK  status: ('A' for Active; 'I' for Inactive)
REMARK    1  A    between atoms: C_1  and  C_2
REMARK    2  A    between atoms: C_2  and  O_3
REMARK    3  A    between atoms: O_3  and  C_4
REMARK    4  A    between atoms: C_11  and  C_16
REMARK    5  A    between atoms: C_16  and  C_18
REMARK    6  A    between atoms: C_16  and  N_28
REMARK    7  A    between atoms: N_22  and  C_23
REMARK                            x       y       z     vdW  Elec       q    Type
REMARK                         _______ _______ _______ _____ _____    ______ ____
ROOT
ATOM      1  C   UNL     1       1.688   3.140   0.002  0.00  0.00    +0.179 C 
ENDROOT
BRANCH   1   9
ATOM      2  C   UNL     1       2.425   5.250  -5.780  0.00  0.00    +0.121 A 
ATOM      3  C   UNL     1       1.101   5.069  -6.175  0.00  0.00    +0.047 A 
ATOM      4  C   UNL     1       0.171   4.557  -5.298  0.00  0.00    +0.030 A 
ATOM      5  C   UNL     1       0.550   4.213  -4.005  0.00  0.00    +0.049 A 
ATOM      6  C   UNL     1       1.887   4.394  -3.602  0.00  0.00    +0.002 A 
ATOM      7  C   UNL     1       2.822   4.916  -4.501  0.00  0.00    +0.055 A 
ATOM      8  C   UNL     1       2.272   4.028  -2.238  0.00  0.00    +0.021 A 
ATOM      9  C   UNL     1       1.324   3.526  -1.408  0.00  0.00    +0.045 A 
ATOM     10  C   UNL     1      -0.001   3.359  -1.863  0.00  0.00    +0.255 A 
ATOM     11  O   UNL     1      -0.837   2.901  -1.103  0.00  0.00    -0.268 OA
ATOM     12  N   UNL     1      -0.367   3.697  -3.112  0.00  0.00    -0.322 N 
ATOM     13  H   UNL     1      -1.317   3.573  -3.398  0.00  0.00    +0.169 HD
BRANCH   2  14
ATOM     14  O   UNL     1       3.329   5.758  -6.659  0.00  0.00    -0.492 OA
BRANCH  14  16
ATOM     15  C   UNL     1       4.005   6.636  -8.806  0.00  0.00    +0.048 C 
ATOM     16  C   UNL     1       2.853   6.082  -7.966  0.00  0.00    +0.225 C 
ENDBRANCH  14  16
ENDBRANCH   2  14
ENDBRANCH   1   9
BRANCH   1  17
ATOM     17  N   UNL     1       0.836   3.874   0.947  0.00  0.00    -0.316 N 
ATOM     18  C   UNL     1       0.549   5.223   0.455  0.00  0.00    +0.106 C 
ATOM     19  C   UNL     1      -0.318   5.949   1.491  0.00  0.00    +0.024 C 
ATOM     20  C   UNL     1       0.541   6.195   2.734  0.00  0.00    +0.038 C 
ATOM     21  C   UNL     1       1.270   4.928   3.105  0.00  0.00    -0.026 A 
ATOM     22  C   UNL     1       1.386   3.864   2.228  0.00  0.00    +0.034 A 
ATOM     23  C   UNL     1       2.079   2.720   2.626  0.00  0.00    +0.023 A 
ATOM     24  C   UNL     1       2.641   2.646   3.883  0.00  0.00    +0.002 A 
ATOM     25  C   UNL     1       2.518   3.710   4.757  0.00  0.00    +0.000 A 
ATOM     26  C   UNL     1       1.835   4.846   4.368  0.00  0.00    +0.005 A 
ENDBRANCH   1  17
BRANCH   1  27
ATOM     27  C   UNL     1       1.482   1.659   0.186  0.00  0.00    +0.177 A 
ATOM     28  N   UNL     1       0.335   1.038   0.317  0.00  0.00    -0.111 NA
ATOM     29  N   UNL     1       0.576  -0.220   0.452  0.00  0.00    -0.023 NA
ATOM     30  N   UNL     1       1.847  -0.419   0.411  0.00  0.00    -0.044 NA
ATOM     31  N   UNL     1       2.441   0.716   0.248  0.00  0.00    -0.224 N 
BRANCH  31  32
ATOM     32  C   UNL     1       3.886   0.935   0.148  0.00  0.00    +0.111 C 
ATOM     33  C   UNL     1       4.465   0.116  -1.023  0.00  0.00    +0.027 C 
ATOM     34  C   UNL     1       5.846  -0.361  -0.506  0.00  0.00    +0.002 C 
ATOM     35  C   UNL     1       5.564  -0.673   0.984  0.00  0.00    +0.002 C 
ATOM     36  C   UNL     1       4.584   0.434   1.424  0.00  0.00    +0.027 C 
ENDBRANCH  31  32
ENDBRANCH   1  27
TORSDOF 6
