REMARK  Name = ZINC40426532
REMARK  6 active torsions:
REMARK  status: ('A' for Active; 'I' for Inactive)
REMARK    1  A    between atoms: C_2  and  C_3
REMARK    2  A    between atoms: C_3  and  N_4
REMARK    3  A    between atoms: C_7  and  C_12
REMARK    4  A    between atoms: N_21  and  C_23
REMARK    5  A    between atoms: C_23  and  C_24
REMARK    6  A    between atoms: N_26  and  C_27
REMARK                            x       y       z     vdW  Elec       q    Type
REMARK                         _______ _______ _______ _____ _____    ______ ____
ROOT
ATOM      1  N   UNL     1      -1.331  -1.674  -1.095  0.00  0.00    -0.253 N 
ATOM      2  C   UNL     1      -1.842  -1.232  -2.281  0.00  0.00    +0.043 C 
ATOM      3  C   UNL     1      -1.883  -2.033  -3.366  0.00  0.00    +0.058 C 
ATOM      4  C   UNL     1      -1.342  -3.441  -3.223  0.00  0.00    +0.142 C 
ATOM      5  N   UNL     1      -0.812  -3.821  -1.902  0.00  0.00    -0.288 N 
ATOM      6  C   UNL     1      -0.835  -2.905  -0.914  0.00  0.00    +0.307 C 
ATOM      7  O   UNL     1      -0.396  -3.208   0.179  0.00  0.00    -0.252 OA
ATOM      8  C   UNL     1      -2.453  -1.349  -4.459  0.00  0.00    +0.247 C 
ATOM      9  O   UNL     1      -2.613  -1.832  -5.565  0.00  0.00    -0.270 OA
ATOM     10  N   UNL     1      -2.796  -0.093  -4.121  0.00  0.00    -0.283 N 
ATOM     11  C   UNL     1      -2.438   0.091  -2.707  0.00  0.00    +0.160 C 
ATOM     12  H   UNL     1      -0.452  -4.708  -1.749  0.00  0.00    +0.151 HD
ENDROOT
BRANCH   4  13
ATOM     13  C   UNL     1      -0.239  -3.619  -4.234  0.00  0.00    -0.021 A 
ATOM     14  C   UNL     1       1.027  -3.129  -3.970  0.00  0.00    +0.006 A 
ATOM     15  C   UNL     1       2.039  -3.292  -4.897  0.00  0.00    +0.002 A 
ATOM     16  C   UNL     1       1.787  -3.946  -6.089  0.00  0.00    +0.020 A 
ATOM     17  C   UNL     1       0.521  -4.438  -6.353  0.00  0.00    +0.041 A 
ATOM     18  C   UNL     1      -0.491  -4.279  -5.422  0.00  0.00    +0.025 A 
ATOM     19 CL   UNL     1       0.203  -5.259  -7.849  0.00  0.00    -0.084 Cl
ENDBRANCH   4  13
BRANCH   1  20
ATOM     20  C   UNL     1      -1.318  -0.748   0.041  0.00  0.00    +0.141 C 
BRANCH  20  22
ATOM     21  C   UNL     1      -0.052   1.339   0.047  0.00  0.00    +0.005 C 
ATOM     22  C   UNL     1      -0.027   0.029   0.041  0.00  0.00    -0.015 C 
ENDBRANCH  20  22
ENDBRANCH   1  20
BRANCH  10  23
ATOM     23  C   UNL     1      -3.413   0.906  -4.998  0.00  0.00    +0.204 C 
BRANCH  23  24
ATOM     24  C   UNL     1      -4.913   0.792  -4.913  0.00  0.00    +0.235 C 
ATOM     25  O   UNL     1      -5.418  -0.041  -4.191  0.00  0.00    -0.274 OA
ATOM     26  N   UNL     1      -5.693   1.616  -5.639  0.00  0.00    -0.282 N 
ATOM     27  H   UNL     1      -5.292   2.324  -6.167  0.00  0.00    +0.155 HD
BRANCH  26  28
ATOM     28  C   UNL     1      -7.084   1.450  -5.633  0.00  0.00    +0.069 A 
ATOM     29  C   UNL     1      -7.728   1.026  -4.479  0.00  0.00    +0.026 A 
ATOM     30  C   UNL     1      -9.100   0.864  -4.474  0.00  0.00    +0.002 A 
ATOM     31  C   UNL     1      -9.833   1.122  -5.619  0.00  0.00    +0.003 A 
ATOM     32  C   UNL     1      -9.196   1.544  -6.771  0.00  0.00    +0.040 A 
ATOM     33  C   UNL     1      -7.823   1.715  -6.780  0.00  0.00    +0.144 A 
ATOM     34  F   UNL     1      -7.201   2.133  -7.904  0.00  0.00    -0.204 F 
ENDBRANCH  26  28
ENDBRANCH  23  24
ENDBRANCH  10  23
TORSDOF 6
