REMARK  Name = ZINC05194438
REMARK  4 active torsions:
REMARK  status: ('A' for Active; 'I' for Inactive)
REMARK    1  A    between atoms: C_1  and  C_2
REMARK    2  A    between atoms: C_7  and  C_27
REMARK    3  A    between atoms: N_12  and  C_13
REMARK    4  A    between atoms: N_18  and  C_20
REMARK                            x       y       z     vdW  Elec       q    Type
REMARK                         _______ _______ _______ _____ _____    ______ ____
ROOT
ATOM      1  C   UNL     1       3.699   0.712   3.265  0.00  0.00    +0.101 C 
ATOM      2  C   UNL     1       5.054   0.830   2.530  0.00  0.00    +0.120 C 
ATOM      3  C   UNL     1       6.070   0.956   3.644  0.00  0.00    +0.222 C 
ATOM      4  O   UNL     1       7.210   1.346   3.504  0.00  0.00    -0.275 OA
ATOM      5  N   UNL     1       5.525   0.573   4.812  0.00  0.00    -0.270 N 
ATOM      6  C   UNL     1       4.131   0.149   4.637  0.00  0.00    +0.136 C 
ENDROOT
BRANCH   1  16
ATOM      7  C   UNL     1      -0.193   1.049   0.256  0.00  0.00    +0.028 C 
ATOM      8  C   UNL     1       0.457  -0.240  -0.251  0.00  0.00    +0.075 C 
ATOM      9  C   UNL     1      -0.572  -1.375  -0.235  0.00  0.00    +0.022 C 
ATOM     10  C   UNL     1       0.117  -2.689  -0.611  0.00  0.00    +0.004 C 
ATOM     11  C   UNL     1       1.204  -3.008   0.418  0.00  0.00    +0.022 C 
ATOM     12  C   UNL     1       2.253  -1.892   0.410  0.00  0.00    +0.075 C 
ATOM     13  N   UNL     1       1.579  -0.604   0.624  0.00  0.00    -0.280 N 
ATOM     14  C   UNL     1       1.980   0.227   1.607  0.00  0.00    +0.303 C 
ATOM     15  O   UNL     1       1.597   1.381   1.623  0.00  0.00    -0.253 OA
ATOM     16  N   UNL     1       2.807  -0.222   2.573  0.00  0.00    -0.294 N 
ATOM     17  C   UNL     1       3.270  -2.134   1.527  0.00  0.00    +0.028 C 
ATOM     18  H   UNL     1       2.811  -1.162   2.809  0.00  0.00    +0.151 HD
ENDBRANCH   1  16
BRANCH   5  19
ATOM     19  C   UNL     1       6.201   0.579   6.039  0.00  0.00    +0.036 A 
ATOM     20  C   UNL     1       7.555   0.885   6.085  0.00  0.00    +0.026 A 
ATOM     21  C   UNL     1       8.219   0.890   7.296  0.00  0.00    +0.040 A 
ATOM     22  C   UNL     1       7.537   0.590   8.463  0.00  0.00    +0.124 A 
ATOM     23  C   UNL     1       6.187   0.286   8.419  0.00  0.00    +0.040 A 
ATOM     24  C   UNL     1       5.517   0.285   7.211  0.00  0.00    +0.026 A 
ATOM     25  F   UNL     1       8.189   0.595   9.646  0.00  0.00    -0.205 F 
ENDBRANCH   5  19
TORSDOF 2
