REMARK  Name = ZINC33229499
REMARK  7 active torsions:
REMARK  status: ('A' for Active; 'I' for Inactive)
REMARK    1  A    between atoms: C_1  and  C_2
REMARK    2  A    between atoms: C_2  and  C_28
REMARK    3  A    between atoms: C_4  and  N_10
REMARK    4  A    between atoms: C_6  and  C_8
REMARK    5  A    between atoms: C_6  and  C_9
REMARK    6  A    between atoms: C_11  and  C_13
REMARK    7  A    between atoms: N_16  and  C_18
REMARK                            x       y       z     vdW  Elec       q    Type
REMARK                         _______ _______ _______ _____ _____    ______ ____
ROOT
ATOM      1  N   UNL     1       0.376   5.050  -1.216  0.00  0.00    -0.307 N 
ATOM      2  C   UNL     1       0.077   5.700  -2.358  0.00  0.00    +0.265 C 
ATOM      3  O   UNL     1      -0.186   5.072  -3.365  0.00  0.00    -0.268 OA
ATOM      4  H   UNL     1       0.615   5.618  -0.305  0.00  0.00    +0.149 HD
ENDROOT
BRANCH   1   8
ATOM      5  C   UNL     1      -0.958   0.983  -2.263  0.00  0.00    -0.010 C 
ATOM      6  C   UNL     1      -1.049   1.551  -0.842  0.00  0.00    -0.072 C 
ATOM      7  C   UNL     1      -1.030   3.077  -0.900  0.00  0.00    +0.009 C 
ATOM      8  C   UNL     1       0.383   3.582  -1.188  0.00  0.00    +0.071 C 
ATOM      9  C   UNL     1       1.307   3.104  -0.068  0.00  0.00    +0.009 C 
ATOM     10  C   UNL     1       1.318   1.579  -0.002  0.00  0.00    -0.072 C 
ATOM     11  N   UNL     1      -0.012   1.005   0.008  0.00  0.00    +0.386 N 
ATOM     12  C   UNL     1       2.027   1.175   1.309  0.00  0.00    -0.010 C 
ATOM     13  C   UNL     1       2.153   1.022  -1.161  0.00  0.00    -0.010 C 
ATOM     14  C   UNL     1      -2.418   1.125  -0.266  0.00  0.00    -0.010 C 
ATOM     15  H   UNL     1      -0.322   1.079   1.060  0.00  0.00    -0.084 HD
ATOM     16  H   UNL     1       0.156  -0.051  -0.252  0.00  0.00    -0.084 HD
ENDBRANCH   1   8
BRANCH   2  17
ATOM     17  C   UNL     1       0.070   7.176  -2.386  0.00  0.00    +0.151 A 
ATOM     18  C   UNL     1      -0.222   7.995  -3.502  0.00  0.00    +0.006 A 
ATOM     19  C   UNL     1      -0.107   9.268  -3.065  0.00  0.00    +0.049 A 
ATOM     20  N   UNL     1       0.237   9.207  -1.750  0.00  0.00    -0.233 N 
ATOM     21  N   UNL     1       0.330   7.982  -1.374  0.00  0.00    -0.161 NA
ATOM     22  C   UNL     1      -0.402  10.234  -4.190  0.00  0.00    +0.056 C 
ATOM     23  C   UNL     1      -0.294   9.392  -5.481  0.00  0.00    +0.011 C 
ATOM     24  C   UNL     1      -0.604   7.970  -4.962  0.00  0.00    +0.040 C 
BRANCH  20  25
ATOM     25  C   UNL     1       0.454  10.319  -0.925  0.00  0.00    +0.101 A 
ATOM     26  C   UNL     1       0.326  11.602  -1.438  0.00  0.00    +0.031 A 
ATOM     27  C   UNL     1       0.534  12.696  -0.621  0.00  0.00    +0.002 A 
ATOM     28  C   UNL     1       0.881  12.515   0.705  0.00  0.00    +0.003 A 
ATOM     29  C   UNL     1       1.016  11.239   1.220  0.00  0.00    +0.040 A 
ATOM     30  C   UNL     1       0.803  10.139   0.409  0.00  0.00    +0.149 A 
ATOM     31  F   UNL     1       0.935   8.892   0.912  0.00  0.00    -0.203 F 
ENDBRANCH  20  25
ENDBRANCH   2  17
TORSDOF 3
