REMARK  Name = ZINC59311217
REMARK  8 active torsions:
REMARK  status: ('A' for Active; 'I' for Inactive)
REMARK    1  A    between atoms: C_5  and  C_7
REMARK    2  A    between atoms: C_7  and  S_8
REMARK    3  A    between atoms: S_8  and  C_9
REMARK    4  A    between atoms: C_14  and  N_15
REMARK    5  A    between atoms: C_16  and  C_18
REMARK    6  A    between atoms: C_18  and  S_19
REMARK    7  A    between atoms: S_19  and  C_20
REMARK    8  A    between atoms: N_25  and  N_26
REMARK                            x       y       z     vdW  Elec       q    Type
REMARK                         _______ _______ _______ _____ _____    ______ ____
ROOT
ATOM      1  N   UNL     1       1.292  -4.800   3.916  0.00  0.00    -0.284 N 
ATOM      2  C   UNL     1       1.212  -5.589   5.006  0.00  0.00    +0.228 C 
ATOM      3  O   UNL     1       1.224  -6.796   4.882  0.00  0.00    -0.275 OA
ATOM      4  H   UNL     1       1.364  -3.838   4.019  0.00  0.00    +0.155 HD
ENDROOT
BRANCH   1  10
ATOM      5  C   UNL     1       1.847  -4.691   1.560  0.00  0.00    +0.029 A 
ATOM      6  C   UNL     1       1.828  -5.262   0.296  0.00  0.00    +0.016 A 
ATOM      7  C   UNL     1       1.238  -6.497   0.104  0.00  0.00    +0.001 A 
ATOM      8  C   UNL     1       0.663  -7.166   1.169  0.00  0.00    +0.002 A 
ATOM      9  C   UNL     1       0.677  -6.604   2.433  0.00  0.00    +0.024 A 
ATOM     10  C   UNL     1       1.273  -5.368   2.636  0.00  0.00    +0.047 A 
BRANCH   5  11
ATOM     11  S   UNL     1       2.600  -3.117   1.808  0.00  0.00    -0.119 S 
BRANCH  11  12
ATOM     12  C   UNL     1       3.189  -2.648   0.158  0.00  0.00    +0.111 C 
BRANCH  12  17
ATOM     13  C   UNL     1       3.743   1.087   0.104  0.00  0.00    +0.000 A 
ATOM     14  C   UNL     1       5.100   1.169   0.358  0.00  0.00    +0.001 A 
ATOM     15  C   UNL     1       5.838   0.016   0.548  0.00  0.00    +0.020 A 
ATOM     16  C   UNL     1       5.220  -1.220   0.483  0.00  0.00    +0.045 A 
ATOM     17  C   UNL     1       3.863  -1.302   0.229  0.00  0.00    -0.019 A 
ATOM     18  C   UNL     1       3.125  -0.148   0.039  0.00  0.00    +0.006 A 
ATOM     19 CL   UNL     1       6.148  -2.668   0.720  0.00  0.00    -0.083 Cl
ENDBRANCH  12  17
ENDBRANCH  11  12
ENDBRANCH   5  11
ENDBRANCH   1  10
BRANCH   2  20
ATOM     20  C   UNL     1       1.107  -4.973   6.377  0.00  0.00    +0.173 C 
BRANCH  20  21
ATOM     21  S   UNL     1       1.016  -6.287   7.625  0.00  0.00    -0.075 S 
BRANCH  21  22
ATOM     22  C   UNL     1       0.899  -5.416   9.152  0.00  0.00    +0.211 A 
ATOM     23  N   UNL     1       0.814  -5.979  10.363  0.00  0.00    -0.186 NA
ATOM     24  C   UNL     1       0.742  -5.040  11.283  0.00  0.00    +0.232 A 
ATOM     25  N   UNL     1       0.780  -3.843  10.661  0.00  0.00    -0.245 N 
ATOM     26  N   UNL     1       0.886  -4.112   9.287  0.00  0.00    -0.144 NA
ATOM     27  N   UNL     1       0.643  -5.245  12.648  0.00  0.00    -0.205 N 
ATOM     28  H   UNL     1       0.594  -4.486  13.250  0.00  0.00    +0.177 HD
ATOM     29  H   UNL     1       0.744  -2.969  11.081  0.00  0.00    +0.192 HD
BRANCH  27  30
ATOM     30  N   UNL     1       0.613  -6.549  13.160  0.00  0.00    -0.189 NA
ATOM     31  C   UNL     1       0.424  -6.740  14.411  0.00  0.00    +0.037 C 
ATOM     32  C   UNL     1       0.335  -5.555  15.367  0.00  0.00    +0.052 C 
ATOM     33  C   UNL     1      -0.722  -5.782  16.414  0.00  0.00    +0.006 C 
ATOM     34  C   UNL     1      -0.112  -6.495  17.629  0.00  0.00    +0.000 C 
ATOM     35  C   UNL     1       0.020  -7.941  17.427  0.00  0.00    +0.000 C 
ATOM     36  C   UNL     1       0.985  -8.294  16.287  0.00  0.00    +0.006 C 
ATOM     37  C   UNL     1       0.280  -8.156  14.960  0.00  0.00    +0.052 C 
ENDBRANCH  27  30
ENDBRANCH  21  22
ENDBRANCH  20  21
ENDBRANCH   2  20
TORSDOF 8
