REMARK  Name = ZINC63405915
REMARK  7 active torsions:
REMARK  status: ('A' for Active; 'I' for Inactive)
REMARK    1  A    between atoms: C_1  and  N_2
REMARK    2  A    between atoms: N_12  and  C_28
REMARK    3  A    between atoms: N_18  and  C_21
REMARK    4  A    between atoms: C_21  and  C_22
REMARK    5  A    between atoms: C_28  and  C_29
REMARK    6  A    between atoms: C_29  and  S_30
REMARK    7  A    between atoms: S_30  and  C_31
REMARK                            x       y       z     vdW  Elec       q    Type
REMARK                         _______ _______ _______ _____ _____    ______ ____
ROOT
ATOM      1  C   UNL     1      -0.251   2.044  -0.888  0.00  0.00    +0.136 C 
ATOM      2  N   UNL     1      -0.221   0.628  -0.513  0.00  0.00    -0.264 N 
ATOM      3  C   UNL     1      -1.479  -0.094  -0.281  0.00  0.00    +0.203 C 
ATOM      4  C   UNL     1      -1.381  -1.488  -0.950  0.00  0.00    +0.205 C 
ATOM      5  C   UNL     1      -0.009  -2.058  -0.803  0.00  0.00    +0.264 C 
ATOM      6  N   UNL     1       1.055  -1.324  -0.512  0.00  0.00    -0.126 NA
ATOM      7  C   UNL     1       0.970  -0.012  -0.386  0.00  0.00    +0.330 C 
ATOM      8  O   UNL     1       2.074   0.687  -0.063  0.00  0.00    -0.250 OA
ATOM      9  O   UNL     1       0.139  -3.254  -0.957  0.00  0.00    -0.271 OA
ATOM     10  N   UNL     1      -1.681  -1.127  -2.352  0.00  0.00    -0.289 N 
ATOM     11  C   UNL     1      -2.578  -0.081  -2.267  0.00  0.00    +0.161 C 
ATOM     12  N   UNL     1      -2.517   0.563  -1.113  0.00  0.00    -0.340 N 
ATOM     13  N   UNL     1      -3.448   0.259  -3.275  0.00  0.00    -0.302 N 
ATOM     14  C   UNL     1      -4.825   0.681  -2.975  0.00  0.00    +0.123 C 
ATOM     15  C   UNL     1      -5.098   2.003  -3.699  0.00  0.00    +0.103 C 
ATOM     16  N   UNL     1      -4.794   1.847  -5.128  0.00  0.00    -0.295 NA
ATOM     17  C   UNL     1      -3.371   1.552  -5.341  0.00  0.00    +0.103 C 
ATOM     18  C   UNL     1      -3.025   0.217  -4.683  0.00  0.00    +0.123 C 
ATOM     19  H   UNL     1      -3.053   1.327  -0.847  0.00  0.00    +0.164 HD
ENDROOT
BRANCH  16  20
ATOM     20  C   UNL     1      -5.204   3.037  -5.886  0.00  0.00    +0.119 C 
BRANCH  20  21
ATOM     21  C   UNL     1      -5.107   2.749  -7.362  0.00  0.00    -0.033 A 
ATOM     22  C   UNL     1      -3.929   3.002  -8.040  0.00  0.00    +0.005 A 
ATOM     23  C   UNL     1      -3.840   2.738  -9.394  0.00  0.00    +0.000 A 
ATOM     24  C   UNL     1      -4.929   2.221 -10.070  0.00  0.00    +0.000 A 
ATOM     25  C   UNL     1      -6.107   1.968  -9.393  0.00  0.00    +0.000 A 
ATOM     26  C   UNL     1      -6.195   2.228  -8.038  0.00  0.00    +0.005 A 
ENDBRANCH  20  21
ENDBRANCH  16  20
BRANCH  10  27
ATOM     27  C   UNL     1      -1.143  -1.744  -3.567  0.00  0.00    +0.119 C 
BRANCH  27  28
ATOM     28  C   UNL     1      -2.135  -2.784  -4.093  0.00  0.00    +0.092 C 
BRANCH  28  29
ATOM     29  S   UNL     1      -1.542  -3.438  -5.678  0.00  0.00    -0.113 S 
BRANCH  29  30
ATOM     30  C   UNL     1      -2.813  -4.640  -6.159  0.00  0.00    +0.235 C 
ATOM     31  N   UNL     1      -2.975  -5.651  -5.107  0.00  0.00    -0.355 N 
ATOM     32  C   UNL     1      -4.205  -5.582  -4.685  0.00  0.00    +0.061 A 
ATOM     33  C   UNL     1      -4.953  -6.324  -3.662  0.00  0.00    +0.027 A 
ATOM     34  C   UNL     1      -6.248  -6.026  -3.438  0.00  0.00    +0.002 A 
ATOM     35  C   UNL     1      -6.929  -5.022  -4.149  0.00  0.00    +0.002 A 
ATOM     36  C   UNL     1      -6.337  -4.282  -5.109  0.00  0.00    +0.027 A 
ATOM     37  C   UNL     1      -4.925  -4.519  -5.438  0.00  0.00    +0.061 A 
ATOM     38  N   UNL     1      -4.113  -3.971  -6.296  0.00  0.00    -0.355 N 
ATOM     39  H   UNL     1      -2.291  -6.259  -4.785  0.00  0.00    +0.162 HD
ATOM     40  H   UNL     1      -4.327  -3.253  -6.912  0.00  0.00    +0.162 HD
ENDBRANCH  29  30
ENDBRANCH  28  29
ENDBRANCH  27  28
ENDBRANCH  10  27
TORSDOF 6
