REMARK  Name = ZINC40755823
REMARK  4 active torsions:
REMARK  status: ('A' for Active; 'I' for Inactive)
REMARK    1  A    between atoms: C_1  and  C_2
REMARK    2  A    between atoms: C_10  and  N_26
REMARK    3  A    between atoms: C_11  and  N_15
REMARK    4  A    between atoms: N_15  and  C_16
REMARK                            x       y       z     vdW  Elec       q    Type
REMARK                         _______ _______ _______ _____ _____    ______ ____
ROOT
ATOM      1  C   UNL     1      -0.005   1.496  -0.186  0.00  0.00    +0.045 C 
ATOM      2  C   UNL     1       0.013  -0.006  -0.066  0.00  0.00    -0.032 A 
ATOM      3  C   UNL     1       0.020  -0.610   1.185  0.00  0.00    +0.008 A 
ATOM      4  C   UNL     1       0.035  -1.991   1.251  0.00  0.00    +0.044 A 
ATOM      5  C   UNL     1       0.043  -2.725   0.069  0.00  0.00    +0.124 A 
ATOM      6  N   UNL     1       0.036  -2.113  -1.105  0.00  0.00    -0.240 NA
ATOM      7  C   UNL     1       0.016  -0.796  -1.198  0.00  0.00    +0.116 A 
ATOM      8  N   UNL     1       0.059  -4.116   0.121  0.00  0.00    -0.283 N 
ATOM      9  C   UNL     1      -0.041  -4.857  -1.052  0.00  0.00    +0.150 A 
ATOM     10  C   UNL     1      -0.134  -6.249  -1.005  0.00  0.00    +0.106 A 
ATOM     11  C   UNL     1      -0.233  -6.944  -2.212  0.00  0.00    +0.145 A 
ATOM     12  N   UNL     1      -0.235  -6.258  -3.353  0.00  0.00    -0.219 NA
ATOM     13  C   UNL     1      -0.146  -4.943  -3.353  0.00  0.00    +0.225 A 
ATOM     14  N   UNL     1      -0.057  -4.249  -2.236  0.00  0.00    -0.219 NA
ATOM     15  H   UNL     1       0.141  -4.568   0.975  0.00  0.00    +0.155 HD
ENDROOT
BRANCH  10  16
ATOM     16  N   UNL     1      -0.127  -6.931   0.222  0.00  0.00    -0.353 N 
ATOM     17  H   UNL     1      -0.057  -6.435   1.052  0.00  0.00    +0.143 HD
ATOM     18  H   UNL     1      -0.191  -7.899   0.239  0.00  0.00    +0.143 HD
ENDBRANCH  10  16
BRANCH  11  19
ATOM     19  N   UNL     1      -0.327  -8.330  -2.222  0.00  0.00    -0.322 N 
ATOM     20  H   UNL     1      -0.324  -8.823  -1.387  0.00  0.00    +0.148 HD
BRANCH  19  21
ATOM     21  C   UNL     1      -0.430  -9.048  -3.495  0.00  0.00    +0.034 C 
ATOM     22  C   UNL     1       0.806  -8.755  -4.348  0.00  0.00    +0.029 C 
ATOM     23  C   UNL     1       0.698  -9.505  -5.677  0.00  0.00    -0.008 C 
ATOM     24  C   UNL     1       0.608 -11.008  -5.409  0.00  0.00    +0.007 C 
ATOM     25  C   UNL     1      -0.628 -11.301  -4.556  0.00  0.00    -0.008 C 
ATOM     26  C   UNL     1      -0.520 -10.552  -3.227  0.00  0.00    +0.029 C 
ATOM     27  C   UNL     1      -1.882 -10.840  -5.301  0.00  0.00    +0.007 C 
ATOM     28  C   UNL     1      -1.793  -9.337  -5.570  0.00  0.00    -0.008 C 
ATOM     29  C   UNL     1      -0.556  -9.044  -6.422  0.00  0.00    +0.007 C 
ATOM     30  C   UNL     1      -1.685  -8.587  -4.240  0.00  0.00    +0.029 C 
ENDBRANCH  19  21
ENDBRANCH  11  19
TORSDOF 3
