REMARK  Name = ZINC35697942
REMARK  1 active torsions:
REMARK  status: ('A' for Active; 'I' for Inactive)
REMARK    1  A    between atoms: N_8  and  C_11
REMARK                            x       y       z     vdW  Elec       q    Type
REMARK                         _______ _______ _______ _____ _____    ______ ____
ROOT
ATOM      1  C   UNL     1      -0.017   1.398   0.010  0.00  0.00    +0.036 A 
ATOM      2  C   UNL     1       1.139   2.094   0.002  0.00  0.00    +0.048 A 
ATOM      3  S   UNL     1       2.380   0.810  -0.016  0.00  0.00    -0.090 S 
ATOM      4  C   UNL     1       1.293  -0.592  -0.013  0.00  0.00    +0.102 A 
ATOM      5  C   UNL     1       0.002  -0.004   0.002  0.00  0.00    +0.086 A 
ATOM      6  N   UNL     1      -1.046  -0.865   0.007  0.00  0.00    -0.222 NA
ATOM      7  C   UNL     1      -0.871  -2.172  -0.002  0.00  0.00    +0.188 A 
ATOM      8  N   UNL     1       0.346  -2.745  -0.016  0.00  0.00    -0.253 N 
ATOM      9  C   UNL     1       1.462  -1.951  -0.022  0.00  0.00    +0.274 A 
ATOM     10  O   UNL     1       2.698  -2.494  -0.037  0.00  0.00    -0.266 OA
ATOM     11  S   UNL     1      -2.252  -3.183   0.005  0.00  0.00    -0.011 S 
ENDROOT
BRANCH   8  12
ATOM     12  C   UNL     1       0.470  -4.140  -0.025  0.00  0.00    +0.072 A 
ATOM     13  C   UNL     1       0.527  -4.826  -1.231  0.00  0.00    +0.049 A 
ATOM     14  C   UNL     1       0.650  -6.202  -1.237  0.00  0.00    +0.061 A 
ATOM     15  C   UNL     1       0.717  -6.898  -0.041  0.00  0.00    +0.061 A 
ATOM     16  C   UNL     1       0.660  -6.217   1.162  0.00  0.00    +0.043 A 
ATOM     17  C   UNL     1       0.543  -4.840   1.173  0.00  0.00    +0.066 A 
ATOM     18 CL   UNL     1       0.480  -3.985   2.683  0.00  0.00    -0.081 Cl
ATOM     19 CL   UNL     1       0.870  -8.627  -0.051  0.00  0.00    -0.082 Cl
ATOM     20 CL   UNL     1       0.720  -7.061  -2.744  0.00  0.00    -0.082 Cl
ENDBRANCH   8  12
TORSDOF 1
