REMARK  Name = ZINC06409861
REMARK  13 active torsions:
REMARK  status: ('A' for Active; 'I' for Inactive)
REMARK    1  A    between atoms: C_1  and  C_2
REMARK    2  A    between atoms: C_7  and  C_14
REMARK    3  A    between atoms: C_14  and  C_16
REMARK    4  A    between atoms: C_14  and  N_70
REMARK    5  A    between atoms: N_20  and  C_21
REMARK    6  A    between atoms: C_21  and  C_22
REMARK    7  A    between atoms: C_22  and  O_23
REMARK    8  A    between atoms: O_23  and  C_24
REMARK    9  A    between atoms: C_25  and  C_26
REMARK   10  A    between atoms: C_25  and  N_70
REMARK   11  A    between atoms: C_26  and  C_27
REMARK   12  A    between atoms: C_33  and  C_34
REMARK   13  A    between atoms: C_33  and  N_70
REMARK                            x       y       z     vdW  Elec       q    Type
REMARK                         _______ _______ _______ _____ _____    ______ ____
ROOT
ATOM      1  C   UNL     1       0.102  -2.414  -2.153  0.00  0.00    +0.039 C 
ENDROOT
BRANCH   1   8
ATOM      2  C   UNL     1      -1.399   5.410  -2.538  0.00  0.00    +0.044 C 
ATOM      3  C   UNL     1      -1.337   3.912  -2.394  0.00  0.00    -0.048 A 
ATOM      4  C   UNL     1      -2.459   3.216  -1.964  0.00  0.00    +0.004 A 
ATOM      5  C   UNL     1      -2.424   1.857  -1.827  0.00  0.00    +0.010 A 
ATOM      6  C   UNL     1      -1.247   1.161  -2.121  0.00  0.00    -0.001 A 
ATOM      7  C   UNL     1      -1.174  -0.295  -1.984  0.00  0.00    +0.017 A 
ATOM      8  C   UNL     1      -0.007  -0.916  -2.283  0.00  0.00    +0.011 A 
ATOM      9  C   UNL     1       1.109  -0.165  -2.711  0.00  0.00    +0.251 A 
ATOM     10  O   UNL     1       2.151  -0.743  -2.970  0.00  0.00    -0.268 OA
ATOM     11  N   UNL     1       1.050   1.171  -2.845  0.00  0.00    -0.322 N 
ATOM     12  H   UNL     1       1.835   1.657  -3.145  0.00  0.00    +0.169 HD
ATOM     13  C   UNL     1      -0.107   1.863  -2.557  0.00  0.00    +0.049 A 
ATOM     14  C   UNL     1      -0.167   3.246  -2.689  0.00  0.00    +0.029 A 
ENDBRANCH   1   8
BRANCH   1  15
ATOM     15  C   UNL     1       0.259  -3.027  -3.520  0.00  0.00    +0.143 A 
ATOM     16  N   UNL     1       1.339  -3.018  -4.263  0.00  0.00    -0.115 NA
ATOM     17  N   UNL     1       1.074  -3.644  -5.358  0.00  0.00    -0.023 NA
ATOM     18  N   UNL     1      -0.147  -4.051  -5.333  0.00  0.00    -0.044 NA
ATOM     19  N   UNL     1      -0.681  -3.695  -4.214  0.00  0.00    -0.228 N 
BRANCH  19  20
ATOM     20  C   UNL     1      -2.055  -3.965  -3.781  0.00  0.00    +0.175 C 
BRANCH  20  21
ATOM     21  C   UNL     1      -2.966  -2.822  -4.235  0.00  0.00    +0.183 C 
BRANCH  21  22
ATOM     22  O   UNL     1      -4.306  -3.085  -3.813  0.00  0.00    -0.381 OA
ATOM     23  C   UNL     1      -5.242  -2.073  -4.189  0.00  0.00    +0.194 C 
ENDBRANCH  21  22
ENDBRANCH  20  21
ENDBRANCH  19  20
ENDBRANCH   1  15
BRANCH   1  24
ATOM     24  N   UNL     1       1.293  -2.738  -1.340  0.00  0.00    +0.392 N 
ATOM     25  H   UNL     1       2.116  -2.288  -1.760  0.00  0.00    -0.080 HD
BRANCH  24  26
ATOM     26  C   UNL     1       1.506  -4.200  -1.315  0.00  0.00    -0.072 C 
BRANCH  26  27
ATOM     27  C   UNL     1       2.858  -4.492  -0.662  0.00  0.00    +0.016 C 
BRANCH  27  28
ATOM     28  C   UNL     1       3.099  -5.979  -0.649  0.00  0.00    -0.049 A 
ATOM     29  C   UNL     1       2.683  -6.737   0.429  0.00  0.00    +0.003 A 
ATOM     30  C   UNL     1       2.899  -8.103   0.439  0.00  0.00    +0.000 A 
ATOM     31  C   UNL     1       3.542  -8.708  -0.624  0.00  0.00    +0.000 A 
ATOM     32  C   UNL     1       3.964  -7.949  -1.700  0.00  0.00    +0.000 A 
ATOM     33  C   UNL     1       3.743  -6.585  -1.712  0.00  0.00    +0.003 A 
ENDBRANCH  27  28
ENDBRANCH  26  27
ENDBRANCH  24  26
BRANCH  24  34
ATOM     34  C   UNL     1       1.119  -2.229   0.037  0.00  0.00    -0.042 C 
BRANCH  34  35
ATOM     35  C   UNL     1      -0.021  -2.938   0.722  0.00  0.00    -0.064 A 
ATOM     36  C   UNL     1       0.215  -4.098   1.435  0.00  0.00    +0.004 A 
ATOM     37  C   UNL     1      -0.830  -4.748   2.063  0.00  0.00    +0.038 A 
ATOM     38  C   UNL     1      -2.114  -4.238   1.977  0.00  0.00    +0.123 A 
ATOM     39  C   UNL     1      -2.350  -3.076   1.262  0.00  0.00    +0.038 A 
ATOM     40  C   UNL     1      -1.303  -2.427   0.635  0.00  0.00    +0.004 A 
ATOM     41  F   UNL     1      -3.137  -4.873   2.591  0.00  0.00    -0.205 F 
ENDBRANCH  34  35
ENDBRANCH  24  34
ENDBRANCH   1  24
TORSDOF 11
