REMARK  Name = ZINC02152692
REMARK  8 active torsions:
REMARK  status: ('A' for Active; 'I' for Inactive)
REMARK    1  A    between atoms: C_1  and  C_2
REMARK    2  A    between atoms: C_2  and  C_3
REMARK    3  A    between atoms: C_2  and  C_4
REMARK    4  A    between atoms: C_2  and  C_5
REMARK    5  A    between atoms: C_13  and  N_33
REMARK    6  A    between atoms: C_14  and  C_18
REMARK    7  A    between atoms: N_20  and  C_21
REMARK    8  A    between atoms: N_20  and  C_27
REMARK                            x       y       z     vdW  Elec       q    Type
REMARK                         _______ _______ _______ _____ _____    ______ ____
ROOT
ATOM      1  C   UNL     1      -1.621  -1.559   3.019  0.00  0.00    -0.001 C 
ATOM      2  C   UNL     1      -1.971  -3.031   3.268  0.00  0.00    +0.010 C 
ATOM      3  C   UNL     1      -3.413  -3.264   2.824  0.00  0.00    +0.056 C 
ATOM      4  C   UNL     1      -4.330  -2.240   3.442  0.00  0.00    +0.046 A 
ATOM      5  C   UNL     1      -3.864  -1.058   3.986  0.00  0.00    -0.025 A 
ATOM      6  C   UNL     1      -4.752  -0.152   4.534  0.00  0.00    +0.017 A 
ATOM      7  C   UNL     1      -6.136  -0.444   4.535  0.00  0.00    +0.029 A 
ATOM      8  C   UNL     1      -7.237   0.355   5.052  0.00  0.00    +0.053 A 
ATOM      9  C   UNL     1      -8.516  -0.144   4.940  0.00  0.00    +0.098 A 
ATOM     10  S   UNL     1      -8.277  -1.713   4.130  0.00  0.00    -0.062 S 
ATOM     11  C   UNL     1      -6.510  -1.678   3.958  0.00  0.00    +0.111 A 
ATOM     12  N   UNL     1      -5.629  -2.507   3.448  0.00  0.00    -0.244 NA
ATOM     13  C   UNL     1      -2.400  -0.704   4.015  0.00  0.00    +0.041 C 
ENDROOT
BRANCH   1  15
ATOM     14  C   UNL     1       0.657  -2.225   2.237  0.00  0.00    +0.011 C 
ATOM     15  C   UNL     1      -0.119  -1.346   3.220  0.00  0.00    -0.035 C 
ATOM     16  C   UNL     1       0.262  -1.723   4.653  0.00  0.00    +0.011 C 
ATOM     17  C   UNL     1       0.225   0.124   2.970  0.00  0.00    +0.011 C 
ENDBRANCH   1  15
BRANCH   9  18
ATOM     18  C   UNL     1      -9.730   0.448   5.367  0.00  0.00    +0.264 C 
ATOM     19  O   UNL     1      -9.713   1.504   5.973  0.00  0.00    -0.269 OA
ATOM     20  N   UNL     1     -10.905  -0.158   5.101  0.00  0.00    -0.236 N 
BRANCH  20  21
ATOM     21  C   UNL     1     -10.921  -1.409   4.476  0.00  0.00    +0.042 A 
ATOM     22  C   UNL     1     -10.672  -1.511   3.114  0.00  0.00    +0.024 A 
ATOM     23  C   UNL     1     -10.685  -2.748   2.501  0.00  0.00    +0.002 A 
ATOM     24  C   UNL     1     -10.955  -3.885   3.241  0.00  0.00    +0.000 A 
ATOM     25  C   UNL     1     -11.208  -3.787   4.597  0.00  0.00    +0.002 A 
ATOM     26  C   UNL     1     -11.192  -2.553   5.216  0.00  0.00    +0.024 A 
ENDBRANCH  20  21
BRANCH  20  27
ATOM     27  C   UNL     1     -12.108   0.466   5.450  0.00  0.00    +0.042 A 
ATOM     28  C   UNL     1     -13.298   0.064   4.857  0.00  0.00    +0.024 A 
ATOM     29  C   UNL     1     -14.484   0.679   5.207  0.00  0.00    +0.002 A 
ATOM     30  C   UNL     1     -14.487   1.700   6.139  0.00  0.00    +0.000 A 
ATOM     31  C   UNL     1     -13.303   2.106   6.728  0.00  0.00    +0.002 A 
ATOM     32  C   UNL     1     -12.114   1.492   6.386  0.00  0.00    +0.024 A 
ENDBRANCH  20  27
ENDBRANCH   9  18
BRANCH   8  33
ATOM     33  N   UNL     1      -7.004   1.589   5.644  0.00  0.00    -0.356 N 
ATOM     34  H   UNL     1      -6.098   1.929   5.717  0.00  0.00    +0.142 HD
ATOM     35  H   UNL     1      -7.747   2.111   5.985  0.00  0.00    +0.142 HD
ENDBRANCH   8  33
TORSDOF 5
