REMARK  Name = ZINC21257914
REMARK  7 active torsions:
REMARK  status: ('A' for Active; 'I' for Inactive)
REMARK    1  A    between atoms: C_1  and  C_2
REMARK    2  A    between atoms: C_2  and  C_3
REMARK    3  A    between atoms: C_3  and  C_5
REMARK    4  A    between atoms: C_3  and  O_6
REMARK    5  A    between atoms: O_6  and  C_7
REMARK    6  A    between atoms: C_10  and  C_13
REMARK    7  A    between atoms: C_18  and  C_23
REMARK                            x       y       z     vdW  Elec       q    Type
REMARK                         _______ _______ _______ _____ _____    ______ ____
ROOT
ATOM      1  C   UNL     1       2.468   3.908  -0.003  0.00  0.00    +0.136 C 
ATOM      2  C   UNL     1       2.712   4.451   1.383  0.00  0.00    +0.036 C 
ATOM      3  C   UNL     1       2.651   5.745   1.746  0.00  0.00    +0.017 C 
ATOM      4  C   UNL     1       2.933   6.158   3.180  0.00  0.00    +0.059 C 
ATOM      5  C   UNL     1       2.494   5.053   4.139  0.00  0.00    +0.032 C 
ATOM      6  C   UNL     1       3.280   3.786   3.782  0.00  0.00    +0.088 C 
ATOM      7  C   UNL     1       3.027   3.458   2.341  0.00  0.00    +0.163 C 
ATOM      8  O   UNL     1       3.093   2.299   1.983  0.00  0.00    -0.292 OA
ATOM      9  N   UNL     1       2.361   6.769   0.904  0.00  0.00    -0.316 N 
ATOM     10  C   UNL     1       1.317   6.776  -0.013  0.00  0.00    +0.052 A 
ATOM     11  C   UNL     1       0.250   7.652   0.086  0.00  0.00    +0.025 A 
ATOM     12  C   UNL     1      -0.733   7.637  -0.890  0.00  0.00    +0.002 A 
ATOM     13  C   UNL     1      -0.646   6.757  -1.953  0.00  0.00    +0.002 A 
ATOM     14  C   UNL     1       0.410   5.867  -2.043  0.00  0.00    +0.025 A 
ATOM     15  C   UNL     1       1.383   5.865  -1.056  0.00  0.00    +0.049 A 
ATOM     16  N   UNL     1       2.402   4.914  -1.042  0.00  0.00    -0.331 N 
ATOM     17  H   UNL     1       2.976   7.681   0.916  0.00  0.00    +0.152 HD
ATOM     18  H   UNL     1       3.164   4.936  -1.835  0.00  0.00    +0.147 HD
ENDROOT
BRANCH   1  22
ATOM     19  C   UNL     1      -1.220   1.748   0.017  0.00  0.00    +0.121 A 
ATOM     20  C   UNL     1      -0.028   1.086  -0.242  0.00  0.00    +0.046 A 
ATOM     21  C   UNL     1       1.162   1.787  -0.250  0.00  0.00    +0.009 A 
ATOM     22  C   UNL     1       1.168   3.146   0.005  0.00  0.00    -0.023 A 
ATOM     23  C   UNL     1      -0.018   3.807   0.268  0.00  0.00    +0.009 A 
ATOM     24  C   UNL     1      -1.211   3.111   0.277  0.00  0.00    +0.046 A 
BRANCH  19  25
ATOM     25  O   UNL     1      -2.393   1.062   0.020  0.00  0.00    -0.489 OA
BRANCH  25  26
ATOM     26  C   UNL     1      -2.314  -0.358  -0.129  0.00  0.00    +0.170 C 
ATOM     27  C   UNL     1      -2.252  -0.712  -1.616  0.00  0.00    +0.052 C 
BRANCH  26  29
ATOM     28  C   UNL     1      -3.547  -0.755   2.007  0.00  0.00    +0.007 C 
ATOM     29  C   UNL     1      -3.551  -1.005   0.498  0.00  0.00    +0.041 C 
ENDBRANCH  26  29
ENDBRANCH  25  26
ENDBRANCH  19  25
ENDBRANCH   1  22
BRANCH   5  30
ATOM     30  C   UNL     1       2.796   5.459   5.559  0.00  0.00    -0.044 A 
ATOM     31  C   UNL     1       4.098   5.721   5.941  0.00  0.00    +0.004 A 
ATOM     32  C   UNL     1       4.375   6.097   7.242  0.00  0.00    +0.000 A 
ATOM     33  C   UNL     1       3.350   6.203   8.163  0.00  0.00    +0.000 A 
ATOM     34  C   UNL     1       2.048   5.936   7.783  0.00  0.00    +0.000 A 
ATOM     35  C   UNL     1       1.771   5.564   6.480  0.00  0.00    +0.004 A 
ENDBRANCH   5  30
TORSDOF 5
