REMARK  Name = ZINC09726924
REMARK  3 active torsions:
REMARK  status: ('A' for Active; 'I' for Inactive)
REMARK    1  A    between atoms: C_7  and  C_11
REMARK    2  A    between atoms: C_17  and  C_19
REMARK    3  A    between atoms: C_19  and  C_20
REMARK                            x       y       z     vdW  Elec       q    Type
REMARK                         _______ _______ _______ _____ _____    ______ ____
ROOT
ATOM      1  C   UNL     1      -1.737   4.200   0.041  0.00  0.00    +0.082 A 
ATOM      2  C   UNL     1      -3.091   4.012   0.048  0.00  0.00    +0.077 A 
ATOM      3  S   UNL     1      -3.662   5.704   0.066  0.00  0.00    -0.060 S 
ATOM      4  C   UNL     1      -2.105   6.473   0.055  0.00  0.00    +0.165 A 
ATOM      5  N   UNL     1      -1.282   5.445   0.042  0.00  0.00    -0.225 NA
ATOM      6  N   UNL     1      -1.804   7.829   0.058  0.00  0.00    -0.264 N 
ATOM      7  C   UNL     1      -2.798   8.740   0.072  0.00  0.00    +0.225 C 
ATOM      8  O   UNL     1      -3.954   8.376   0.081  0.00  0.00    -0.275 OA
ATOM      9  H   UNL     1      -0.879   8.121   0.051  0.00  0.00    +0.157 HD
ENDROOT
BRANCH   1  16
ATOM     10  C   UNL     1       2.929   3.865  -0.006  0.00  0.00    +0.001 A 
ATOM     11  C   UNL     1       3.373   2.549  -0.017  0.00  0.00    +0.002 A 
ATOM     12  C   UNL     1       2.474   1.506  -0.013  0.00  0.00    +0.026 A 
ATOM     13  C   UNL     1       1.107   1.770   0.001  0.00  0.00    +0.047 A 
ATOM     14  C   UNL     1       0.665   3.104   0.012  0.00  0.00    +0.009 A 
ATOM     15  C   UNL     1       1.592   4.146   0.008  0.00  0.00    +0.010 A 
ATOM     16  C   UNL     1      -0.805   3.046   0.026  0.00  0.00    +0.026 A 
ATOM     17  C   UNL     1      -1.143   1.734   0.016  0.00  0.00    +0.093 A 
ATOM     18  N   UNL     1      -0.011   0.966   0.007  0.00  0.00    -0.360 N 
ATOM     19  H   UNL     1       0.002  -0.004   0.002  0.00  0.00    +0.165 HD
ENDBRANCH   1  16
BRANCH   7  20
ATOM     20  C   UNL     1      -2.471  10.211   0.075  0.00  0.00    +0.155 C 
BRANCH  20  21
ATOM     21  C   UNL     1      -3.749  11.009   0.091  0.00  0.00    +0.100 A 
ATOM     22  C   UNL     1      -4.474  11.464   1.282  0.00  0.00    +0.045 A 
ATOM     23  C   UNL     1      -4.256  11.329   2.655  0.00  0.00    +0.013 A 
ATOM     24  C   UNL     1      -5.138  11.881   3.539  0.00  0.00    +0.001 A 
ATOM     25  C   UNL     1      -6.250  12.576   3.085  0.00  0.00    +0.004 A 
ATOM     26  C   UNL     1      -6.484  12.720   1.734  0.00  0.00    +0.049 A 
ATOM     27  C   UNL     1      -5.598  12.166   0.818  0.00  0.00    +0.168 A 
ATOM     28  O   UNL     1      -5.556  12.138  -0.530  0.00  0.00    -0.354 OA
ATOM     29  N   UNL     1      -4.408  11.426  -0.947  0.00  0.00    -0.082 NA
ENDBRANCH  20  21
ENDBRANCH   7  20
TORSDOF 3
