REMARK  Name = ZINC63175999
REMARK  4 active torsions:
REMARK  status: ('A' for Active; 'I' for Inactive)
REMARK    1  A    between atoms: C_2  and  S_8
REMARK    2  A    between atoms: S_8  and  N_11
REMARK    3  A    between atoms: N_11  and  C_12
REMARK    4  A    between atoms: C_17  and  N_19
REMARK                            x       y       z     vdW  Elec       q    Type
REMARK                         _______ _______ _______ _____ _____    ______ ____
ROOT
ATOM      1  N   UNL     1       1.769   4.275   1.494  0.00  0.00    -0.188 NA
ATOM      2  H   UNL     1       1.141   4.582   2.166  0.00  0.00    +0.148 HD
ENDROOT
BRANCH   1   3
ATOM      3  C   UNL     1       3.173   4.057   1.850  0.00  0.00    +0.062 C 
ATOM      4  C   UNL     1       3.344   2.721   2.616  0.00  0.00    +0.019 C 
ATOM      5  C   UNL     1       4.644   2.912   3.424  0.00  0.00    -0.000 C 
ATOM      6  C   UNL     1       4.837   4.429   3.595  0.00  0.00    -0.015 C 
ATOM      7  C   UNL     1       3.648   5.110   2.882  0.00  0.00    -0.056 C 
BRANCH   7   8
ATOM      8  N   UNL     1       4.086   6.336   2.201  0.00  0.00    +0.381 N 
ATOM      9  H   UNL     1       3.317   6.719   1.671  0.00  0.00    -0.090 HD
ATOM     10  H   UNL     1       4.391   7.011   2.886  0.00  0.00    -0.090 HD
ATOM     11  H   UNL     1       4.850   6.120   1.578  0.00  0.00    -0.090 HD
ENDBRANCH   7   8
ENDBRANCH   1   3
BRANCH   1  12
ATOM     12  S   UNL     1       1.255   3.997  -0.055  0.00  0.00    +0.061 S 
ATOM     13  O   UNL     1       2.155   4.688  -0.912  0.00  0.00    -0.153 OA
ATOM     14  O   UNL     1      -0.145   4.238  -0.068  0.00  0.00    -0.153 OA
BRANCH  12  16
ATOM     15  C   UNL     1       2.379   1.852  -1.331  0.00  0.00    +0.057 A 
ATOM     16  C   UNL     1       1.474   2.279  -0.376  0.00  0.00    +0.132 A 
ATOM     17  C   UNL     1       0.756   1.354   0.309  0.00  0.00    +0.106 A 
ATOM     18  S   UNL     1       1.357  -0.174  -0.393  0.00  0.00    -0.063 S 
ATOM     19  C   UNL     1       2.523   0.522  -1.552  0.00  0.00    +0.081 A 
ATOM     20 CL   UNL     1       3.568  -0.293  -2.673  0.00  0.00    -0.076 Cl
ATOM     21 CL   UNL     1      -0.436   1.593   1.548  0.00  0.00    -0.074 Cl
ENDBRANCH  12  16
ENDBRANCH   1  12
TORSDOF 4
