REMARK  Name = ZINC09421876
REMARK  5 active torsions:
REMARK  status: ('A' for Active; 'I' for Inactive)
REMARK    1  A    between atoms: C_1  and  S_2
REMARK    2  A    between atoms: S_2  and  C_3
REMARK    3  A    between atoms: C_6  and  C_9
REMARK    4  A    between atoms: N_20  and  C_21
REMARK    5  A    between atoms: C_24  and  O_27
REMARK                            x       y       z     vdW  Elec       q    Type
REMARK                         _______ _______ _______ _____ _____    ______ ____
ROOT
ATOM      1  C   UNL     1      -2.620   0.861   0.031  0.00  0.00    +0.198 C 
ATOM      2  N   UNL     1      -2.449  -0.381  -0.730  0.00  0.00    -0.321 N 
ATOM      3  C   UNL     1      -2.286  -0.304  -2.109  0.00  0.00    +0.041 A 
ATOM      4  C   UNL     1      -1.576  -1.260  -2.815  0.00  0.00    +0.024 A 
ATOM      5  C   UNL     1      -1.465  -1.155  -4.188  0.00  0.00    +0.002 A 
ATOM      6  C   UNL     1      -2.062  -0.103  -4.864  0.00  0.00    +0.001 A 
ATOM      7  C   UNL     1      -2.769   0.861  -4.176  0.00  0.00    +0.015 A 
ATOM      8  C   UNL     1      -2.877   0.775  -2.790  0.00  0.00    +0.058 A 
ATOM      9  C   UNL     1      -3.617   1.781  -2.008  0.00  0.00    +0.254 C 
ATOM     10  O   UNL     1      -4.286   2.626  -2.572  0.00  0.00    -0.270 OA
ATOM     11  N   UNL     1      -3.546   1.757  -0.662  0.00  0.00    -0.244 N 
ATOM     12  H   UNL     1      -2.449  -1.241  -0.280  0.00  0.00    +0.148 HD
ENDROOT
BRANCH   1  16
ATOM     13  C   UNL     1       1.169   2.795   0.449  0.00  0.00    +0.008 A 
ATOM     14  C   UNL     1       1.101   1.411   0.339  0.00  0.00    +0.015 A 
ATOM     15  C   UNL     1      -0.125   0.790   0.208  0.00  0.00    +0.008 A 
ATOM     16  C   UNL     1      -1.284   1.543   0.181  0.00  0.00    -0.009 A 
ATOM     17  C   UNL     1      -1.222   2.920   0.296  0.00  0.00    +0.008 A 
ATOM     18  C   UNL     1       0.001   3.548   0.427  0.00  0.00    +0.015 A 
BRANCH  13  20
ATOM     19  C   UNL     1       2.315   5.355   0.723  0.00  0.00    +0.090 C 
ATOM     20  S   UNL     1       2.731   3.593   0.616  0.00  0.00    -0.129 S 
ENDBRANCH  13  20
ENDBRANCH   1  16
BRANCH  11  21
ATOM     21  C   UNL     1      -4.373   2.604   0.086  0.00  0.00    +0.039 A 
ATOM     22  C   UNL     1      -5.254   2.070   1.017  0.00  0.00    +0.027 A 
ATOM     23  C   UNL     1      -6.065   2.907   1.759  0.00  0.00    +0.047 A 
ATOM     24  C   UNL     1      -6.008   4.279   1.565  0.00  0.00    +0.117 A 
ATOM     25  C   UNL     1      -5.133   4.813   0.630  0.00  0.00    +0.047 A 
ATOM     26  C   UNL     1      -4.317   3.978  -0.108  0.00  0.00    +0.027 A 
BRANCH  24  27
ATOM     27  O   UNL     1      -6.812   5.102   2.291  0.00  0.00    -0.507 OA
ATOM     28  H   UNL     1      -7.669   5.277   1.880  0.00  0.00    +0.292 HD
ENDBRANCH  24  27
ENDBRANCH  11  21
TORSDOF 4
