REMARK  Name = ZINC23609184
REMARK  4 active torsions:
REMARK  status: ('A' for Active; 'I' for Inactive)
REMARK    1  A    between atoms: C_1  and  C_2
REMARK    2  A    between atoms: C_2  and  C_4
REMARK    3  A    between atoms: C_7  and  C_9
REMARK    4  A    between atoms: N_18  and  C_21
REMARK                            x       y       z     vdW  Elec       q    Type
REMARK                         _______ _______ _______ _____ _____    ______ ____
ROOT
ATOM      1  C   UNL     1      -5.230  -1.966   0.037  0.00  0.00    +0.256 C 
ATOM      2  O   UNL     1      -5.638  -3.112   0.038  0.00  0.00    -0.269 OA
ATOM      3  N   UNL     1      -6.103  -0.940   0.044  0.00  0.00    -0.260 N 
ATOM      4  C   UNL     1      -7.468  -1.189   0.053  0.00  0.00    +0.165 A 
ATOM      5  N   UNL     1      -8.458  -0.322   0.056  0.00  0.00    -0.229 NA
ATOM      6  C   UNL     1      -9.728  -0.709   0.064  0.00  0.00    +0.056 A 
ATOM      7  C   UNL     1      -9.917  -2.056   0.071  0.00  0.00    +0.028 A 
ATOM      8  S   UNL     1      -8.261  -2.677   0.056  0.00  0.00    -0.055 S 
ATOM      9  C   UNL     1     -11.220  -2.778   0.085  0.00  0.00    +0.128 C 
ATOM     10  N   UNL     1     -12.277  -1.809   0.442  0.00  0.00    -0.300 NA
ATOM     11  C   UNL     1     -12.160  -0.589  -0.368  0.00  0.00    +0.090 C 
ATOM     12  C   UNL     1     -10.934   0.221   0.064  0.00  0.00    +0.071 C 
ATOM     13  C   UNL     1     -13.610  -2.409   0.301  0.00  0.00    +0.105 C 
ATOM     14  H   UNL     1      -5.777  -0.026   0.043  0.00  0.00    +0.157 HD
ENDROOT
BRANCH   1  18
ATOM     15  C   UNL     1      -1.254  -0.752   0.010  0.00  0.00    +0.055 A 
ATOM     16  C   UNL     1      -1.452  -2.130   0.010  0.00  0.00    +0.020 A 
ATOM     17  C   UNL     1      -2.730  -2.608   0.019  0.00  0.00    +0.021 A 
ATOM     18  C   UNL     1      -3.782  -1.702   0.027  0.00  0.00    +0.075 A 
ATOM     19  S   UNL     1      -2.929  -0.133   0.030  0.00  0.00    -0.081 S 
BRANCH  15  21
ATOM     20  C   UNL     1      -0.018   1.503   0.010  0.00  0.00    +0.092 C 
ATOM     21  C   UNL     1       0.002  -0.004   0.002  0.00  0.00    +0.167 C 
ATOM     22  O   UNL     1       1.061  -0.597  -0.011  0.00  0.00    -0.292 OA
ENDBRANCH  15  21
ENDBRANCH   1  18
TORSDOF 2
