REMARK  Name = ZINC08837298
REMARK  16 active torsions:
REMARK  status: ('A' for Active; 'I' for Inactive)
REMARK    1  A    between atoms: C_1  and  C_2
REMARK    2  A    between atoms: C_2  and  N_67
REMARK    3  A    between atoms: C_3  and  C_4
REMARK    4  A    between atoms: C_3  and  N_67
REMARK    5  A    between atoms: C_5  and  C_6
REMARK    6  A    between atoms: C_5  and  N_67
REMARK    7  A    between atoms: C_6  and  C_7
REMARK    8  A    between atoms: C_7  and  N_8
REMARK    9  A    between atoms: C_9  and  C_30
REMARK   10  A    between atoms: C_12  and  C_13
REMARK   11  A    between atoms: C_12  and  O_25
REMARK   12  A    between atoms: C_14  and  C_24
REMARK   13  A    between atoms: C_15  and  C_20
REMARK   14  A    between atoms: C_18  and  C_19
REMARK   15  A    between atoms: C_20  and  O_22
REMARK   16  A    between atoms: O_22  and  C_23
REMARK                            x       y       z     vdW  Elec       q    Type
REMARK                         _______ _______ _______ _____ _____    ______ ____
ROOT
ATOM      1  N   UNL     1       1.090   3.712  -0.894  0.00  0.00    -0.284 N 
ATOM      2  C   UNL     1      -0.311   3.394  -0.602  0.00  0.00    +0.147 C 
ATOM      3  C   UNL     1      -0.554   3.792   0.835  0.00  0.00    +0.071 C 
ATOM      4  C   UNL     1      -1.738   3.674   1.541  0.00  0.00    +0.135 C 
ATOM      5  C   UNL     1       0.661   4.304   1.309  0.00  0.00    +0.249 C 
ATOM      6  O   UNL     1       0.866   4.731   2.431  0.00  0.00    -0.282 OA
ATOM      7  C   UNL     1       1.656   4.237   0.205  0.00  0.00    +0.288 C 
ATOM      8  O   UNL     1       2.810   4.604   0.286  0.00  0.00    -0.266 OA
ENDROOT
BRANCH   4   9
ATOM      9  C   UNL     1      -1.804   4.111   2.943  0.00  0.00    +0.041 A 
ATOM     10  C   UNL     1      -2.504   5.235   3.441  0.00  0.00    -0.008 A 
ATOM     11  C   UNL     1      -2.297   5.268   4.789  0.00  0.00    +0.128 A 
ATOM     12  N   UNL     1      -1.494   4.201   5.131  0.00  0.00    -0.352 N 
ATOM     13  H   UNL     1      -1.194   3.990   6.029  0.00  0.00    +0.166 HD
ATOM     14  C   UNL     1      -1.198   3.497   4.027  0.00  0.00    +0.024 A 
ATOM     15  C   UNL     1      -0.348   2.254   3.976  0.00  0.00    +0.064 C 
ATOM     16  C   UNL     1      -3.322   6.211   2.635  0.00  0.00    +0.047 C 
BRANCH  11  17
ATOM     17  C   UNL     1      -2.837   6.268   5.715  0.00  0.00    +0.356 C 
ATOM     18  O   UNL     1      -3.537   7.170   5.296  0.00  0.00    -0.243 OA
BRANCH  17  19
ATOM     19  O   UNL     1      -2.558   6.188   7.032  0.00  0.00    -0.463 OA
ATOM     20  C   UNL     1      -3.126   7.212   7.890  0.00  0.00    +0.280 C 
ENDBRANCH  17  19
ENDBRANCH  11  17
ENDBRANCH   4   9
BRANCH   2  21
ATOM     21  C   UNL     1      -0.553   1.917  -0.777  0.00  0.00    +0.013 A 
ATOM     22  C   UNL     1       0.494   1.025  -0.649  0.00  0.00    +0.008 A 
ATOM     23  C   UNL     1       0.273  -0.330  -0.810  0.00  0.00    +0.001 A 
ATOM     24  C   UNL     1      -0.997  -0.794  -1.100  0.00  0.00    +0.003 A 
ATOM     25  C   UNL     1      -2.046   0.096  -1.229  0.00  0.00    +0.039 A 
ATOM     26  C   UNL     1      -1.825   1.454  -1.068  0.00  0.00    +0.129 A 
ATOM     27  F   UNL     1      -2.849   2.325  -1.200  0.00  0.00    -0.205 F 
ENDBRANCH   2  21
BRANCH   4  28
ATOM     28  O   UNL     1      -2.832   3.157   0.943  0.00  0.00    -0.506 OA
ATOM     29  H   UNL     1      -3.592   3.145   1.592  0.00  0.00    +0.292 HD
ENDBRANCH   4  28
BRANCH   1  30
ATOM     30  C   UNL     1       1.763   3.492  -2.177  0.00  0.00    +0.107 C 
BRANCH  30  31
ATOM     31  C   UNL     1       1.609   4.736  -3.054  0.00  0.00    +0.000 C 
BRANCH  31  32
ATOM     32  C   UNL     1       2.312   4.506  -4.393  0.00  0.00    -0.077 C 
BRANCH  32  33
ATOM     33  N   UNL     1       2.136   5.708  -5.236  0.00  0.00    +0.379 N 
ATOM     34  H   UNL     1       1.138   5.946  -5.273  0.00  0.00    -0.082 HD
BRANCH  33  36
ATOM     35  C   UNL     1       4.372   6.519  -4.561  0.00  0.00    -0.017 C 
ATOM     36  C   UNL     1       2.880   6.846  -4.656  0.00  0.00    -0.082 C 
ENDBRANCH  33  36
BRANCH  33  37
ATOM     37  C   UNL     1       2.616   5.437  -6.607  0.00  0.00    -0.082 C 
ATOM     38  C   UNL     1       2.099   6.537  -7.536  0.00  0.00    -0.017 C 
ENDBRANCH  33  37
ENDBRANCH  32  33
ENDBRANCH  31  32
ENDBRANCH  30  31
ENDBRANCH   1  30
TORSDOF 11
