REMARK  Name = ZINC40581276
REMARK  9 active torsions:
REMARK  status: ('A' for Active; 'I' for Inactive)
REMARK    1  A    between atoms: C_1  and  C_2
REMARK    2  A    between atoms: C_2  and  C_3
REMARK    3  A    between atoms: C_3  and  C_4
REMARK    4  A    between atoms: C_4  and  C_5
REMARK    5  A    between atoms: C_8  and  N_11
REMARK    6  A    between atoms: C_13  and  N_29
REMARK    7  A    between atoms: C_14  and  N_18
REMARK    8  A    between atoms: N_18  and  N_19
REMARK    9  A    between atoms: C_20  and  C_22
REMARK                            x       y       z     vdW  Elec       q    Type
REMARK                         _______ _______ _______ _____ _____    ______ ____
ROOT
ATOM      1  N   UNL     1      -6.734  -4.026   0.045  0.00  0.00    -0.297 N 
ATOM      2  C   UNL     1      -7.431  -4.166  -1.147  0.00  0.00    +0.159 A 
ATOM      3  C   UNL     1      -8.771  -4.542  -1.141  0.00  0.00    +0.207 A 
ATOM      4  C   UNL     1      -9.425  -4.669  -2.363  0.00  0.00    +0.171 A 
ATOM      5  N   UNL     1      -8.749  -4.427  -3.485  0.00  0.00    -0.217 NA
ATOM      6  C   UNL     1      -7.481  -4.074  -3.449  0.00  0.00    +0.225 A 
ATOM      7  N   UNL     1      -6.828  -3.938  -2.312  0.00  0.00    -0.218 NA
ATOM      8  H   UNL     1      -7.200  -4.107   0.891  0.00  0.00    +0.154 HD
ENDROOT
BRANCH   1  12
ATOM      9  C   UNL     1      -2.641  -3.256  -0.013  0.00  0.00    -0.047 A 
ATOM     10  C   UNL     1      -3.436  -2.690   0.967  0.00  0.00    +0.005 A 
ATOM     11  C   UNL     1      -4.793  -2.943   0.989  0.00  0.00    +0.023 A 
ATOM     12  C   UNL     1      -5.360  -3.767   0.025  0.00  0.00    +0.032 A 
ATOM     13  C   UNL     1      -4.559  -4.334  -0.958  0.00  0.00    +0.023 A 
ATOM     14  C   UNL     1      -3.203  -4.072  -0.977  0.00  0.00    +0.005 A 
BRANCH   9  15
ATOM     15  C   UNL     1      -1.161  -2.977  -0.035  0.00  0.00    +0.035 C 
BRANCH  15  16
ATOM     16  C   UNL     1      -0.888  -1.733  -0.883  0.00  0.00    +0.004 C 
BRANCH  16  18
ATOM     17  C   UNL     1       0.888  -0.205  -1.752  0.00  0.00    +0.004 C 
ATOM     18  C   UNL     1       0.615  -1.450  -0.904  0.00  0.00    -0.003 C 
ENDBRANCH  16  18
ENDBRANCH  15  16
ENDBRANCH   9  15
ENDBRANCH   1  12
BRANCH   3  19
ATOM     19  N   UNL     1      -9.481  -4.801   0.131  0.00  0.00    +0.063 N 
ATOM     20  O   UNL     1     -10.054  -3.900   0.698  0.00  0.00    -0.126 OA
ATOM     21  O   UNL     1      -9.489  -5.914   0.604  0.00  0.00    -0.126 OA
ENDBRANCH   3  19
BRANCH   4  22
ATOM     22  N   UNL     1     -10.759  -5.041  -2.411  0.00  0.00    -0.246 N 
ATOM     23  H   UNL     1     -11.244  -5.215  -1.589  0.00  0.00    +0.172 HD
BRANCH  22  24
ATOM     24  N   UNL     1     -11.408  -5.165  -3.646  0.00  0.00    -0.231 N 
ATOM     25  C   UNL     1     -12.705  -5.527  -3.693  0.00  0.00    +0.260 C 
ATOM     26  O   UNL     1     -13.312  -5.746  -2.663  0.00  0.00    -0.269 OA
ATOM     27  H   UNL     1     -10.923  -4.991  -4.468  0.00  0.00    +0.173 HD
BRANCH  25  28
ATOM     28  C   UNL     1     -13.389  -5.659  -4.997  0.00  0.00    +0.038 A 
ATOM     29  C   UNL     1     -12.693  -5.414  -6.181  0.00  0.00    +0.014 A 
ATOM     30  C   UNL     1     -13.336  -5.538  -7.395  0.00  0.00    +0.016 A 
ATOM     31  C   UNL     1     -14.671  -5.904  -7.439  0.00  0.00    +0.018 A 
ATOM     32  C   UNL     1     -15.367  -6.148  -6.267  0.00  0.00    +0.016 A 
ATOM     33  C   UNL     1     -14.733  -6.033  -5.048  0.00  0.00    +0.014 A 
ATOM     34 BR   UNL     1     -15.546  -6.072  -9.107  0.00  0.00    -0.050 Br
ENDBRANCH  25  28
ENDBRANCH  22  24
ENDBRANCH   4  22
TORSDOF 8
