REMARK  Name = ZINC39639046
REMARK  13 active torsions:
REMARK  status: ('A' for Active; 'I' for Inactive)
REMARK    1  A    between atoms: C_1  and  C_2
REMARK    2  A    between atoms: C_2  and  C_3
REMARK    3  A    between atoms: C_3  and  C_4
REMARK    4  A    between atoms: C_4  and  C_5
REMARK    5  A    between atoms: C_9  and  C_18
REMARK    6  A    between atoms: N_20  and  C_21
REMARK    7  A    between atoms: C_21  and  C_22
REMARK    8  A    between atoms: C_23  and  O_32
REMARK    9  A    between atoms: C_25  and  O_30
REMARK   10  A    between atoms: C_27  and  O_28
REMARK   11  A    between atoms: O_28  and  C_29
REMARK   12  A    between atoms: O_30  and  C_31
REMARK   13  A    between atoms: O_32  and  C_33
REMARK                            x       y       z     vdW  Elec       q    Type
REMARK                         _______ _______ _______ _____ _____    ______ ____
ROOT
ATOM      1  C   UNL     1       1.246  -2.576   2.258  0.00  0.00    +0.216 C 
ATOM      2  O   UNL     1       1.638  -1.715   3.016  0.00  0.00    -0.276 OA
ATOM      3  N   UNL     1       1.477  -3.875   2.535  0.00  0.00    -0.300 N 
ATOM      4  C   UNL     1       1.086  -5.059   1.735  0.00  0.00    +0.121 C 
ATOM      5  C   UNL     1       2.293  -6.018   1.840  0.00  0.00    +0.100 C 
ATOM      6  C   UNL     1       3.007  -5.609   3.139  0.00  0.00    -0.004 C 
ATOM      7  C   UNL     1       2.188  -4.441   3.707  0.00  0.00    +0.115 C 
ATOM      8  C   UNL     1       4.430  -5.149   2.838  0.00  0.00    -0.010 C 
ATOM      9  C   UNL     1       5.138  -4.802   4.151  0.00  0.00    -0.082 C 
ATOM     10  N   UNL     1       5.157  -5.982   5.025  0.00  0.00    +0.379 N 
ATOM     11  C   UNL     1       3.786  -6.361   5.385  0.00  0.00    -0.082 C 
ATOM     12  C   UNL     1       3.021  -6.774   4.124  0.00  0.00    -0.010 C 
ATOM     13  H   UNL     1       5.602  -6.749   4.543  0.00  0.00    -0.086 HD
ATOM     14  H   UNL     1       5.677  -5.769   5.863  0.00  0.00    -0.086 HD
ENDROOT
BRANCH   5  15
ATOM     15  C   UNL     1       3.209  -5.840   0.657  0.00  0.00    +0.218 C 
ATOM     16  O   UNL     1       3.295  -4.760   0.113  0.00  0.00    -0.275 OA
ATOM     17  N   UNL     1       3.933  -6.883   0.203  0.00  0.00    -0.311 N 
ATOM     18  H   UNL     1       3.864  -7.747   0.638  0.00  0.00    +0.149 HD
BRANCH  17  19
ATOM     19  C   UNL     1       4.824  -6.710  -0.948  0.00  0.00    +0.147 C 
BRANCH  19  20
ATOM     20  C   UNL     1       5.512  -8.016  -1.250  0.00  0.00    +0.053 A 
ATOM     21  C   UNL     1       6.723  -8.318  -0.646  0.00  0.00    +0.132 A 
ATOM     22  C   UNL     1       7.356  -9.520  -0.924  0.00  0.00    +0.091 A 
ATOM     23  C   UNL     1       6.778 -10.420  -1.808  0.00  0.00    +0.127 A 
ATOM     24  C   UNL     1       5.567 -10.118  -2.412  0.00  0.00    +0.091 A 
ATOM     25  C   UNL     1       4.931  -8.918  -2.129  0.00  0.00    +0.132 A 
BRANCH  25  26
ATOM     26  O   UNL     1       3.742  -8.624  -2.718  0.00  0.00    -0.495 OA
ATOM     27  C   UNL     1       3.202  -9.599  -3.612  0.00  0.00    +0.277 C 
ENDBRANCH  25  26
BRANCH  23  28
ATOM     28  O   UNL     1       7.399 -11.597  -2.081  0.00  0.00    -0.495 OA
ATOM     29  C   UNL     1       6.747 -12.476  -3.000  0.00  0.00    +0.277 C 
ENDBRANCH  23  28
BRANCH  21  30
ATOM     30  O   UNL     1       7.289  -7.437   0.220  0.00  0.00    -0.495 OA
ATOM     31  C   UNL     1       8.536  -7.813   0.806  0.00  0.00    +0.277 C 
ENDBRANCH  21  30
ENDBRANCH  19  20
ENDBRANCH  17  19
ENDBRANCH   5  15
BRANCH   1  32
ATOM     32  C   UNL     1       0.499  -2.195   1.006  0.00  0.00    +0.096 C 
BRANCH  32  33
ATOM     33  C   UNL     1       0.372  -0.672   0.931  0.00  0.00    +0.009 C 
BRANCH  33  35
ATOM     34  C   UNL     1      -0.512   1.238  -0.415  0.00  0.00    +0.004 C 
ATOM     35  C   UNL     1      -0.386  -0.285  -0.340  0.00  0.00    -0.003 C 
ENDBRANCH  33  35
ENDBRANCH  32  33
ENDBRANCH   1  32
TORSDOF 9
