REMARK  Name = ZINC12791881
REMARK  9 active torsions:
REMARK  status: ('A' for Active; 'I' for Inactive)
REMARK    1  A    between atoms: C_4  and  O_22
REMARK    2  A    between atoms: C_5  and  C_7
REMARK    3  A    between atoms: N_9  and  C_10
REMARK    4  A    between atoms: C_10  and  C_11
REMARK    5  A    between atoms: C_11  and  C_12
REMARK    6  A    between atoms: C_15  and  S_18
REMARK    7  A    between atoms: S_18  and  N_21
REMARK    8  A    between atoms: O_22  and  C_23
REMARK    9  A    between atoms: C_23  and  C_24
REMARK                            x       y       z     vdW  Elec       q    Type
REMARK                         _______ _______ _______ _____ _____    ______ ____
ROOT
ATOM      1  C   UNL     1       6.510   5.949  -0.032  0.00  0.00    +0.248 C 
ATOM      2  O   UNL     1       5.794   4.966  -0.030  0.00  0.00    -0.270 OA
ATOM      3  N   UNL     1       7.851   5.806  -0.046  0.00  0.00    -0.311 N 
ATOM      4  H   UNL     1       8.422   6.590  -0.048  0.00  0.00    +0.149 HD
ENDROOT
BRANCH   1   9
ATOM      5  C   UNL     1       6.167   9.686  -0.010  0.00  0.00    +0.001 A 
ATOM      6  C   UNL     1       4.790   9.834   0.005  0.00  0.00    +0.004 A 
ATOM      7  C   UNL     1       3.969   8.724   0.002  0.00  0.00    +0.046 A 
ATOM      8  C   UNL     1       4.520   7.451  -0.004  0.00  0.00    +0.133 A 
ATOM      9  C   UNL     1       5.913   7.298  -0.019  0.00  0.00    +0.078 A 
ATOM     10  C   UNL     1       6.732   8.429  -0.022  0.00  0.00    +0.017 A 
BRANCH   8  11
ATOM     11  O   UNL     1       3.714   6.360  -0.002  0.00  0.00    -0.485 OA
BRANCH  11  12
ATOM     12  C   UNL     1       2.304   6.594   0.014  0.00  0.00    +0.286 C 
BRANCH  12  13
ATOM     13  C   UNL     1       1.576   5.274   0.014  0.00  0.00    +0.097 A 
ATOM     14  C   UNL     1       2.156   4.054   0.002  0.00  0.00    +0.119 A 
ATOM     15  N   UNL     1       1.148   3.128   0.007  0.00  0.00    -0.306 N 
ATOM     16  C   UNL     1       1.149   1.763   0.001  0.00  0.00    +0.092 A 
ATOM     17  C   UNL     1      -0.013   1.076   0.008  0.00  0.00    +0.018 A 
ATOM     18  C   UNL     1      -1.240   1.758   0.018  0.00  0.00    +0.005 A 
ATOM     19  C   UNL     1      -1.255   3.119   0.031  0.00  0.00    +0.047 A 
ATOM     20  C   UNL     1      -0.034   3.822   0.022  0.00  0.00    +0.138 A 
ATOM     21  N   UNL     1       0.250   5.117   0.026  0.00  0.00    -0.229 NA
ENDBRANCH  12  13
ENDBRANCH  11  12
ENDBRANCH   8  11
ENDBRANCH   1   9
BRANCH   3  22
ATOM     22  C   UNL     1       8.444   4.467  -0.060  0.00  0.00    +0.109 C 
BRANCH  22  23
ATOM     23  C   UNL     1       9.970   4.585  -0.074  0.00  0.00    +0.054 C 
BRANCH  23  24
ATOM     24  C   UNL     1      10.580   3.207  -0.088  0.00  0.00    -0.046 A 
ATOM     25  C   UNL     1      10.878   2.572   1.103  0.00  0.00    +0.005 A 
ATOM     26  C   UNL     1      11.434   1.306   1.091  0.00  0.00    +0.029 A 
ATOM     27  C   UNL     1      11.701   0.680  -0.112  0.00  0.00    +0.105 A 
ATOM     28  C   UNL     1      11.408   1.318  -1.303  0.00  0.00    +0.029 A 
ATOM     29  C   UNL     1      10.848   2.582  -1.291  0.00  0.00    +0.005 A 
BRANCH  27  30
ATOM     30  S   UNL     1      12.414  -0.931  -0.128  0.00  0.00    +0.056 S 
ATOM     31  O   UNL     1      12.088  -1.532   1.118  0.00  0.00    -0.153 OA
ATOM     32  O   UNL     1      12.061  -1.519  -1.373  0.00  0.00    -0.153 OA
BRANCH  30  33
ATOM     33  N   UNL     1      14.058  -0.739  -0.145  0.00  0.00    -0.204 NA
ATOM     34  H   UNL     1      14.629  -1.407   0.266  0.00  0.00    +0.144 HD
ATOM     35  H   UNL     1      14.451   0.042  -0.565  0.00  0.00    +0.144 HD
ENDBRANCH  30  33
ENDBRANCH  27  30
ENDBRANCH  23  24
ENDBRANCH  22  23
ENDBRANCH   3  22
TORSDOF 9
