REMARK  Name = ZINC00806519
REMARK  7 active torsions:
REMARK  status: ('A' for Active; 'I' for Inactive)
REMARK    1  A    between atoms: C_1  and  C_2
REMARK    2  A    between atoms: C_2  and  C_3
REMARK    3  A    between atoms: C_2  and  C_4
REMARK    4  A    between atoms: C_2  and  C_5
REMARK    5  A    between atoms: C_12  and  N_26
REMARK    6  A    between atoms: C_13  and  C_24
REMARK    7  A    between atoms: C_14  and  C_16
REMARK                            x       y       z     vdW  Elec       q    Type
REMARK                         _______ _______ _______ _____ _____    ______ ____
ROOT
ATOM      1  C   UNL     1       0.685  -0.808  -2.059  0.00  0.00    +0.076 A 
ATOM      2  C   UNL     1       0.906  -2.178  -2.087  0.00  0.00    +0.050 A 
ATOM      3  C   UNL     1       1.531  -2.482  -3.265  0.00  0.00    +0.222 A 
ATOM      4  N   UNL     1       1.692  -1.337  -3.946  0.00  0.00    -0.246 N 
ATOM      5  H   UNL     1       2.106  -1.244  -4.819  0.00  0.00    +0.192 HD
ATOM      6  N   UNL     1       1.149  -0.297  -3.175  0.00  0.00    -0.175 NA
ATOM      7  O   UNL     1       1.890  -3.747  -3.598  0.00  0.00    -0.423 OA
ATOM      8  C   UNL     1       1.866  -4.680  -2.624  0.00  0.00    +0.200 C 
ATOM      9  C   UNL     1       1.270  -4.501  -1.425  0.00  0.00    +0.098 C 
ATOM     10  C   UNL     1       0.557  -3.223  -1.059  0.00  0.00    +0.101 C 
ENDROOT
BRANCH  10  11
ATOM     11  C   UNL     1      -0.932  -3.453  -1.053  0.00  0.00    -0.033 A 
ATOM     12  C   UNL     1      -1.603  -3.665  -2.244  0.00  0.00    +0.006 A 
ATOM     13  C   UNL     1      -2.969  -3.876  -2.240  0.00  0.00    +0.022 A 
ATOM     14  C   UNL     1      -3.666  -3.875  -1.045  0.00  0.00    +0.059 A 
ATOM     15  C   UNL     1      -2.994  -3.663   0.147  0.00  0.00    +0.060 A 
ATOM     16  C   UNL     1      -1.626  -3.457   0.142  0.00  0.00    +0.026 A 
ATOM     17 CL   UNL     1      -3.867  -3.661   1.647  0.00  0.00    -0.082 Cl
ATOM     18 CL   UNL     1      -5.382  -4.140  -1.040  0.00  0.00    -0.082 Cl
ENDBRANCH  10  11
BRANCH   1  20
ATOM     19  C   UNL     1      -1.465  -0.402  -0.891  0.00  0.00    +0.017 C 
ATOM     20  C   UNL     1       0.021  -0.041  -0.944  0.00  0.00    +0.007 C 
ATOM     21  C   UNL     1       0.172   1.460  -1.197  0.00  0.00    +0.017 C 
ATOM     22  C   UNL     1       0.681  -0.404   0.387  0.00  0.00    +0.017 C 
ENDBRANCH   1  20
BRANCH   8  23
ATOM     23  N   UNL     1       2.485  -5.881  -2.865  0.00  0.00    -0.328 N 
ATOM     24  H   UNL     1       2.923  -6.039  -3.716  0.00  0.00    +0.145 HD
ATOM     25  H   UNL     1       2.485  -6.572  -2.184  0.00  0.00    +0.145 HD
ENDBRANCH   8  23
BRANCH   9  26
ATOM     26  C   UNL     1       1.315  -5.564  -0.467  0.00  0.00    +0.101 C 
ATOM     27  N   UNL     1       1.350  -6.407   0.293  0.00  0.00    -0.191 NA
ENDBRANCH   9  26
TORSDOF 4
