REMARK  Name = ZINC20865036
REMARK  8 active torsions:
REMARK  status: ('A' for Active; 'I' for Inactive)
REMARK    1  A    between atoms: C_1  and  C_2
REMARK    2  A    between atoms: C_2  and  C_3
REMARK    3  A    between atoms: C_3  and  C_5
REMARK    4  A    between atoms: C_3  and  N_6
REMARK    5  A    between atoms: N_9  and  C_10
REMARK    6  A    between atoms: C_10  and  C_11
REMARK    7  A    between atoms: C_15  and  N_16
REMARK    8  A    between atoms: N_22  and  C_25
REMARK                            x       y       z     vdW  Elec       q    Type
REMARK                         _______ _______ _______ _____ _____    ______ ____
ROOT
ATOM      1  C   UNL     1      -2.389   0.647   0.012  0.00  0.00    +0.004 A 
ATOM      2  C   UNL     1      -2.845   0.109   1.212  0.00  0.00    -0.034 A 
ATOM      3  C   UNL     1      -3.911  -0.736   1.138  0.00  0.00    -0.021 A 
ATOM      4  S   UNL     1      -4.290  -0.790  -0.591  0.00  0.00    -0.077 S 
ATOM      5  C   UNL     1      -3.011   0.324  -1.153  0.00  0.00    +0.089 A 
ATOM      6  C   UNL     1      -4.578  -1.439   2.275  0.00  0.00    -0.036 C 
ATOM      7  N   UNL     1      -3.693  -1.354   3.452  0.00  0.00    +0.381 N 
ATOM      8  C   UNL     1      -3.234   0.028   3.657  0.00  0.00    -0.074 C 
ATOM      9  C   UNL     1      -2.225   0.416   2.573  0.00  0.00    +0.018 C 
ATOM     10  C   UNL     1      -4.363  -1.869   4.654  0.00  0.00    -0.096 C 
ATOM     11  H   UNL     1      -2.809  -1.982   3.269  0.00  0.00    -0.082 HD
ENDROOT
BRANCH   5  12
ATOM     12  N   UNL     1      -2.723   0.750  -2.455  0.00  0.00    -0.317 N 
ATOM     13  C   UNL     1      -3.635   1.201  -3.365  0.00  0.00    +0.092 A 
ATOM     14  C   UNL     1      -2.977   1.521  -4.499  0.00  0.00    +0.019 A 
ATOM     15  C   UNL     1      -1.611   1.249  -4.285  0.00  0.00    +0.019 A 
ATOM     16  C   UNL     1      -1.484   0.779  -3.027  0.00  0.00    +0.092 A 
ENDBRANCH   5  12
BRANCH   1  17
ATOM     17  C   UNL     1      -1.213   1.590   0.004  0.00  0.00    +0.144 C 
BRANCH  17  21
ATOM     18  N   UNL     1       2.365   0.744  -0.067  0.00  0.00    -0.297 N 
ATOM     19  C   UNL     1       1.220   1.454  -0.037  0.00  0.00    +0.300 C 
ATOM     20  O   UNL     1       1.258   2.669  -0.026  0.00  0.00    -0.253 OA
ATOM     21  N   UNL     1       0.032   0.817  -0.021  0.00  0.00    -0.295 N 
ATOM     22  H   UNL     1       2.330  -0.356  -0.077  0.00  0.00    +0.151 HD
ATOM     23  H   UNL     1      -0.003  -0.282  -0.027  0.00  0.00    +0.151 HD
BRANCH  18  24
ATOM     24  C   UNL     1       3.656   1.435  -0.084  0.00  0.00    +0.071 C 
ATOM     25  C   UNL     1       4.018   1.802  -1.525  0.00  0.00    +0.028 C 
BRANCH  24  27
ATOM     26  C   UNL     1       4.437   0.252   1.973  0.00  0.00    +0.005 C 
ATOM     27  C   UNL     1       4.734   0.518   0.495  0.00  0.00    +0.019 C 
ENDBRANCH  24  27
ENDBRANCH  18  24
ENDBRANCH  17  21
ENDBRANCH   1  17
TORSDOF 5
