REMARK  Name = ZINC38688730
REMARK  13 active torsions:
REMARK  status: ('A' for Active; 'I' for Inactive)
REMARK    1  A    between atoms: C_1  and  C_2
REMARK    2  A    between atoms: C_2  and  O_3
REMARK    3  A    between atoms: O_3  and  C_4
REMARK    4  A    between atoms: C_7  and  C_12
REMARK    5  A    between atoms: C_9  and  O_10
REMARK    6  A    between atoms: O_10  and  C_11
REMARK    7  A    between atoms: C_17  and  O_26
REMARK    8  A    between atoms: C_21  and  N_25
REMARK    9  A    between atoms: C_22  and  C_23
REMARK   10  A    between atoms: O_26  and  C_27
REMARK   11  A    between atoms: C_27  and  C_29
REMARK   12  A    between atoms: C_30  and  C_39
REMARK   13  A    between atoms: C_33  and  C_38
REMARK                            x       y       z     vdW  Elec       q    Type
REMARK                         _______ _______ _______ _____ _____    ______ ____
ROOT
ATOM      1  C   UNL     1       1.054  -6.042  -1.806  0.00  0.00    +0.098 C 
ATOM      2  C   UNL     1       1.833  -6.624  -0.657  0.00  0.00    +0.008 A 
ATOM      3  C   UNL     1       3.216  -6.563  -0.672  0.00  0.00    +0.012 A 
ATOM      4  C   UNL     1       3.947  -7.092   0.374  0.00  0.00    +0.047 A 
ATOM      5  C   UNL     1       3.295  -7.687   1.445  0.00  0.00    +0.136 A 
ATOM      6  C   UNL     1       1.911  -7.748   1.463  0.00  0.00    +0.093 A 
ATOM      7  C   UNL     1       1.177  -7.216   0.411  0.00  0.00    +0.138 A 
ATOM      8  O   UNL     1      -0.177  -7.285   0.444  0.00  0.00    -0.441 OA
ATOM      9  C   UNL     1      -0.882  -7.144  -0.691  0.00  0.00    +0.199 C 
ATOM     10  C   UNL     1      -0.355  -6.563  -1.791  0.00  0.00    +0.098 C 
ENDROOT
BRANCH   1  14
ATOM     11  C   UNL     1       0.991  -1.780  -1.459  0.00  0.00    +0.162 A 
ATOM     12  C   UNL     1       0.450  -2.568  -0.456  0.00  0.00    +0.050 A 
ATOM     13  C   UNL     1       0.472  -3.946  -0.571  0.00  0.00    +0.008 A 
ATOM     14  C   UNL     1       1.033  -4.540  -1.686  0.00  0.00    -0.031 A 
ATOM     15  C   UNL     1       1.574  -3.760  -2.691  0.00  0.00    +0.054 A 
ATOM     16  C   UNL     1       1.550  -2.379  -2.584  0.00  0.00    +0.162 A 
BRANCH  16  17
ATOM     17  O   UNL     1       2.078  -1.610  -3.574  0.00  0.00    -0.491 OA
ATOM     18  C   UNL     1       2.635  -2.292  -4.699  0.00  0.00    +0.277 C 
ENDBRANCH  16  17
BRANCH  11  19
ATOM     19  O   UNL     1       0.970  -0.425  -1.347  0.00  0.00    -0.489 OA
BRANCH  19  21
ATOM     20  C   UNL     1       0.448   1.647  -0.218  0.00  0.00    +0.048 C 
ATOM     21  C   UNL     1       0.380   0.119  -0.165  0.00  0.00    +0.226 C 
ENDBRANCH  19  21
ENDBRANCH  11  19
ENDBRANCH   1  14
BRANCH   9  22
ATOM     22  N   UNL     1      -2.175  -7.603  -0.733  0.00  0.00    -0.328 N 
ATOM     23  H   UNL     1      -2.567  -8.022   0.050  0.00  0.00    +0.145 HD
ATOM     24  H   UNL     1      -2.697  -7.509  -1.544  0.00  0.00    +0.145 HD
ENDBRANCH   9  22
BRANCH  10  25
ATOM     25  C   UNL     1      -1.161  -6.442  -2.969  0.00  0.00    +0.101 C 
ATOM     26  N   UNL     1      -1.800  -6.346  -3.903  0.00  0.00    -0.191 NA
ENDBRANCH  10  25
BRANCH   5  27
ATOM     27  O   UNL     1       4.013  -8.208   2.474  0.00  0.00    -0.420 OA
BRANCH  27  28
ATOM     28  C   UNL     1       4.027  -9.549   2.621  0.00  0.00    +0.380 C 
ATOM     29  O   UNL     1       3.497 -10.258   1.787  0.00  0.00    -0.241 OA
BRANCH  28  30
ATOM     30  C   UNL     1       4.682 -10.152   3.788  0.00  0.00    +0.216 A 
ATOM     31  C   UNL     1       4.763 -11.486   4.037  0.00  0.00    +0.010 A 
ATOM     32  C   UNL     1       5.495 -11.619   5.296  0.00  0.00    +0.024 A 
ATOM     33  C   UNL     1       5.900 -12.705   6.077  0.00  0.00    +0.015 A 
ATOM     34  C   UNL     1       6.590 -12.486   7.235  0.00  0.00    -0.050 A 
ATOM     35  C   UNL     1       6.891 -11.192   7.641  0.00  0.00    +0.007 A 
ATOM     36  C   UNL     1       6.501 -10.108   6.885  0.00  0.00    +0.047 A 
ATOM     37  C   UNL     1       5.798 -10.306   5.702  0.00  0.00    +0.136 A 
ATOM     38  O   UNL     1       5.300  -9.467   4.773  0.00  0.00    -0.448 OA
ATOM     39  C   UNL     1       7.027 -13.655   8.079  0.00  0.00    +0.044 C 
ATOM     40  C   UNL     1       4.210 -12.601   3.188  0.00  0.00    +0.048 C 
ENDBRANCH  28  30
ENDBRANCH  27  28
ENDBRANCH   5  27
TORSDOF 9
