REMARK  Name = ZINC00470248
REMARK  5 active torsions:
REMARK  status: ('A' for Active; 'I' for Inactive)
REMARK    1  A    between atoms: C_1  and  S_2
REMARK    2  A    between atoms: S_2  and  C_3
REMARK    3  A    between atoms: C_6  and  C_9
REMARK    4  A    between atoms: C_18  and  N_22
REMARK    5  A    between atoms: C_19  and  C_20
REMARK                            x       y       z     vdW  Elec       q    Type
REMARK                         _______ _______ _______ _____ _____    ______ ____
ROOT
ATOM      1  C   UNL     1      -5.834  -1.544   0.050  0.00  0.00    +0.098 C 
ATOM      2  C   UNL     1      -6.127  -2.352   1.286  0.00  0.00    +0.011 A 
ATOM      3  C   UNL     1      -6.243  -1.710   2.507  0.00  0.00    +0.057 A 
ATOM      4  C   UNL     1      -6.512  -2.436   3.654  0.00  0.00    +0.167 A 
ATOM      5  C   UNL     1      -6.666  -3.819   3.579  0.00  0.00    +0.170 A 
ATOM      6  C   UNL     1      -6.548  -4.460   2.358  0.00  0.00    +0.096 A 
ATOM      7  C   UNL     1      -6.278  -3.727   1.209  0.00  0.00    +0.138 A 
ATOM      8  O   UNL     1      -6.166  -4.374   0.021  0.00  0.00    -0.441 OA
ATOM      9  C   UNL     1      -6.292  -3.691  -1.128  0.00  0.00    +0.199 C 
ATOM     10  C   UNL     1      -6.147  -2.349  -1.180  0.00  0.00    +0.098 C 
ATOM     11  O   UNL     1      -6.923  -4.298   4.832  0.00  0.00    -0.452 OA
ATOM     12  C   UNL     1      -6.519  -3.250   5.734  0.00  0.00    +0.466 C 
ATOM     13  O   UNL     1      -6.672  -2.050   4.954  0.00  0.00    -0.453 OA
ENDROOT
BRANCH   1  17
ATOM     14  C   UNL     1      -1.702  -0.454   0.016  0.00  0.00    +0.008 A 
ATOM     15  C   UNL     1      -2.682   0.531   0.025  0.00  0.00    +0.015 A 
ATOM     16  C   UNL     1      -4.016   0.176   0.036  0.00  0.00    +0.005 A 
ATOM     17  C   UNL     1      -4.377  -1.159   0.038  0.00  0.00    -0.035 A 
ATOM     18  C   UNL     1      -3.404  -2.143   0.029  0.00  0.00    +0.005 A 
ATOM     19  C   UNL     1      -2.068  -1.794   0.012  0.00  0.00    +0.015 A 
BRANCH  14  21
ATOM     20  C   UNL     1      -0.022   1.810   0.012  0.00  0.00    +0.090 C 
ATOM     21  S   UNL     1       0.002  -0.004   0.002  0.00  0.00    -0.129 S 
ENDBRANCH  14  21
ENDBRANCH   1  17
BRANCH   9  22
ATOM     22  N   UNL     1      -6.577  -4.377  -2.283  0.00  0.00    -0.328 N 
ATOM     23  H   UNL     1      -6.683  -5.341  -2.260  0.00  0.00    +0.145 HD
ATOM     24  H   UNL     1      -6.671  -3.898  -3.121  0.00  0.00    +0.145 HD
ENDBRANCH   9  22
BRANCH  10  25
ATOM     25  C   UNL     1      -6.294  -1.680  -2.438  0.00  0.00    +0.101 C 
ATOM     26  N   UNL     1      -6.411  -1.150  -3.436  0.00  0.00    -0.191 NA
ENDBRANCH  10  25
TORSDOF 4
