REMARK  Name = ZINC38656291
REMARK  7 active torsions:
REMARK  status: ('A' for Active; 'I' for Inactive)
REMARK    1  A    between atoms: C_3  and  C_6
REMARK    2  A    between atoms: C_11  and  O_20
REMARK    3  A    between atoms: C_15  and  N_19
REMARK    4  A    between atoms: C_16  and  C_17
REMARK    5  A    between atoms: O_20  and  C_21
REMARK    6  A    between atoms: C_21  and  C_23
REMARK    7  A    between atoms: C_24  and  C_25
REMARK                            x       y       z     vdW  Elec       q    Type
REMARK                         _______ _______ _______ _____ _____    ______ ____
ROOT
ATOM      1  C   UNL     1       3.755   1.904   0.003  0.00  0.00    +0.105 C 
ATOM      2  C   UNL     1       4.475   1.388   1.221  0.00  0.00    +0.008 A 
ATOM      3  C   UNL     1       4.309   2.033   2.434  0.00  0.00    +0.012 A 
ATOM      4  C   UNL     1       4.962   1.574   3.561  0.00  0.00    +0.047 A 
ATOM      5  C   UNL     1       5.788   0.462   3.479  0.00  0.00    +0.135 A 
ATOM      6  C   UNL     1       5.955  -0.186   2.266  0.00  0.00    +0.093 A 
ATOM      7  C   UNL     1       5.298   0.277   1.134  0.00  0.00    +0.138 A 
ATOM      8  O   UNL     1       5.473  -0.369  -0.046  0.00  0.00    -0.441 OA
ATOM      9  C   UNL     1       5.182   0.254  -1.200  0.00  0.00    +0.199 C 
ATOM     10  C   UNL     1       4.374   1.336  -1.243  0.00  0.00    +0.098 C 
ENDROOT
BRANCH   1  13
ATOM     11  C   UNL     1      -0.045   1.682   0.161  0.00  0.00    +0.008 A 
ATOM     12  C   UNL     1       1.199   2.281   0.098  0.00  0.00    +0.012 A 
ATOM     13  C   UNL     1       2.305   1.498   0.070  0.00  0.00    +0.002 A 
ATOM     14  S   UNL     1       1.599  -0.141   0.134  0.00  0.00    -0.101 S 
ATOM     15  C   UNL     1      -0.122   0.329   0.193  0.00  0.00    +0.045 A 
ENDBRANCH   1  13
BRANCH   9  16
ATOM     16  N   UNL     1       5.721  -0.223  -2.369  0.00  0.00    -0.328 N 
ATOM     17  H   UNL     1       6.303  -0.999  -2.353  0.00  0.00    +0.145 HD
ATOM     18  H   UNL     1       5.521   0.216  -3.210  0.00  0.00    +0.145 HD
ENDBRANCH   9  16
BRANCH  10  19
ATOM     19  C   UNL     1       4.102   1.954  -2.506  0.00  0.00    +0.101 C 
ATOM     20  N   UNL     1       3.887   2.444  -3.508  0.00  0.00    -0.191 NA
ENDBRANCH  10  19
BRANCH   5  21
ATOM     21  O   UNL     1       6.432   0.009   4.587  0.00  0.00    -0.423 OA
BRANCH  21  22
ATOM     22  C   UNL     1       5.691  -0.553   5.564  0.00  0.00    +0.337 C 
ATOM     23  O   UNL     1       4.501  -0.739   5.395  0.00  0.00    -0.245 OA
BRANCH  22  24
ATOM     24  C   UNL     1       6.319  -0.940   6.826  0.00  0.00    +0.092 C 
ATOM     25  C   UNL     1       5.578  -1.503   7.804  0.00  0.00    +0.016 C 
BRANCH  25  26
ATOM     26  C   UNL     1       6.210  -1.892   9.074  0.00  0.00    -0.006 A 
ATOM     27  C   UNL     1       7.577  -1.675   9.274  0.00  0.00    +0.011 A 
ATOM     28  C   UNL     1       8.163  -2.042  10.466  0.00  0.00    +0.020 A 
ATOM     29  C   UNL     1       7.401  -2.625  11.467  0.00  0.00    +0.042 A 
ATOM     30  C   UNL     1       6.046  -2.844  11.277  0.00  0.00    +0.040 A 
ATOM     31  C   UNL     1       5.445  -2.477  10.090  0.00  0.00    +0.049 A 
ATOM     32 CL   UNL     1       3.746  -2.745   9.856  0.00  0.00    -0.083 Cl
ATOM     33 CL   UNL     1       8.148  -3.083  12.965  0.00  0.00    -0.083 Cl
ENDBRANCH  25  26
ENDBRANCH  22  24
ENDBRANCH  21  22
ENDBRANCH   5  21
TORSDOF 7
