REMARK  Name = ZINC39361511
REMARK  6 active torsions:
REMARK  status: ('A' for Active; 'I' for Inactive)
REMARK    1  A    between atoms: C_4  and  N_7
REMARK    2  A    between atoms: C_8  and  C_27
REMARK    3  A    between atoms: C_12  and  S_13
REMARK    4  A    between atoms: S_13  and  C_14
REMARK    5  A    between atoms: C_14  and  C_15
REMARK    6  A    between atoms: C_27  and  C_28
REMARK                            x       y       z     vdW  Elec       q    Type
REMARK                         _______ _______ _______ _____ _____    ______ ____
ROOT
ATOM      1  N   UNL     1       3.609  -0.646  -0.105  0.00  0.00    -0.258 N 
ATOM      2  C   UNL     1       3.801  -2.106  -0.054  0.00  0.00    +0.187 C 
ATOM      3  N   UNL     1       5.263  -2.273  -0.130  0.00  0.00    -0.246 N 
ATOM      4  N   UNL     1       5.800  -0.983  -0.216  0.00  0.00    -0.162 NA
ATOM      5  C   UNL     1       4.874  -0.084  -0.207  0.00  0.00    +0.180 C 
ATOM      6  H   UNL     1       5.755  -3.109  -0.122  0.00  0.00    +0.170 HD
ENDROOT
BRANCH   1  10
ATOM      7  C   UNL     1      -0.021   1.392   0.014  0.00  0.00    +0.000 A 
ATOM      8  C   UNL     1       0.271   0.564  -1.055  0.00  0.00    +0.002 A 
ATOM      9  C   UNL     1       1.474  -0.114  -1.098  0.00  0.00    +0.023 A 
ATOM     10  C   UNL     1       2.392   0.038  -0.066  0.00  0.00    +0.037 A 
ATOM     11  C   UNL     1       2.095   0.871   1.006  0.00  0.00    +0.023 A 
ATOM     12  C   UNL     1       0.891   1.544   1.043  0.00  0.00    +0.002 A 
ENDBRANCH   1  10
BRANCH   5  13
ATOM     13  S   UNL     1       5.178   1.649  -0.307  0.00  0.00    -0.079 S 
BRANCH  13  14
ATOM     14  C   UNL     1       6.985   1.770  -0.421  0.00  0.00    +0.173 C 
BRANCH  14  15
ATOM     15  C   UNL     1       7.386   3.220  -0.513  0.00  0.00    +0.230 C 
ATOM     16  O   UNL     1       6.546   4.089  -0.412  0.00  0.00    -0.274 OA
ATOM     17  N   UNL     1       8.678   3.551  -0.708  0.00  0.00    -0.270 N 
ATOM     18  C   UNL     1       9.693   2.509  -0.916  0.00  0.00    +0.114 C 
ATOM     19  C   UNL     1      10.913   2.866  -0.057  0.00  0.00    +0.024 C 
ATOM     20  C   UNL     1      11.494   4.191  -0.551  0.00  0.00    +0.038 C 
ATOM     21  C   UNL     1      10.416   5.239  -0.638  0.00  0.00    -0.026 A 
ATOM     22  C   UNL     1       9.075   4.895  -0.721  0.00  0.00    +0.039 A 
ATOM     23  C   UNL     1       8.105   5.887  -0.811  0.00  0.00    +0.024 A 
ATOM     24  C   UNL     1       8.476   7.217  -0.822  0.00  0.00    +0.002 A 
ATOM     25  C   UNL     1       9.812   7.561  -0.743  0.00  0.00    +0.000 A 
ATOM     26  C   UNL     1      10.780   6.575  -0.643  0.00  0.00    +0.005 A 
ENDBRANCH  14  15
ENDBRANCH  13  14
ENDBRANCH   5  13
BRANCH   2  27
ATOM     27  C   UNL     1       3.261  -2.672   1.261  0.00  0.00    +0.097 C 
BRANCH  27  28
ATOM     28  C   UNL     1       3.470  -4.164   1.288  0.00  0.00    +0.029 A 
ATOM     29  N   UNL     1       2.556  -4.997   0.701  0.00  0.00    -0.311 N 
ATOM     30  C   UNL     1       2.733  -6.330   0.720  0.00  0.00    +0.327 A 
ATOM     31  O   UNL     1       1.909  -7.052   0.192  0.00  0.00    -0.247 OA
ATOM     32  N   UNL     1       3.810  -6.877   1.314  0.00  0.00    -0.275 N 
ATOM     33  C   UNL     1       4.733  -6.091   1.904  0.00  0.00    +0.254 A 
ATOM     34  O   UNL     1       5.708  -6.585   2.442  0.00  0.00    -0.268 OA
ATOM     35  C   UNL     1       4.561  -4.686   1.887  0.00  0.00    +0.091 A 
ATOM     36  H   UNL     1       3.923  -7.841   1.318  0.00  0.00    +0.173 HD
ATOM     37  H   UNL     1       1.773  -4.622   0.268  0.00  0.00    +0.170 HD
ENDBRANCH  27  28
ENDBRANCH   2  27
TORSDOF 6
