REMARK  Name = ZINC36500785
REMARK  11 active torsions:
REMARK  status: ('A' for Active; 'I' for Inactive)
REMARK    1  A    between atoms: C_1  and  O_2
REMARK    2  A    between atoms: O_2  and  C_3
REMARK    3  A    between atoms: C_12  and  C_13
REMARK    4  A    between atoms: C_13  and  C_15
REMARK    5  A    between atoms: C_13  and  N_24
REMARK    6  A    between atoms: N_17  and  C_18
REMARK    7  A    between atoms: N_24  and  C_25
REMARK    8  A    between atoms: C_25  and  C_26
REMARK    9  A    between atoms: C_31  and  C_33
REMARK   10  A    between atoms: C_37  and  O_40
REMARK   11  A    between atoms: C_38  and  O_39
REMARK                            x       y       z     vdW  Elec       q    Type
REMARK                         _______ _______ _______ _____ _____    ______ ____
ROOT
ATOM      1  C   UNL     1      -0.186  -2.771   0.129  0.00  0.00    +0.197 C 
ENDROOT
BRANCH   1  11
ATOM      2  C   UNL     1       0.703  -0.470   0.479  0.00  0.00    +0.126 A 
ATOM      3  C   UNL     1       1.336   0.509   1.251  0.00  0.00    +0.046 A 
ATOM      4  C   UNL     1       1.772   0.234   2.510  0.00  0.00    +0.012 A 
ATOM      5  C   UNL     1       1.586  -1.052   3.046  0.00  0.00    -0.017 A 
ATOM      6  C   UNL     1       2.023  -1.370   4.343  0.00  0.00    +0.008 A 
ATOM      7  C   UNL     1       1.827  -2.625   4.831  0.00  0.00    +0.001 A 
ATOM      8  C   UNL     1       1.197  -3.603   4.064  0.00  0.00    +0.001 A 
ATOM      9  C   UNL     1       0.760  -3.332   2.804  0.00  0.00    +0.009 A 
ATOM     10  C   UNL     1       0.945  -2.046   2.266  0.00  0.00    -0.009 A 
ATOM     11  C   UNL     1       0.502  -1.728   0.971  0.00  0.00    +0.031 A 
BRANCH   2  13
ATOM     12  C   UNL     1       0.421   1.193  -1.196  0.00  0.00    +0.277 C 
ATOM     13  O   UNL     1       0.279  -0.165  -0.775  0.00  0.00    -0.495 OA
ENDBRANCH   2  13
ENDBRANCH   1  11
BRANCH   1  14
ATOM     14  C   UNL     1       0.767  -3.277  -0.922  0.00  0.00    +0.238 C 
ATOM     15  O   UNL     1       0.613  -2.963  -2.084  0.00  0.00    -0.273 OA
ATOM     16  N   UNL     1       1.792  -4.080  -0.572  0.00  0.00    -0.311 N 
ATOM     17  H   UNL     1       1.916  -4.331   0.357  0.00  0.00    +0.149 HD
BRANCH  16  18
ATOM     18  C   UNL     1       2.720  -4.572  -1.593  0.00  0.00    +0.073 C 
ATOM     19  C   UNL     1       2.144  -5.834  -2.239  0.00  0.00    +0.022 C 
ATOM     20  C   UNL     1       3.113  -6.349  -3.306  0.00  0.00    +0.002 C 
ATOM     21  C   UNL     1       4.459  -6.676  -2.657  0.00  0.00    +0.000 C 
ATOM     22  C   UNL     1       5.035  -5.414  -2.012  0.00  0.00    +0.002 C 
ATOM     23  C   UNL     1       4.066  -4.899  -0.945  0.00  0.00    +0.022 C 
ENDBRANCH  16  18
ENDBRANCH   1  14
BRANCH   1  24
ATOM     24  N   UNL     1      -1.358  -2.178  -0.521  0.00  0.00    -0.274 N 
ATOM     25  C   UNL     1      -1.892  -2.762  -1.612  0.00  0.00    +0.252 C 
ATOM     26  O   UNL     1      -2.767  -2.195  -2.238  0.00  0.00    -0.270 OA
BRANCH  25  27
ATOM     27  C   UNL     1      -1.415  -4.089  -2.046  0.00  0.00    +0.082 A 
ATOM     28  C   UNL     1      -0.713  -4.908  -1.157  0.00  0.00    +0.017 A 
ATOM     29  C   UNL     1      -0.270  -6.147  -1.566  0.00  0.00    +0.005 A 
ATOM     30  C   UNL     1      -0.515  -6.588  -2.856  0.00  0.00    +0.049 A 
ATOM     31  C   UNL     1      -1.208  -5.787  -3.748  0.00  0.00    +0.159 A 
ATOM     32  C   UNL     1      -1.668  -4.536  -3.348  0.00  0.00    +0.171 A 
BRANCH  32  33
ATOM     33  O   UNL     1      -2.353  -3.751  -4.218  0.00  0.00    -0.503 OA
ATOM     34  H   UNL     1      -1.793  -3.162  -4.741  0.00  0.00    +0.292 HD
ENDBRANCH  32  33
BRANCH  31  35
ATOM     35  O   UNL     1      -1.446  -6.226  -5.013  0.00  0.00    -0.503 OA
ATOM     36  H   UNL     1      -2.275  -6.714  -5.111  0.00  0.00    +0.292 HD
ENDBRANCH  31  35
ENDBRANCH  25  27
BRANCH  24  37
ATOM     37  C   UNL     1      -1.950  -0.949   0.016  0.00  0.00    +0.183 C 
BRANCH  37  38
ATOM     38  C   UNL     1      -2.922  -1.298   1.113  0.00  0.00    +0.122 A 
ATOM     39  C   UNL     1      -2.647  -1.324   2.429  0.00  0.00    +0.046 A 
ATOM     40  C   UNL     1      -3.840  -1.699   3.090  0.00  0.00    +0.041 A 
ATOM     41  C   UNL     1      -4.772  -1.879   2.137  0.00  0.00    +0.195 A 
ATOM     42  O   UNL     1      -4.213  -1.629   0.942  0.00  0.00    -0.466 OA
ENDBRANCH  37  38
ENDBRANCH  24  37
ENDBRANCH   1  24
TORSDOF 10
