REMARK  Name = ZINC05001820
REMARK  3 active torsions:
REMARK  status: ('A' for Active; 'I' for Inactive)
REMARK    1  A    between atoms: C_9  and  N_11
REMARK    2  A    between atoms: C_12  and  C_14
REMARK    3  A    between atoms: N_24  and  C_25
REMARK                            x       y       z     vdW  Elec       q    Type
REMARK                         _______ _______ _______ _____ _____    ______ ____
ROOT
ATOM      1  C   UNL     1      -1.234   1.757   0.018  0.00  0.00    +0.039 A 
ATOM      2  C   UNL     1      -0.013   1.076   0.008  0.00  0.00    +0.015 A 
ATOM      3  C   UNL     1       1.171   1.779   0.000  0.00  0.00    +0.029 A 
ATOM      4  C   UNL     1       1.155   3.168   0.008  0.00  0.00    +0.070 A 
ATOM      5  C   UNL     1      -0.063   3.855   0.023  0.00  0.00    +0.068 A 
ATOM      6  C   UNL     1      -1.254   3.153   0.031  0.00  0.00    +0.041 A 
ATOM      7  N   UNL     1       0.243   5.215   0.027  0.00  0.00    -0.306 N 
ATOM      8  H   UNL     1      -0.399   5.942   0.037  0.00  0.00    +0.170 HD
ATOM      9  C   UNL     1       1.583   5.346   0.015  0.00  0.00    +0.328 A 
ATOM     10  O   UNL     1       2.183   6.404   0.015  0.00  0.00    -0.247 OA
ATOM     11  N   UNL     1       2.158   4.129   0.003  0.00  0.00    -0.289 N 
ENDROOT
BRANCH  11  12
ATOM     12  C   UNL     1       3.598   3.863  -0.013  0.00  0.00    +0.092 C 
ATOM     13  C   UNL     1       4.243   4.473   1.234  0.00  0.00    +0.025 C 
ATOM     14  C   UNL     1       5.747   4.195   1.218  0.00  0.00    +0.002 C 
ATOM     15  C   UNL     1       6.368   4.818  -0.034  0.00  0.00    +0.000 C 
ATOM     16  C   UNL     1       5.723   4.209  -1.281  0.00  0.00    +0.002 C 
ATOM     17  C   UNL     1       4.218   4.487  -1.264  0.00  0.00    +0.025 C 
ENDBRANCH  11  12
BRANCH   1  19
ATOM     18  N   UNL     1      -2.482  -0.347   0.011  0.00  0.00    -0.305 N 
ATOM     19  C   UNL     1      -2.502   1.000   0.019  0.00  0.00    +0.245 C 
ATOM     20  O   UNL     1      -3.563   1.593   0.027  0.00  0.00    -0.270 OA
ATOM     21  H   UNL     1      -1.635  -0.820   0.004  0.00  0.00    +0.150 HD
BRANCH  18  30
ATOM     22  C   UNL     1      -5.206  -2.163  -3.849  0.00  0.00    +0.000 A 
ATOM     23  C   UNL     1      -4.771  -0.860  -3.696  0.00  0.00    +0.000 A 
ATOM     24  C   UNL     1      -4.282  -0.436  -2.476  0.00  0.00    +0.006 A 
ATOM     25  C   UNL     1      -4.226  -1.312  -1.405  0.00  0.00    -0.024 A 
ATOM     26  C   UNL     1      -4.660  -2.617  -1.557  0.00  0.00    -0.042 A 
ATOM     27  C   UNL     1      -5.149  -3.042  -2.780  0.00  0.00    +0.004 A 
ATOM     28  C   UNL     1      -4.497  -3.366  -0.251  0.00  0.00    +0.037 C 
ATOM     29  C   UNL     1      -3.517  -2.515   0.584  0.00  0.00    +0.032 C 
ATOM     30  C   UNL     1      -3.740  -1.098   0.013  0.00  0.00    +0.104 C 
ENDBRANCH  18  30
ENDBRANCH   1  19
TORSDOF 3
