REMARK  Name = ZINC04901959
REMARK  7 active torsions:
REMARK  status: ('A' for Active; 'I' for Inactive)
REMARK    1  A    between atoms: C_1  and  C_2
REMARK    2  A    between atoms: C_2  and  C_3
REMARK    3  A    between atoms: C_2  and  C_4
REMARK    4  A    between atoms: C_2  and  C_5
REMARK    5  A    between atoms: C_18  and  C_20
REMARK    6  A    between atoms: C_20  and  N_62
REMARK    7  A    between atoms: C_21  and  N_62
REMARK                            x       y       z     vdW  Elec       q    Type
REMARK                         _______ _______ _______ _____ _____    ______ ____
ROOT
ATOM      1  C   UNL     1       4.983  -1.673   6.988  0.00  0.00    -0.000 C 
ATOM      2  C   UNL     1       5.997  -1.526   5.849  0.00  0.00    +0.009 C 
ATOM      3  C   UNL     1       5.559  -0.405   4.905  0.00  0.00    +0.037 C 
ATOM      4  C   UNL     1       4.117  -0.658   4.475  0.00  0.00    -0.023 A 
ATOM      5  C   UNL     1       3.323  -1.491   5.181  0.00  0.00    -0.004 A 
ATOM      6  S   UNL     1       1.769  -1.477   4.328  0.00  0.00    -0.073 S 
ATOM      7  C   UNL     1       2.192  -0.350   3.024  0.00  0.00    +0.116 A 
ATOM      8  C   UNL     1       3.530  -0.023   3.296  0.00  0.00    +0.075 A 
ATOM      9  C   UNL     1       4.143   0.894   2.380  0.00  0.00    +0.260 A 
ATOM     10  O   UNL     1       5.302   1.238   2.531  0.00  0.00    -0.267 OA
ATOM     11  N   UNL     1       3.419   1.362   1.347  0.00  0.00    -0.312 N 
ATOM     12  H   UNL     1       3.842   1.996   0.699  0.00  0.00    +0.170 HD
ATOM     13  C   UNL     1       2.125   0.993   1.166  0.00  0.00    +0.094 A 
ATOM     14  N   UNL     1       1.539   0.160   1.983  0.00  0.00    -0.229 NA
ATOM     15  C   UNL     1       3.683  -2.257   6.417  0.00  0.00    +0.046 C 
ENDROOT
BRANCH   1  17
ATOM     16  C   UNL     1       5.832  -3.981   7.429  0.00  0.00    +0.011 C 
ATOM     17  C   UNL     1       5.544  -2.615   8.055  0.00  0.00    -0.035 C 
ATOM     18  C   UNL     1       6.840  -2.030   8.621  0.00  0.00    +0.011 C 
ATOM     19  C   UNL     1       4.521  -2.775   9.182  0.00  0.00    +0.011 C 
ENDBRANCH   1  17
BRANCH  13  20
ATOM     20  C   UNL     1       1.353   1.550  -0.003  0.00  0.00    -0.007 C 
BRANCH  20  21
ATOM     21  N   UNL     1      -0.015   0.998   0.015  0.00  0.00    +0.386 N 
ATOM     22  H   UNL     1      -0.475   1.261   0.894  0.00  0.00    -0.085 HD
ATOM     23  H   UNL     1       0.032  -0.025  -0.054  0.00  0.00    -0.085 HD
BRANCH  21  24
ATOM     24  C   UNL     1      -0.795   1.527  -1.120  0.00  0.00    -0.071 C 
ATOM     25  C   UNL     1      -1.403   2.878  -0.736  0.00  0.00    -0.016 C 
ATOM     26  C   UNL     1      -1.873   3.602  -1.999  0.00  0.00    -0.002 C 
ATOM     27  C   UNL     1      -0.806   3.476  -3.088  0.00  0.00    -0.000 C 
ATOM     28  C   UNL     1      -1.343   2.613  -4.231  0.00  0.00    -0.000 C 
ATOM     29  C   UNL     1      -1.319   1.142  -3.813  0.00  0.00    -0.000 C 
ATOM     30  C   UNL     1      -2.474   0.867  -2.848  0.00  0.00    -0.002 C 
ATOM     31  C   UNL     1      -1.916   0.542  -1.461  0.00  0.00    -0.016 C 
ENDBRANCH  21  24
ENDBRANCH  20  21
ENDBRANCH  13  20
TORSDOF 4
