REMARK  Name = ZINC20881607
REMARK  10 active torsions:
REMARK  status: ('A' for Active; 'I' for Inactive)
REMARK    1  A    between atoms: C_1  and  O_2
REMARK    2  A    between atoms: O_2  and  C_3
REMARK    3  A    between atoms: C_6  and  C_10
REMARK    4  A    between atoms: C_15  and  C_20
REMARK    5  A    between atoms: C_22  and  O_30
REMARK    6  A    between atoms: C_23  and  O_28
REMARK    7  A    between atoms: C_24  and  O_26
REMARK    8  A    between atoms: O_26  and  C_27
REMARK    9  A    between atoms: O_28  and  C_29
REMARK   10  A    between atoms: O_30  and  C_31
REMARK                            x       y       z     vdW  Elec       q    Type
REMARK                         _______ _______ _______ _____ _____    ______ ____
ROOT
ATOM      1  C   UNL     1      -2.513   0.977   0.019  0.00  0.00    +0.136 C 
ATOM      2  C   UNL     1      -2.916   0.723   1.452  0.00  0.00    +0.036 C 
ATOM      3  C   UNL     1      -3.952   1.291   2.092  0.00  0.00    +0.017 C 
ATOM      4  C   UNL     1      -4.256   0.935   3.538  0.00  0.00    +0.059 C 
ATOM      5  C   UNL     1      -2.961   0.607   4.278  0.00  0.00    +0.032 C 
ATOM      6  C   UNL     1      -2.300  -0.577   3.562  0.00  0.00    +0.088 C 
ATOM      7  C   UNL     1      -2.085  -0.204   2.125  0.00  0.00    +0.163 C 
ATOM      8  O   UNL     1      -1.166  -0.717   1.517  0.00  0.00    -0.292 OA
ATOM      9  N   UNL     1      -4.806   2.187   1.534  0.00  0.00    -0.316 N 
ATOM     10  C   UNL     1      -4.424   3.285   0.773  0.00  0.00    +0.052 A 
ATOM     11  C   UNL     1      -4.700   4.585   1.160  0.00  0.00    +0.025 A 
ATOM     12  C   UNL     1      -4.397   5.627   0.300  0.00  0.00    +0.002 A 
ATOM     13  C   UNL     1      -3.823   5.371  -0.931  0.00  0.00    +0.002 A 
ATOM     14  C   UNL     1      -3.525   4.073  -1.310  0.00  0.00    +0.025 A 
ATOM     15  C   UNL     1      -3.811   3.030  -0.444  0.00  0.00    +0.049 A 
ATOM     16  N   UNL     1      -3.487   1.711  -0.760  0.00  0.00    -0.331 N 
ATOM     17  H   UNL     1      -5.892   2.071   1.671  0.00  0.00    +0.152 HD
ATOM     18  H   UNL     1      -3.984   1.229  -1.615  0.00  0.00    +0.147 HD
ENDROOT
BRANCH   1  22
ATOM     19  C   UNL     1       1.155   3.171   0.008  0.00  0.00    +0.138 A 
ATOM     20  C   UNL     1       1.117   1.878  -0.493  0.00  0.00    +0.047 A 
ATOM     21  C   UNL     1      -0.069   1.170  -0.484  0.00  0.00    +0.009 A 
ATOM     22  C   UNL     1      -1.220   1.750   0.017  0.00  0.00    -0.021 A 
ATOM     23  C   UNL     1      -1.185   3.037   0.522  0.00  0.00    +0.029 A 
ATOM     24  C   UNL     1      -0.000   3.750   0.516  0.00  0.00    +0.083 A 
ATOM     25 CL   UNL     1       0.042   5.369   1.142  0.00  0.00    -0.080 Cl
BRANCH  19  27
ATOM     26  C   UNL     1       3.468   3.212  -0.538  0.00  0.00    +0.277 C 
ATOM     27  O   UNL     1       2.320   3.870  -0.000  0.00  0.00    -0.494 OA
ENDBRANCH  19  27
ENDBRANCH   1  22
BRANCH   5  28
ATOM     28  C   UNL     1      -3.269   0.233   5.705  0.00  0.00    -0.036 A 
ATOM     29  C   UNL     1      -4.090  -0.847   5.972  0.00  0.00    +0.053 A 
ATOM     30  C   UNL     1      -4.371  -1.198   7.284  0.00  0.00    +0.165 A 
ATOM     31  C   UNL     1      -3.836  -0.456   8.330  0.00  0.00    +0.204 A 
ATOM     32  C   UNL     1      -3.016   0.632   8.057  0.00  0.00    +0.165 A 
ATOM     33  C   UNL     1      -2.735   0.973   6.743  0.00  0.00    +0.053 A 
BRANCH  32  34
ATOM     34  O   UNL     1      -2.490   1.361   9.077  0.00  0.00    -0.491 OA
ATOM     35  C   UNL     1      -1.656   2.466   8.722  0.00  0.00    +0.277 C 
ENDBRANCH  32  34
BRANCH  31  36
ATOM     36  O   UNL     1      -4.115  -0.794   9.619  0.00  0.00    -0.488 OA
ATOM     37  C   UNL     1      -5.266  -0.192  10.213  0.00  0.00    +0.277 C 
ENDBRANCH  31  36
BRANCH  30  38
ATOM     38  O   UNL     1      -5.175  -2.264   7.546  0.00  0.00    -0.491 OA
ATOM     39  C   UNL     1      -5.689  -2.981   6.422  0.00  0.00    +0.277 C 
ENDBRANCH  30  38
ENDBRANCH   5  28
TORSDOF 6
