REMARK  Name = ZINC35636508
REMARK  10 active torsions:
REMARK  status: ('A' for Active; 'I' for Inactive)
REMARK    1  A    between atoms: C_1  and  C_2
REMARK    2  A    between atoms: C_2  and  N_3
REMARK    3  A    between atoms: C_6  and  C_11
REMARK    4  A    between atoms: C_14  and  C_18
REMARK    5  A    between atoms: C_16  and  C_17
REMARK    6  A    between atoms: N_21  and  C_23
REMARK    7  A    between atoms: C_23  and  C_25
REMARK    8  A    between atoms: C_23  and  C_32
REMARK    9  A    between atoms: C_25  and  C_26
REMARK   10  A    between atoms: N_34  and  C_35
REMARK                            x       y       z     vdW  Elec       q    Type
REMARK                         _______ _______ _______ _____ _____    ______ ____
ROOT
ATOM      1  N   UNL     1      -1.585  -0.545   0.143  0.00  0.00    -0.257 N 
ATOM      2  C   UNL     1      -2.274  -0.917   1.262  0.00  0.00    +0.042 C 
ATOM      3  C   UNL     1      -3.541  -1.371   1.184  0.00  0.00    +0.058 C 
ATOM      4  C   UNL     1      -4.176  -1.456  -0.189  0.00  0.00    +0.142 C 
ATOM      5  N   UNL     1      -3.350  -1.031  -1.333  0.00  0.00    -0.288 N 
ATOM      6  C   UNL     1      -2.098  -0.594  -1.094  0.00  0.00    +0.307 C 
ATOM      7  O   UNL     1      -1.411  -0.238  -2.030  0.00  0.00    -0.252 OA
ATOM      8  C   UNL     1      -4.028  -1.688   2.469  0.00  0.00    +0.247 C 
ATOM      9  O   UNL     1      -5.144  -2.120   2.694  0.00  0.00    -0.270 OA
ATOM     10  N   UNL     1      -3.100  -1.451   3.413  0.00  0.00    -0.280 N 
ATOM     11  C   UNL     1      -1.903  -0.940   2.728  0.00  0.00    +0.160 C 
ATOM     12  H   UNL     1      -3.701  -1.062  -2.237  0.00  0.00    +0.151 HD
ENDROOT
BRANCH   4  13
ATOM     13  C   UNL     1      -5.423  -0.609  -0.178  0.00  0.00    -0.020 A 
ATOM     14  C   UNL     1      -5.584   0.370   0.785  0.00  0.00    +0.006 A 
ATOM     15  C   UNL     1      -6.728   1.146   0.796  0.00  0.00    +0.004 A 
ATOM     16  C   UNL     1      -7.710   0.944  -0.156  0.00  0.00    -0.050 A 
ATOM     17  C   UNL     1      -7.547  -0.034  -1.119  0.00  0.00    +0.007 A 
ATOM     18  C   UNL     1      -6.402  -0.808  -1.133  0.00  0.00    -0.045 A 
ATOM     19  C   UNL     1      -6.223  -1.870  -2.186  0.00  0.00    +0.044 C 
ATOM     20  C   UNL     1      -8.957   1.790  -0.144  0.00  0.00    +0.044 C 
ENDBRANCH   4  13
BRANCH   1  22
ATOM     21  C   UNL     1      -0.227   1.455   0.511  0.00  0.00    +0.025 C 
ATOM     22  C   UNL     1      -0.212  -0.060   0.304  0.00  0.00    +0.111 C 
ENDBRANCH   1  22
BRANCH  10  23
ATOM     23  C   UNL     1      -3.252  -1.662   4.854  0.00  0.00    +0.167 C 
BRANCH  23  24
ATOM     24  C   UNL     1      -4.389  -0.815   5.368  0.00  0.00    +0.238 C 
ATOM     25  O   UNL     1      -5.010  -0.106   4.605  0.00  0.00    -0.273 OA
ATOM     26  N   UNL     1      -4.715  -0.847   6.675  0.00  0.00    -0.284 N 
ATOM     27  H   UNL     1      -4.177  -1.362   7.297  0.00  0.00    +0.155 HD
BRANCH  26  28
ATOM     28  C   UNL     1      -5.830  -0.137   7.136  0.00  0.00    +0.034 A 
ATOM     29  C   UNL     1      -6.604  -0.650   8.168  0.00  0.00    +0.026 A 
ATOM     30  C   UNL     1      -7.703   0.052   8.621  0.00  0.00    +0.040 A 
ATOM     31  C   UNL     1      -8.035   1.267   8.046  0.00  0.00    +0.124 A 
ATOM     32  C   UNL     1      -7.265   1.781   7.017  0.00  0.00    +0.040 A 
ATOM     33  C   UNL     1      -6.161   1.085   6.565  0.00  0.00    +0.026 A 
ATOM     34  F   UNL     1      -9.112   1.952   8.490  0.00  0.00    -0.205 F 
ENDBRANCH  26  28
ENDBRANCH  23  24
BRANCH  23  35
ATOM     35  C   UNL     1      -3.553  -3.137   5.125  0.00  0.00    +0.067 C 
BRANCH  35  36
ATOM     36  C   UNL     1      -2.365  -3.973   4.723  0.00  0.00    -0.045 A 
ATOM     37  C   UNL     1      -2.268  -4.463   3.434  0.00  0.00    +0.004 A 
ATOM     38  C   UNL     1      -1.179  -5.230   3.066  0.00  0.00    +0.000 A 
ATOM     39  C   UNL     1      -0.186  -5.507   3.986  0.00  0.00    +0.000 A 
ATOM     40  C   UNL     1      -0.282  -5.017   5.275  0.00  0.00    +0.000 A 
ATOM     41  C   UNL     1      -1.369  -4.246   5.643  0.00  0.00    +0.004 A 
ENDBRANCH  35  36
ENDBRANCH  23  35
ENDBRANCH  10  23
TORSDOF 7
