REMARK  Name = ZINC39935520
REMARK  7 active torsions:
REMARK  status: ('A' for Active; 'I' for Inactive)
REMARK    1  A    between atoms: C_1  and  C_2
REMARK    2  A    between atoms: C_4  and  S_9
REMARK    3  A    between atoms: C_5  and  C_8
REMARK    4  A    between atoms: S_9  and  C_10
REMARK    5  A    between atoms: C_15  and  N_16
REMARK    6  A    between atoms: C_17  and  C_18
REMARK    7  A    between atoms: C_21  and  C_23
REMARK                            x       y       z     vdW  Elec       q    Type
REMARK                         _______ _______ _______ _____ _____    ______ ____
ROOT
ATOM      1  C   UNL     1      -4.103  -1.247  -0.506  0.00  0.00    +0.038 A 
ATOM      2  C   UNL     1      -3.900  -2.174   0.506  0.00  0.00    +0.017 A 
ATOM      3  C   UNL     1      -4.931  -3.003   0.903  0.00  0.00    +0.001 A 
ATOM      4  C   UNL     1      -6.173  -2.917   0.297  0.00  0.00    +0.002 A 
ATOM      5  C   UNL     1      -6.394  -2.001  -0.711  0.00  0.00    +0.029 A 
ATOM      6  C   UNL     1      -5.363  -1.152  -1.119  0.00  0.00    +0.078 A 
ENDROOT
BRANCH   6   7
ATOM      7  N   UNL     1      -5.577  -0.239  -2.112  0.00  0.00    -0.251 NA
ATOM      8  C   UNL     1      -6.152  -0.609  -3.228  0.00  0.00    +0.157 C 
BRANCH   8   9
ATOM      9  C   UNL     1      -6.284   0.312  -4.295  0.00  0.00    +0.147 A 
ATOM     10  C   UNL     1      -6.872   0.057  -5.518  0.00  0.00    +0.051 A 
ATOM     11  C   UNL     1      -6.784   1.238  -6.262  0.00  0.00    +0.050 A 
ATOM     12  C   UNL     1      -6.154   2.161  -5.477  0.00  0.00    +0.137 A 
ATOM     13  O   UNL     1      -5.863   1.594  -4.293  0.00  0.00    -0.454 OA
BRANCH  12  14
ATOM     14  C   UNL     1      -5.849   3.553  -5.863  0.00  0.00    +0.036 A 
ATOM     15  C   UNL     1      -5.217   3.821  -7.079  0.00  0.00    +0.013 A 
ATOM     16  C   UNL     1      -4.935   5.124  -7.433  0.00  0.00    +0.001 A 
ATOM     17  C   UNL     1      -5.276   6.165  -6.587  0.00  0.00    +0.001 A 
ATOM     18  C   UNL     1      -5.902   5.907  -5.380  0.00  0.00    +0.021 A 
ATOM     19  C   UNL     1      -6.196   4.609  -5.015  0.00  0.00    +0.052 A 
ATOM     20 CL   UNL     1      -6.988   4.287  -3.504  0.00  0.00    -0.083 Cl
ENDBRANCH  12  14
ENDBRANCH   8   9
ENDBRANCH   6   7
BRANCH   1  21
ATOM     21  S   UNL     1      -2.789  -0.189  -1.014  0.00  0.00    -0.089 S 
BRANCH  21  24
ATOM     22  C   UNL     1      -0.531  -2.447  -1.762  0.00  0.00    +0.031 C 
ATOM     23  C   UNL     1      -0.727  -2.125  -0.279  0.00  0.00    +0.106 C 
ATOM     24  C   UNL     1      -1.395  -0.775  -0.110  0.00  0.00    +0.025 C 
ATOM     25  C   UNL     1      -0.750  -0.115   0.835  0.00  0.00    +0.009 C 
ATOM     26  N   UNL     1       0.305  -0.871   1.353  0.00  0.00    -0.356 NA
ATOM     27  N   UNL     1       0.583  -1.949   0.397  0.00  0.00    -0.252 NA
ATOM     28  C   UNL     1      -1.105   1.276   1.294  0.00  0.00    +0.061 C 
ATOM     29  H   UNL     1       1.122  -0.290   1.463  0.00  0.00    +0.140 HD
ATOM     30  H   UNL     1       0.861  -2.795   0.872  0.00  0.00    +0.143 HD
ATOM     31  H   UNL     1       0.040  -1.266   2.243  0.00  0.00    +0.140 HD
ENDBRANCH  21  24
ENDBRANCH   1  21
TORSDOF 5
