REMARK  Name = ZINC10610242
REMARK  2 active torsions:
REMARK  status: ('A' for Active; 'I' for Inactive)
REMARK    1  A    between atoms: C_4  and  C_7
REMARK    2  A    between atoms: C_8  and  C_9
REMARK                            x       y       z     vdW  Elec       q    Type
REMARK                         _______ _______ _______ _____ _____    ______ ____
ROOT
ATOM      1  C   UNL     1      -1.137  -2.158   0.001  0.00  0.00    +0.243 C 
ATOM      2  O   UNL     1      -0.074  -2.752  -0.012  0.00  0.00    -0.270 OA
ATOM      3  N   UNL     1      -2.295  -2.847   0.009  0.00  0.00    -0.251 N 
ATOM      4  C   UNL     1      -2.276  -4.238   0.001  0.00  0.00    +0.224 A 
ATOM      5  N   UNL     1      -1.204  -4.992  -0.019  0.00  0.00    -0.112 NA
ATOM      6  N   UNL     1      -1.617  -6.332  -0.020  0.00  0.00    -0.121 NA
ATOM      7  C   UNL     1      -2.925  -6.347  -0.012  0.00  0.00    +0.193 A 
ATOM      8  N   UNL     1      -3.372  -5.055   0.007  0.00  0.00    -0.290 N 
ATOM      9  C   UNL     1      -4.768  -4.618   0.036  0.00  0.00    +0.128 C 
ATOM     10  C   UNL     1      -5.701  -5.724  -0.448  0.00  0.00    +0.033 C 
ATOM     11  C   UNL     1      -5.531  -6.975   0.421  0.00  0.00    +0.079 C 
ATOM     12  S   UNL     1      -3.964  -7.774  -0.029  0.00  0.00    -0.086 S 
ATOM     13  H   UNL     1      -3.141  -2.374   0.019  0.00  0.00    +0.158 HD
ENDROOT
BRANCH   1  15
ATOM     14  C   UNL     1       0.002  -0.004   0.002  0.00  0.00    +0.013 C 
ATOM     15  C   UNL     1      -1.156  -0.694   0.009  0.00  0.00    +0.068 C 
BRANCH  14  19
ATOM     16  C   UNL     1      -0.056   4.237   0.024  0.00  0.00    +0.000 A 
ATOM     17  C   UNL     1       1.154   3.566   0.010  0.00  0.00    +0.001 A 
ATOM     18  C   UNL     1       1.181   2.187   0.003  0.00  0.00    +0.008 A 
ATOM     19  C   UNL     1      -0.018   1.468   0.010  0.00  0.00    -0.025 A 
ATOM     20  C   UNL     1      -1.236   2.154   0.020  0.00  0.00    +0.008 A 
ATOM     21  C   UNL     1      -1.247   3.533   0.032  0.00  0.00    +0.001 A 
ENDBRANCH  14  19
ENDBRANCH   1  15
TORSDOF 2
