REMARK  Name = ZINC05346019
REMARK  8 active torsions:
REMARK  status: ('A' for Active; 'I' for Inactive)
REMARK    1  A    between atoms: C_1  and  C_2
REMARK    2  A    between atoms: C_2  and  C_3
REMARK    3  A    between atoms: C_3  and  C_5
REMARK    4  A    between atoms: C_3  and  N_6
REMARK    5  A    between atoms: C_18  and  C_25
REMARK    6  A    between atoms: C_26  and  C_28
REMARK    7  A    between atoms: C_28  and  C_29
REMARK    8  A    between atoms: C_28  and  C_30
REMARK                            x       y       z     vdW  Elec       q    Type
REMARK                         _______ _______ _______ _____ _____    ______ ____
ROOT
ATOM      1  N   UNL     1       0.259   2.440   1.882  0.00  0.00    -0.239 N 
ATOM      2  C   UNL     1       1.437   2.542   1.257  0.00  0.00    +0.224 C 
ATOM      3  O   UNL     1       2.378   3.203   1.641  0.00  0.00    -0.275 OA
ATOM      4  C   UNL     1       1.412   1.706  -0.002  0.00  0.00    +0.073 C 
ATOM      5  C   UNL     1      -0.013   1.086   0.008  0.00  0.00    +0.088 C 
ATOM      6  C   UNL     1      -0.629   1.650   1.268  0.00  0.00    +0.225 C 
ATOM      7  O   UNL     1      -1.754   1.423   1.659  0.00  0.00    -0.275 OA
ATOM      8  C   UNL     1      -0.699   1.670  -1.232  0.00  0.00    +0.050 C 
ATOM      9  C   UNL     1      -1.585   2.832  -0.880  0.00  0.00    -0.027 A 
ATOM     10  C   UNL     1      -1.359   4.047  -0.274  0.00  0.00    +0.008 A 
ATOM     11  C   UNL     1      -2.406   4.932  -0.085  0.00  0.00    -0.050 A 
ATOM     12  C   UNL     1      -3.679   4.592  -0.506  0.00  0.00    +0.005 A 
ATOM     13  C   UNL     1      -3.910   3.376  -1.113  0.00  0.00    +0.024 A 
ATOM     14  C   UNL     1      -2.862   2.479  -1.307  0.00  0.00    +0.036 A 
ATOM     15  N   UNL     1      -2.843   1.208  -1.886  0.00  0.00    -0.286 N 
ATOM     16  C   UNL     1      -1.611   0.665  -1.881  0.00  0.00    +0.211 C 
ATOM     17  O   UNL     1      -1.297  -0.423  -2.315  0.00  0.00    -0.277 OA
ATOM     18  C   UNL     1      -2.160   6.262   0.579  0.00  0.00    +0.044 C 
ATOM     19  C   UNL     1       1.427   2.640  -1.231  0.00  0.00    -0.055 C 
ATOM     20  H   UNL     1      -3.627   0.767  -2.250  0.00  0.00    +0.155 HD
ATOM     21  N   UNL     1       0.378   2.099  -2.100  0.00  0.00    +0.394 N 
ATOM     22  H   UNL     1       0.045   2.824  -2.746  0.00  0.00    -0.083 HD
ATOM     23  H   UNL     1       0.739   1.302  -2.637  0.00  0.00    -0.083 HD
ENDROOT
BRANCH  19  24
ATOM     24  C   UNL     1       2.795   2.597  -1.916  0.00  0.00    -0.031 C 
ATOM     25  C   UNL     1       2.787   3.529  -3.130  0.00  0.00    +0.005 C 
ATOM     26  C   UNL     1       3.873   3.052  -0.931  0.00  0.00    +0.005 C 
ENDBRANCH  19  24
BRANCH   1  27
ATOM     27  C   UNL     1      -0.036   3.136   3.137  0.00  0.00    +0.081 C 
ATOM     28  C   UNL     1       0.098   4.646   2.926  0.00  0.00    +0.028 C 
BRANCH  27  30
ATOM     29  C   UNL     1       0.732   1.199   4.515  0.00  0.00    +0.006 C 
ATOM     30  C   UNL     1       0.951   2.683   4.215  0.00  0.00    +0.019 C 
ENDBRANCH  27  30
ENDBRANCH   1  27
TORSDOF 3
