REMARK  Name = ZINC22752207
REMARK  9 active torsions:
REMARK  status: ('A' for Active; 'I' for Inactive)
REMARK    1  A    between atoms: C_1  and  C_2
REMARK    2  A    between atoms: C_2  and  O_3
REMARK    3  A    between atoms: O_3  and  C_4
REMARK    4  A    between atoms: C_6  and  C_11
REMARK    5  A    between atoms: C_9  and  O_10
REMARK    6  A    between atoms: C_16  and  C_21
REMARK    7  A    between atoms: C_24  and  C_27
REMARK    8  A    between atoms: C_27  and  C_28
REMARK    9  A    between atoms: C_27  and  C_29
REMARK                            x       y       z     vdW  Elec       q    Type
REMARK                         _______ _______ _______ _____ _____    ______ ____
ROOT
ATOM      1  C   UNL     1       4.224   3.179  -0.010  0.00  0.00    +0.156 C 
ATOM      2  C   UNL     1       5.689   3.129  -0.380  0.00  0.00    +0.039 C 
ATOM      3  C   UNL     1       6.392   1.977  -0.383  0.00  0.00    +0.020 C 
ATOM      4  C   UNL     1       7.860   1.965  -0.741  0.00  0.00    +0.060 C 
ATOM      5  C   UNL     1       8.152   3.074  -1.754  0.00  0.00    +0.032 C 
ATOM      6  C   UNL     1       7.748   4.414  -1.130  0.00  0.00    +0.088 C 
ATOM      7  C   UNL     1       6.301   4.348  -0.727  0.00  0.00    +0.164 C 
ATOM      8  O   UNL     1       5.645   5.370  -0.700  0.00  0.00    -0.292 OA
ATOM      9  N   UNL     1       5.811   0.771  -0.070  0.00  0.00    -0.288 N 
ATOM     10  C   UNL     1       4.430   0.695  -0.043  0.00  0.00    +0.202 A 
ATOM     11  N   UNL     1       3.655   1.834  -0.022  0.00  0.00    -0.300 N 
ATOM     12  C   UNL     1       2.350   1.433  -0.013  0.00  0.00    +0.071 A 
ATOM     13  C   UNL     1       1.148   2.131   0.003  0.00  0.00    +0.028 A 
ATOM     14  C   UNL     1      -0.017   1.380   0.010  0.00  0.00    +0.002 A 
ATOM     15  C   UNL     1       0.002  -0.004   0.002  0.00  0.00    +0.002 A 
ATOM     16  C   UNL     1       1.185  -0.721  -0.015  0.00  0.00    +0.030 A 
ATOM     17  C   UNL     1       2.374   0.016  -0.023  0.00  0.00    +0.091 A 
ATOM     18  N   UNL     1       3.667  -0.364  -0.040  0.00  0.00    -0.214 NA
ATOM     19  H   UNL     1       6.443  -0.102   0.153  0.00  0.00    +0.155 HD
ENDROOT
BRANCH   1  22
ATOM     20  C   UNL     1       3.219   5.482   2.811  0.00  0.00    +0.162 A 
ATOM     21  C   UNL     1       3.360   4.939   1.544  0.00  0.00    +0.055 A 
ATOM     22  C   UNL     1       4.077   3.771   1.368  0.00  0.00    -0.016 A 
ATOM     23  C   UNL     1       4.664   3.147   2.453  0.00  0.00    +0.010 A 
ATOM     24  C   UNL     1       4.532   3.686   3.719  0.00  0.00    +0.049 A 
ATOM     25  C   UNL     1       3.811   4.855   3.903  0.00  0.00    +0.158 A 
BRANCH  25  26
ATOM     26  O   UNL     1       3.680   5.386   5.147  0.00  0.00    -0.503 OA
ATOM     27  H   UNL     1       4.147   4.889   6.010  0.00  0.00    +0.292 HD
ENDBRANCH  25  26
BRANCH  20  28
ATOM     28  O   UNL     1       2.510   6.630   2.986  0.00  0.00    -0.489 OA
BRANCH  28  30
ATOM     29  C   UNL     1       1.178   8.491   2.212  0.00  0.00    +0.048 C 
ATOM     30  C   UNL     1       1.931   7.219   1.819  0.00  0.00    +0.226 C 
ENDBRANCH  28  30
ENDBRANCH  20  28
ENDBRANCH   1  22
BRANCH   5  31
ATOM     31  C   UNL     1       9.623   3.089  -2.080  0.00  0.00    -0.043 A 
ATOM     32  C   UNL     1      10.551   3.308  -1.079  0.00  0.00    +0.004 A 
ATOM     33  C   UNL     1      11.901   3.316  -1.378  0.00  0.00    +0.004 A 
ATOM     34  C   UNL     1      12.322   3.117  -2.679  0.00  0.00    -0.045 A 
ATOM     35  C   UNL     1      11.394   2.902  -3.681  0.00  0.00    +0.004 A 
ATOM     36  C   UNL     1      10.044   2.888  -3.381  0.00  0.00    +0.004 A 
BRANCH  34  37
ATOM     37  C   UNL     1      13.793   3.132  -3.006  0.00  0.00    +0.013 C 
ATOM     38  C   UNL     1      14.384   4.492  -2.631  0.00  0.00    +0.012 C 
ATOM     39  C   UNL     1      14.503   2.032  -2.214  0.00  0.00    +0.012 C 
ENDBRANCH  34  37
ENDBRANCH   5  31
TORSDOF 6
