REMARK  Name = ZINC09075625
REMARK  7 active torsions:
REMARK  status: ('A' for Active; 'I' for Inactive)
REMARK    1  A    between atoms: C_6  and  C_7
REMARK    2  A    between atoms: C_7  and  O_8
REMARK    3  A    between atoms: O_8  and  C_9
REMARK    4  A    between atoms: C_12  and  N_26
REMARK    5  A    between atoms: C_14  and  C_15
REMARK    6  A    between atoms: N_16  and  N_17
REMARK    7  A    between atoms: C_18  and  C_19
REMARK                            x       y       z     vdW  Elec       q    Type
REMARK                         _______ _______ _______ _____ _____    ______ ____
ROOT
ATOM      1  C   UNL     1      -0.321  -2.822  -1.000  0.00  0.00    +0.130 A 
ATOM      2  C   UNL     1      -0.545  -3.472   0.202  0.00  0.00    +0.048 A 
ATOM      3  C   UNL     1      -1.163  -4.709   0.217  0.00  0.00    +0.036 A 
ATOM      4  C   UNL     1      -1.563  -5.307  -0.966  0.00  0.00    +0.127 A 
ATOM      5  C   UNL     1      -1.349  -4.676  -2.172  0.00  0.00    +0.045 A 
ATOM      6  C   UNL     1      -0.730  -3.421  -2.202  0.00  0.00    +0.039 A 
ENDROOT
BRANCH   4   7
ATOM      7  N   UNL     1      -2.222  -6.633  -0.935  0.00  0.00    +0.056 N 
ATOM      8  O   UNL     1      -2.411  -7.190   0.121  0.00  0.00    -0.126 OA
ATOM      9  O   UNL     1      -2.572  -7.158  -1.967  0.00  0.00    -0.126 OA
ENDBRANCH   4   7
BRANCH   6  10
ATOM     10  C   UNL     1      -0.504  -2.738  -3.483  0.00  0.00    +0.144 C 
ATOM     11  N   UNL     1       0.080  -1.568  -3.506  0.00  0.00    -0.180 NA
BRANCH  11  12
ATOM     12  N   UNL     1       0.278  -0.969  -4.631  0.00  0.00    -0.263 N 
ATOM     13  C   UNL     1       0.865   0.208  -4.654  0.00  0.00    +0.143 C 
ATOM     14  N   UNL     1       1.268   0.801  -3.475  0.00  0.00    -0.342 N 
ATOM     15  H   UNL     1       1.014   0.411  -2.624  0.00  0.00    +0.144 HD
ATOM     16  H   UNL     1       1.806   1.608  -3.498  0.00  0.00    +0.144 HD
ATOM     17  H   UNL     1      -0.005  -1.386  -5.459  0.00  0.00    +0.190 HD
BRANCH  13  18
ATOM     18  C   UNL     1       1.092   0.894  -5.941  0.00  0.00    +0.187 A 
ATOM     19  C   UNL     1       1.302   2.337  -6.123  0.00  0.00    +0.191 A 
ATOM     20  N   UNL     1       1.467   2.569  -7.396  0.00  0.00    -0.033 NA
ATOM     21  O   UNL     1       1.377   1.333  -8.082  0.00  0.00    -0.240 OA
ATOM     22  N   UNL     1       1.147   0.321  -7.118  0.00  0.00    -0.044 NA
ATOM     23  N   UNL     1       1.319   3.289  -5.114  0.00  0.00    -0.339 N 
ATOM     24  H   UNL     1       1.073   3.042  -4.209  0.00  0.00    +0.144 HD
ATOM     25  H   UNL     1       1.578   4.203  -5.313  0.00  0.00    +0.144 HD
ENDBRANCH  13  18
ENDBRANCH  11  12
ENDBRANCH   6  10
BRANCH   1  26
ATOM     26  O   UNL     1       0.285  -1.607  -1.015  0.00  0.00    -0.487 OA
BRANCH  26  27
ATOM     27  C   UNL     1       0.673  -1.059   0.246  0.00  0.00    +0.264 C 
BRANCH  27  33
ATOM     28  C   UNL     1       0.556   1.431   0.031  0.00  0.00    +0.008 A 
ATOM     29  C   UNL     1       1.154   2.662  -0.165  0.00  0.00    +0.015 A 
ATOM     30  C   UNL     1       2.521   2.744  -0.360  0.00  0.00    +0.018 A 
ATOM     31  C   UNL     1       3.289   1.594  -0.358  0.00  0.00    +0.015 A 
ATOM     32  C   UNL     1       2.691   0.364  -0.162  0.00  0.00    +0.008 A 
ATOM     33  C   UNL     1       1.325   0.282   0.033  0.00  0.00    -0.010 A 
ATOM     34 BR   UNL     1       3.339   4.428  -0.629  0.00  0.00    -0.050 Br
ENDBRANCH  27  33
ENDBRANCH  26  27
ENDBRANCH   1  26
TORSDOF 7
