REMARK  Name = ZINC23078234
REMARK  11 active torsions:
REMARK  status: ('A' for Active; 'I' for Inactive)
REMARK    1  A    between atoms: C_1  and  C_2
REMARK    2  A    between atoms: C_2  and  C_3
REMARK    3  A    between atoms: C_3  and  C_4
REMARK    4  A    between atoms: C_4  and  N_5
REMARK    5  A    between atoms: C_6  and  N_38
REMARK    6  A    between atoms: C_7  and  N_14
REMARK    7  A    between atoms: N_14  and  C_15
REMARK    8  A    between atoms: C_15  and  C_16
REMARK    9  A    between atoms: C_16  and  C_17
REMARK   10  A    between atoms: C_16  and  C_18
REMARK   11  A    between atoms: C_19  and  C_21
REMARK                            x       y       z     vdW  Elec       q    Type
REMARK                         _______ _______ _______ _____ _____    ______ ____
ROOT
ATOM      1  N   UNL     1       1.693   4.127   0.041  0.00  0.00    -0.260 N 
ATOM      2  C   UNL     1       1.756   5.398   0.483  0.00  0.00    +0.251 C 
ATOM      3  O   UNL     1       2.832   5.895   0.756  0.00  0.00    -0.270 OA
ENDROOT
BRANCH   2   4
ATOM      4  C   UNL     1       0.519   6.188   0.637  0.00  0.00    +0.039 A 
ATOM      5  C   UNL     1      -0.716   5.543   0.748  0.00  0.00    +0.015 A 
ATOM      6  C   UNL     1      -1.872   6.275   0.910  0.00  0.00    +0.026 A 
ATOM      7  C   UNL     1      -1.805   7.663   0.959  0.00  0.00    +0.062 A 
ATOM      8  C   UNL     1      -0.580   8.302   0.822  0.00  0.00    +0.134 A 
ATOM      9  C   UNL     1       0.579   7.588   0.667  0.00  0.00    +0.044 A 
ATOM     10  S   UNL     1      -0.585  10.067   0.831  0.00  0.00    +0.102 S 
ATOM     11  O   UNL     1      -0.363  10.478   2.173  0.00  0.00    -0.146 OA
ATOM     12  O   UNL     1       0.234  10.492  -0.250  0.00  0.00    -0.146 OA
ATOM     13  N   UNL     1      -2.144  10.476   0.450  0.00  0.00    -0.118 NA
ATOM     14  C   UNL     1      -3.131   9.639   0.626  0.00  0.00    +0.124 C 
ATOM     15  N   UNL     1      -2.981   8.416   1.174  0.00  0.00    -0.286 N 
ATOM     16  C   UNL     1      -3.946   7.742   2.016  0.00  0.00    +0.112 C 
ATOM     17  C   UNL     1      -4.899   8.495   2.836  0.00  0.00    +0.019 C 
ATOM     18  C   UNL     1      -5.649   9.689   2.374  0.00  0.00    +0.002 C 
ATOM     19  C   UNL     1      -5.713  10.022   0.912  0.00  0.00    +0.008 C 
ATOM     20  C   UNL     1      -4.446  10.126   0.189  0.00  0.00    +0.073 C 
ENDBRANCH   2   4
BRANCH   1  23
ATOM     21  N   UNL     1      -1.479   3.636  -1.748  0.00  0.00    -0.280 N 
ATOM     22  C   UNL     1      -0.277   4.189  -1.370  0.00  0.00    +0.127 A 
ATOM     23  C   UNL     1       0.458   3.584  -0.370  0.00  0.00    +0.140 A 
ATOM     24  C   UNL     1      -0.047   2.416   0.232  0.00  0.00    +0.277 A 
ATOM     25  O   UNL     1       0.582   1.861   1.117  0.00  0.00    -0.266 OA
ATOM     26  N   UNL     1      -1.229   1.915  -0.176  0.00  0.00    -0.273 N 
ATOM     27  H   UNL     1      -1.633   1.006   0.292  0.00  0.00    +0.173 HD
ATOM     28  C   UNL     1      -1.929   2.515  -1.156  0.00  0.00    +0.331 A 
ATOM     29  O   UNL     1      -2.991   2.039  -1.508  0.00  0.00    -0.246 OA
BRANCH  22  30
ATOM     30  N   UNL     1       0.185   5.331  -1.979  0.00  0.00    -0.343 N 
ATOM     31  H   UNL     1       1.147   5.768  -1.671  0.00  0.00    +0.144 HD
ATOM     32  H   UNL     1      -0.406   5.808  -2.775  0.00  0.00    +0.144 HD
ENDBRANCH  22  30
BRANCH  21  33
ATOM     33  C   UNL     1      -2.269   4.267  -2.808  0.00  0.00    +0.128 C 
BRANCH  33  34
ATOM     34  C   UNL     1      -1.863   3.684  -4.163  0.00  0.00    +0.021 C 
BRANCH  34  36
ATOM     35  C   UNL     1      -2.283   3.760  -6.625  0.00  0.00    +0.004 C 
ATOM     36  C   UNL     1      -2.689   4.343  -5.270  0.00  0.00    -0.002 C 
ENDBRANCH  34  36
ENDBRANCH  33  34
ENDBRANCH  21  33
ENDBRANCH   1  23
BRANCH   1  37
ATOM     37  C   UNL     1       2.907   3.309  -0.014  0.00  0.00    +0.117 C 
BRANCH  37  38
ATOM     38  C   UNL     1       3.493   3.361  -1.426  0.00  0.00    +0.001 C 
ATOM     39  C   UNL     1       3.928   4.792  -1.746  0.00  0.00    +0.009 C 
ATOM     40  C   UNL     1       4.704   2.429  -1.510  0.00  0.00    +0.009 C 
ENDBRANCH  37  38
ENDBRANCH   1  37
TORSDOF 8
