REMARK  Name = ZINC44737573
REMARK  6 active torsions:
REMARK  status: ('A' for Active; 'I' for Inactive)
REMARK    1  A    between atoms: C_1  and  C_2
REMARK    2  A    between atoms: C_9  and  C_11
REMARK    3  A    between atoms: C_11  and  C_13
REMARK    4  A    between atoms: C_11  and  N_14
REMARK    5  A    between atoms: C_15  and  C_17
REMARK    6  A    between atoms: C_28  and  C_30
REMARK                            x       y       z     vdW  Elec       q    Type
REMARK                         _______ _______ _______ _____ _____    ______ ____
ROOT
ATOM      1  C   UNL     1      -1.616  -8.772   1.003  0.00  0.00    +0.100 C 
ATOM      2  C   UNL     1      -0.559  -9.303   0.009  0.00  0.00    +0.121 C 
ATOM      3  N   UNL     1      -0.007 -10.513   0.661  0.00  0.00    -0.295 N 
ATOM      4  C   UNL     1      -1.183 -11.165   1.286  0.00  0.00    +0.115 C 
ATOM      5  C   UNL     1      -2.026  -9.998   1.837  0.00  0.00    -0.004 C 
ATOM      6  C   UNL     1      -3.512 -10.288   1.655  0.00  0.00    -0.010 C 
ATOM      7  C   UNL     1      -3.908 -11.474   2.539  0.00  0.00    -0.082 C 
ATOM      8  N   UNL     1      -3.618 -11.159   3.943  0.00  0.00    +0.379 N 
ATOM      9  C   UNL     1      -2.174 -10.973   4.126  0.00  0.00    -0.082 C 
ATOM     10  C   UNL     1      -1.705  -9.765   3.310  0.00  0.00    -0.010 C 
ATOM     11  C   UNL     1       1.276 -10.928   0.682  0.00  0.00    +0.265 C 
ATOM     12  O   UNL     1       2.148 -10.230   0.205  0.00  0.00    -0.268 OA
ATOM     13  H   UNL     1      -4.101 -10.312   4.202  0.00  0.00    -0.086 HD
ATOM     14  H   UNL     1      -3.936 -11.917   4.529  0.00  0.00    -0.086 HD
ENDROOT
BRANCH  11  15
ATOM     15  C   UNL     1       1.622 -12.237   1.286  0.00  0.00    +0.126 A 
ATOM     16  C   UNL     1       2.971 -12.602   1.406  0.00  0.00    +0.033 A 
ATOM     17  C   UNL     1       3.303 -13.803   1.961  0.00  0.00    +0.012 A 
ATOM     18  C   UNL     1       2.263 -14.645   2.399  0.00  0.00    +0.000 A 
ATOM     19  C   UNL     1       2.532 -15.894   2.980  0.00  0.00    +0.010 A 
ATOM     20  C   UNL     1       1.500 -16.681   3.393  0.00  0.00    +0.001 A 
ATOM     21  C   UNL     1       0.178 -16.264   3.248  0.00  0.00    +0.002 A 
ATOM     22  C   UNL     1      -0.121 -15.060   2.690  0.00  0.00    +0.028 A 
ATOM     23  C   UNL     1       0.918 -14.217   2.250  0.00  0.00    +0.072 A 
ATOM     24  N   UNL     1       0.654 -13.030   1.704  0.00  0.00    -0.242 NA
ENDBRANCH  11  15
BRANCH   1  26
ATOM     25  N   UNL     1      -1.789  -6.716   2.367  0.00  0.00    -0.305 N 
ATOM     26  C   UNL     1      -1.016  -7.711   1.889  0.00  0.00    +0.219 C 
ATOM     27  O   UNL     1       0.162  -7.753   2.172  0.00  0.00    -0.275 OA
ATOM     28  H   UNL     1      -2.732  -6.682   2.140  0.00  0.00    +0.149 HD
BRANCH  25  29
ATOM     29  C   UNL     1      -1.206  -5.684   3.228  0.00  0.00    +0.136 C 
ATOM     30  C   UNL     1      -0.584  -4.587   2.362  0.00  0.00    +0.036 C 
BRANCH  29  39
ATOM     31  C   UNL     1      -5.522  -2.441   8.351  0.00  0.00    +0.044 C 
ATOM     32  C   UNL     1      -5.062  -3.151   7.103  0.00  0.00    -0.048 A 
ATOM     33  C   UNL     1      -5.989  -3.525   6.141  0.00  0.00    +0.005 A 
ATOM     34  C   UNL     1      -5.593  -4.169   5.004  0.00  0.00    +0.030 A 
ATOM     35  C   UNL     1      -4.240  -4.457   4.803  0.00  0.00    +0.089 A 
ATOM     36  C   UNL     1      -3.300  -4.078   5.776  0.00  0.00    +0.067 A 
ATOM     37  C   UNL     1      -3.722  -3.419   6.924  0.00  0.00    +0.031 A 
ATOM     38  N   UNL     1      -2.072  -4.491   5.301  0.00  0.00    -0.340 N 
ATOM     39  C   UNL     1      -2.283  -5.088   4.097  0.00  0.00    +0.128 A 
ATOM     40  N   UNL     1      -3.551  -5.068   3.805  0.00  0.00    -0.231 NA
ATOM     41  H   UNL     1      -1.216  -4.376   5.744  0.00  0.00    +0.167 HD
ENDBRANCH  29  39
ENDBRANCH  25  29
ENDBRANCH   1  26
TORSDOF 4
