REMARK  Name = ZINC39304624
REMARK  7 active torsions:
REMARK  status: ('A' for Active; 'I' for Inactive)
REMARK    1  A    between atoms: N_11  and  C_12
REMARK    2  A    between atoms: N_15  and  C_18
REMARK    3  A    between atoms: C_18  and  C_19
REMARK    4  A    between atoms: C_19  and  C_21
REMARK    5  A    between atoms: C_19  and  O_30
REMARK    6  A    between atoms: C_21  and  O_22
REMARK    7  A    between atoms: O_22  and  C_23
REMARK                            x       y       z     vdW  Elec       q    Type
REMARK                         _______ _______ _______ _____ _____    ______ ____
ROOT
ATOM      1  C   UNL     1       4.944  -0.309  -0.316  0.00  0.00    +0.089 C 
ATOM      2  C   UNL     1       5.612  -0.995  -1.511  0.00  0.00    +0.006 C 
ATOM      3  C   UNL     1       7.130  -0.841  -1.397  0.00  0.00    -0.077 C 
ATOM      4  N   UNL     1       7.597  -1.461  -0.151  0.00  0.00    +0.382 N 
ATOM      5  C   UNL     1       7.016  -0.762   1.002  0.00  0.00    -0.077 C 
ATOM      6  C   UNL     1       5.493  -0.914   0.980  0.00  0.00    +0.006 C 
ATOM      7  H   UNL     1       7.315  -2.430  -0.133  0.00  0.00    -0.082 HD
ENDROOT
BRANCH   1  18
ATOM      8  C   UNL     1       0.202   1.975  -0.606  0.00  0.00    +0.002 A 
ATOM      9  C   UNL     1       1.432   2.608  -0.567  0.00  0.00    +0.002 A 
ATOM     10  C   UNL     1       2.595   1.867  -0.490  0.00  0.00    +0.028 A 
ATOM     11  C   UNL     1       2.530   0.482  -0.454  0.00  0.00    +0.070 A 
ATOM     12  C   UNL     1       1.288  -0.157  -0.494  0.00  0.00    +0.067 A 
ATOM     13  C   UNL     1       0.127   0.596  -0.570  0.00  0.00    +0.028 A 
ATOM     14  N   UNL     1       1.539  -1.526  -0.442  0.00  0.00    -0.306 N 
ATOM     15  H   UNL     1       0.868  -2.226  -0.453  0.00  0.00    +0.170 HD
ATOM     16  C   UNL     1       2.870  -1.711  -0.373  0.00  0.00    +0.328 A 
ATOM     17  O   UNL     1       3.425  -2.793  -0.316  0.00  0.00    -0.247 OA
ATOM     18  N   UNL     1       3.495  -0.519  -0.378  0.00  0.00    -0.289 N 
ENDBRANCH   1  18
BRANCH   4  19
ATOM     19  C   UNL     1       9.062  -1.379  -0.083  0.00  0.00    -0.044 C 
BRANCH  19  20
ATOM     20  C   UNL     1       9.673  -2.239  -1.192  0.00  0.00    +0.135 C 
BRANCH  20  21
ATOM     21  O   UNL     1       9.268  -3.598  -1.018  0.00  0.00    -0.390 OA
ATOM     22  H   UNL     1       9.540  -3.985  -0.174  0.00  0.00    +0.210 HD
ENDBRANCH  20  21
BRANCH  20  23
ATOM     23  C   UNL     1      11.199  -2.148  -1.125  0.00  0.00    +0.258 C 
BRANCH  23  24
ATOM     24  O   UNL     1      11.766  -2.856  -2.229  0.00  0.00    -0.489 OA
BRANCH  24  25
ATOM     25  C   UNL     1      13.123  -2.874  -2.319  0.00  0.00    +0.121 A 
ATOM     26  C   UNL     1      13.890  -2.229  -1.361  0.00  0.00    +0.048 A 
ATOM     27  C   UNL     1      15.269  -2.248  -1.453  0.00  0.00    +0.042 A 
ATOM     28  C   UNL     1      15.884  -2.910  -2.502  0.00  0.00    +0.124 A 
ATOM     29  C   UNL     1      15.119  -3.555  -3.459  0.00  0.00    +0.042 A 
ATOM     30  C   UNL     1      13.740  -3.543  -3.365  0.00  0.00    +0.048 A 
ATOM     31  F   UNL     1      17.232  -2.928  -2.591  0.00  0.00    -0.205 F 
ENDBRANCH  24  25
ENDBRANCH  23  24
ENDBRANCH  20  23
ENDBRANCH  19  20
ENDBRANCH   4  19
TORSDOF 7
