REMARK  Name = ZINC14358835
REMARK  8 active torsions:
REMARK  status: ('A' for Active; 'I' for Inactive)
REMARK    1  A    between atoms: C_4  and  N_7
REMARK    2  A    between atoms: C_9  and  C_17
REMARK    3  A    between atoms: C_10  and  C_12
REMARK    4  A    between atoms: C_18  and  C_19
REMARK    5  A    between atoms: C_19  and  O_21
REMARK    6  A    between atoms: O_21  and  C_22
REMARK    7  A    between atoms: C_22  and  C_23
REMARK    8  A    between atoms: C_25  and  N_33
REMARK                            x       y       z     vdW  Elec       q    Type
REMARK                         _______ _______ _______ _____ _____    ______ ____
ROOT
ATOM      1  C   UNL     1       5.298   6.670  -0.010  0.00  0.00    +0.018 C 
ATOM      2  C   UNL     1       4.237   5.829  -0.005  0.00  0.00    +0.092 C 
ENDROOT
BRANCH   1   5
ATOM      3  N   UNL     1       4.113  10.100   0.022  0.00  0.00    -0.239 N 
ATOM      4  C   UNL     1       3.867   8.778   0.011  0.00  0.00    +0.123 A 
ATOM      5  C   UNL     1       5.083   8.120   0.001  0.00  0.00    +0.021 A 
ATOM      6  C   UNL     1       6.117   9.164  -0.003  0.00  0.00    +0.107 A 
ATOM      7  N   UNL     1       5.493  10.323   0.010  0.00  0.00    -0.165 NA
BRANCH   3  11
ATOM      8  C   UNL     1       1.203  13.083   0.066  0.00  0.00    +0.000 A 
ATOM      9  C   UNL     1       2.543  13.426   0.057  0.00  0.00    +0.002 A 
ATOM     10  C   UNL     1       3.510  12.440   0.042  0.00  0.00    +0.028 A 
ATOM     11  C   UNL     1       3.135  11.102   0.037  0.00  0.00    +0.065 A 
ATOM     12  C   UNL     1       1.789  10.761   0.042  0.00  0.00    +0.028 A 
ATOM     13  C   UNL     1       0.827  11.752   0.061  0.00  0.00    +0.002 A 
ENDBRANCH   3  11
BRANCH   6  14
ATOM     14  C   UNL     1       7.578   8.953  -0.018  0.00  0.00    +0.040 A 
ATOM     15  C   UNL     1       8.551   9.693  -0.637  0.00  0.00    +0.018 A 
ATOM     16  C   UNL     1       9.865   9.301  -0.505  0.00  0.00    +0.008 A 
ATOM     17  C   UNL     1      10.154   8.191   0.223  0.00  0.00    +0.046 A 
ATOM     18  S   UNL     1       8.536   7.663   0.761  0.00  0.00    -0.095 S 
ENDBRANCH   6  14
ENDBRANCH   1   5
BRANCH   2  19
ATOM     19  C   UNL     1       4.444   4.429  -0.016  0.00  0.00    +0.332 C 
ATOM     20  O   UNL     1       5.576   3.982  -0.030  0.00  0.00    -0.246 OA
BRANCH  19  21
ATOM     21  O   UNL     1       3.387   3.590  -0.011  0.00  0.00    -0.457 OA
BRANCH  21  22
ATOM     22  C   UNL     1       3.670   2.190  -0.022  0.00  0.00    +0.271 C 
BRANCH  22  23
ATOM     23  C   UNL     1       2.377   1.416  -0.014  0.00  0.00    +0.034 A 
ATOM     24  C   UNL     1       1.170   2.088   0.002  0.00  0.00    +0.043 A 
ATOM     25  C   UNL     1      -0.017   1.378   0.010  0.00  0.00    +0.127 A 
ATOM     26  C   UNL     1       0.002  -0.004   0.002  0.00  0.00    +0.042 A 
ATOM     27  C   UNL     1       1.207  -0.681  -0.013  0.00  0.00    +0.022 A 
ATOM     28  C   UNL     1       2.398   0.028  -0.023  0.00  0.00    +0.135 A 
ATOM     29  O   UNL     1       3.591  -0.625  -0.046  0.00  0.00    -0.465 OA
ATOM     30  C   UNL     1       3.576  -2.010   0.311  0.00  0.00    +0.394 C 
ATOM     31  O   UNL     1       2.512  -2.654  -0.400  0.00  0.00    -0.339 OA
ATOM     32  C   UNL     1       1.216  -2.189  -0.013  0.00  0.00    +0.202 C 
BRANCH  25  33
ATOM     33  N   UNL     1      -1.309   2.100   0.020  0.00  0.00    +0.056 N 
ATOM     34  O   UNL     1      -2.355   1.476   0.021  0.00  0.00    -0.126 OA
ATOM     35  O   UNL     1      -1.326   3.318   0.026  0.00  0.00    -0.126 OA
ENDBRANCH  25  33
ENDBRANCH  22  23
ENDBRANCH  21  22
ENDBRANCH  19  21
ENDBRANCH   2  19
TORSDOF 8
