REMARK  Name = ZINC32696939
REMARK  6 active torsions:
REMARK  status: ('A' for Active; 'I' for Inactive)
REMARK    1  A    between atoms: C_3  and  C_9
REMARK    2  A    between atoms: C_9  and  S_10
REMARK    3  A    between atoms: S_10  and  C_11
REMARK    4  A    between atoms: C_17  and  C_19
REMARK    5  A    between atoms: C_19  and  S_20
REMARK    6  A    between atoms: S_20  and  C_21
REMARK                            x       y       z     vdW  Elec       q    Type
REMARK                         _______ _______ _______ _____ _____    ______ ____
ROOT
ATOM      1  C   UNL     1       1.136  -0.689  -0.013  0.00  0.00    +0.160 A 
ATOM      2  N   UNL     1       0.002  -0.004   0.002  0.00  0.00    -0.133 NA
ATOM      3  N   UNL     1      -0.015   1.257   0.009  0.00  0.00    -0.125 NA
ATOM      4  C   UNL     1       1.097   1.974   0.002  0.00  0.00    +0.189 A 
ATOM      5  S   UNL     1       2.313   0.660  -0.017  0.00  0.00    -0.024 S 
ATOM      6  N   UNL     1       1.272   3.355   0.008  0.00  0.00    -0.263 N 
ATOM      7  C   UNL     1       0.198   4.170   0.022  0.00  0.00    +0.229 C 
ATOM      8  O   UNL     1      -0.920   3.700   0.031  0.00  0.00    -0.275 OA
ATOM      9  H   UNL     1       2.286   3.781  -0.000  0.00  0.00    +0.157 HD
ENDROOT
BRANCH   1  10
ATOM     10  S   UNL     1       1.408  -2.430  -0.025  0.00  0.00    -0.092 S 
BRANCH  10  11
ATOM     11  C   UNL     1      -0.263  -3.135  -0.013  0.00  0.00    +0.113 C 
BRANCH  11  14
ATOM     12  C   UNL     1      -0.040  -6.716   1.163  0.00  0.00    +0.020 A 
ATOM     13  C   UNL     1      -0.121  -5.336   1.171  0.00  0.00    +0.007 A 
ATOM     14  C   UNL     1      -0.174  -4.639  -0.022  0.00  0.00    -0.019 A 
ATOM     15  C   UNL     1      -0.150  -5.324  -1.224  0.00  0.00    +0.046 A 
ATOM     16  C   UNL     1      -0.064  -6.704  -1.233  0.00  0.00    +0.040 A 
ATOM     17  C   UNL     1      -0.011  -7.401  -0.039  0.00  0.00    +0.042 A 
ATOM     18 CL   UNL     1       0.092  -9.133  -0.048  0.00  0.00    -0.083 Cl
ATOM     19 CL   UNL     1      -0.224  -4.449  -2.722  0.00  0.00    -0.083 Cl
ENDBRANCH  11  14
ENDBRANCH  10  11
ENDBRANCH   1  10
BRANCH   7  20
ATOM     20  C   UNL     1       0.387   5.665   0.028  0.00  0.00    +0.172 C 
BRANCH  20  21
ATOM     21  S   UNL     1      -1.233   6.480   0.048  0.00  0.00    -0.088 S 
BRANCH  21  22
ATOM     22  C   UNL     1      -0.847   8.199   0.053  0.00  0.00    +0.160 A 
ATOM     23  N   UNL     1       0.332   8.790   0.044  0.00  0.00    -0.133 NA
ATOM     24  N   UNL     1       0.409  10.164   0.050  0.00  0.00    -0.125 NA
ATOM     25  C   UNL     1      -0.697  10.883   0.064  0.00  0.00    +0.180 A 
ATOM     26  S   UNL     1      -1.946   9.606   0.064  0.00  0.00    -0.025 S 
ATOM     27  N   UNL     1      -0.849  12.264   0.072  0.00  0.00    -0.336 N 
ATOM     28  H   UNL     1      -1.856  12.707   0.084  0.00  0.00    +0.144 HD
ATOM     29  H   UNL     1       0.038  12.915   0.066  0.00  0.00    +0.144 HD
ENDBRANCH  21  22
ENDBRANCH  20  21
ENDBRANCH   7  20
TORSDOF 6
