REMARK  Name = ZINC13564732
REMARK  10 active torsions:
REMARK  status: ('A' for Active; 'I' for Inactive)
REMARK    1  A    between atoms: C_1  and  O_2
REMARK    2  A    between atoms: O_2  and  C_3
REMARK    3  A    between atoms: C_6  and  C_11
REMARK    4  A    between atoms: C_8  and  O_9
REMARK    5  A    between atoms: O_9  and  C_10
REMARK    6  A    between atoms: C_14  and  C_27
REMARK    7  A    between atoms: N_19  and  C_21
REMARK    8  A    between atoms: C_27  and  N_28
REMARK    9  A    between atoms: N_28  and  C_29
REMARK   10  A    between atoms: C_29  and  C_30
REMARK                            x       y       z     vdW  Elec       q    Type
REMARK                         _______ _______ _______ _____ _____    ______ ____
ROOT
ATOM      1  C   UNL     1       2.631  -2.466  -4.302  0.00  0.00    +0.102 A 
ATOM      2  C   UNL     1       2.893  -1.849  -5.540  0.00  0.00    +0.045 A 
ATOM      3  C   UNL     1       2.792  -0.518  -5.995  0.00  0.00    +0.020 A 
ATOM      4  C   UNL     1       3.131  -0.246  -7.285  0.00  0.00    +0.001 A 
ATOM      5  C   UNL     1       3.570  -1.291  -8.123  0.00  0.00    +0.252 A 
ATOM      6  O   UNL     1       3.874  -1.044  -9.282  0.00  0.00    -0.268 OA
ATOM      7  N   UNL     1       3.659  -2.545  -7.674  0.00  0.00    -0.307 N 
ATOM      8  C   UNL     1       3.341  -2.854  -6.430  0.00  0.00    +0.145 A 
ATOM      9  N   UNL     1       3.344  -4.045  -5.733  0.00  0.00    -0.215 N 
ATOM     10  N   UNL     1       2.911  -3.793  -4.425  0.00  0.00    -0.164 NA
ATOM     11  H   UNL     1       3.964  -3.243  -8.274  0.00  0.00    +0.170 HD
ENDROOT
BRANCH   1  15
ATOM     12  C   UNL     1       1.226  -0.532  -0.796  0.00  0.00    +0.162 A 
ATOM     13  C   UNL     1       0.643  -1.722  -1.213  0.00  0.00    +0.050 A 
ATOM     14  C   UNL     1       1.095  -2.353  -2.350  0.00  0.00    +0.014 A 
ATOM     15  C   UNL     1       2.146  -1.795  -3.089  0.00  0.00    +0.006 A 
ATOM     16  C   UNL     1       2.734  -0.595  -2.667  0.00  0.00    +0.059 A 
ATOM     17  C   UNL     1       2.270   0.033  -1.529  0.00  0.00    +0.162 A 
BRANCH  12  19
ATOM     18  C   UNL     1      -0.295  -0.548   1.030  0.00  0.00    +0.277 C 
ATOM     19  O   UNL     1       0.776   0.085   0.326  0.00  0.00    -0.491 OA
ENDBRANCH  12  19
BRANCH  17  20
ATOM     20  O   UNL     1       2.834   1.201  -1.120  0.00  0.00    -0.491 OA
ATOM     21  C   UNL     1       3.898   1.723  -1.919  0.00  0.00    +0.277 C 
ENDBRANCH  17  20
ENDBRANCH   1  15
BRANCH   9  22
ATOM     22  C   UNL     1       3.719  -5.291  -6.244  0.00  0.00    +0.068 A 
ATOM     23  C   UNL     1       4.894  -5.418  -6.973  0.00  0.00    +0.028 A 
ATOM     24  C   UNL     1       5.263  -6.650  -7.476  0.00  0.00    +0.002 A 
ATOM     25  C   UNL     1       4.463  -7.757  -7.255  0.00  0.00    +0.000 A 
ATOM     26  C   UNL     1       3.292  -7.633  -6.529  0.00  0.00    +0.002 A 
ATOM     27  C   UNL     1       2.921  -6.405  -6.018  0.00  0.00    +0.028 A 
ENDBRANCH   9  22
BRANCH   4  28
ATOM     28  C   UNL     1       3.037   1.162  -7.813  0.00  0.00    -0.041 C 
BRANCH  28  29
ATOM     29  N   UNL     1       4.348   1.815  -7.701  0.00  0.00    +0.384 N 
ATOM     30  H   UNL     1       4.631   1.838  -6.733  0.00  0.00    -0.085 HD
ATOM     31  H   UNL     1       5.028   1.299  -8.238  0.00  0.00    -0.085 HD
BRANCH  29  32
ATOM     32  C   UNL     1       4.257   3.188  -8.216  0.00  0.00    -0.046 C 
BRANCH  32  33
ATOM     33  C   UNL     1       5.602   3.858  -8.101  0.00  0.00    -0.061 A 
ATOM     34  C   UNL     1       5.931   4.552  -6.951  0.00  0.00    +0.005 A 
ATOM     35  C   UNL     1       7.163   5.168  -6.841  0.00  0.00    +0.050 A 
ATOM     36  C   UNL     1       8.072   5.092  -7.883  0.00  0.00    +0.166 A 
ATOM     37  C   UNL     1       7.741   4.393  -9.042  0.00  0.00    +0.166 A 
ATOM     38  C   UNL     1       6.506   3.773  -9.143  0.00  0.00    +0.051 A 
ATOM     39  O   UNL     1       8.792   4.465  -9.910  0.00  0.00    -0.453 OA
ATOM     40  C   UNL     1       9.607   5.554  -9.438  0.00  0.00    +0.466 C 
ATOM     41  O   UNL     1       9.331   5.601  -8.026  0.00  0.00    -0.453 OA
ENDBRANCH  32  33
ENDBRANCH  29  32
ENDBRANCH  28  29
ENDBRANCH   4  28
TORSDOF 8
