REMARK  Name = ZINC09234124
REMARK  4 active torsions:
REMARK  status: ('A' for Active; 'I' for Inactive)
REMARK    1  A    between atoms: C_1  and  C_2
REMARK    2  A    between atoms: C_2  and  C_3
REMARK    3  A    between atoms: N_24  and  C_27
REMARK    4  A    between atoms: C_29  and  C_34
REMARK                            x       y       z     vdW  Elec       q    Type
REMARK                         _______ _______ _______ _____ _____    ______ ____
ROOT
ATOM      1  C   UNL     1      -4.619   4.220   2.640  0.00  0.00    -0.026 A 
ATOM      2  C   UNL     1      -4.910   2.918   2.993  0.00  0.00    +0.005 A 
ATOM      3  C   UNL     1      -3.965   1.922   2.833  0.00  0.00    +0.001 A 
ATOM      4  C   UNL     1      -2.719   2.232   2.315  0.00  0.00    +0.004 A 
ATOM      5  C   UNL     1      -2.424   3.529   1.960  0.00  0.00    -0.027 A 
ATOM      6  C   UNL     1      -3.368   4.540   2.117  0.00  0.00    +0.039 A 
ATOM      7  N   UNL     1      -2.842   5.762   1.692  0.00  0.00    -0.286 N 
ATOM      8  C   UNL     1      -1.577   5.643   1.247  0.00  0.00    +0.212 C 
ATOM      9  O   UNL     1      -0.873   6.534   0.819  0.00  0.00    -0.277 OA
ATOM     10  C   UNL     1      -1.204   4.191   1.384  0.00  0.00    +0.053 C 
ATOM     11  C   UNL     1      -0.823   3.582   0.030  0.00  0.00    +0.089 C 
ATOM     12  C   UNL     1       0.730   3.603   0.012  0.00  0.00    +0.074 C 
ATOM     13  C   UNL     1       1.141   4.226   1.360  0.00  0.00    -0.054 C 
ATOM     14  C   UNL     1       0.069   2.603   2.690  0.00  0.00    -0.076 C 
ATOM     15  C   UNL     1       1.578   2.341   2.867  0.00  0.00    -0.020 C 
ATOM     16  C   UNL     1       2.276   3.392   1.981  0.00  0.00    -0.016 C 
ATOM     17  C   UNL     1       1.099   2.137   0.003  0.00  0.00    +0.228 C 
ATOM     18  O   UNL     1       2.229   1.699  -0.009  0.00  0.00    -0.275 OA
ATOM     19  N   UNL     1      -0.017   1.398   0.010  0.00  0.00    -0.209 N 
ATOM     20  C   UNL     1      -1.152   2.106   0.019  0.00  0.00    +0.229 C 
ATOM     21  O   UNL     1      -2.270   1.638   0.020  0.00  0.00    -0.275 OA
ATOM     22  H   UNL     1      -3.332   6.599   1.714  0.00  0.00    +0.155 HD
ATOM     23  N   UNL     1      -0.007   3.998   2.208  0.00  0.00    +0.395 N 
ATOM     24  H   UNL     1      -0.011   4.649   3.002  0.00  0.00    -0.079 HD
ENDROOT
BRANCH  19  25
ATOM     25  C   UNL     1       0.002  -0.004   0.002  0.00  0.00    +0.063 A 
ATOM     26  C   UNL     1       0.028  -0.706   1.199  0.00  0.00    +0.037 A 
ATOM     27  C   UNL     1       0.042  -2.087   1.189  0.00  0.00    +0.057 A 
ATOM     28  C   UNL     1       0.040  -2.771  -0.013  0.00  0.00    +0.014 A 
ATOM     29  C   UNL     1       0.020  -2.076  -1.208  0.00  0.00    +0.022 A 
ATOM     30  C   UNL     1       0.001  -0.694  -1.204  0.00  0.00    +0.063 A 
ATOM     31 CL   UNL     1      -0.026   0.179  -2.704  0.00  0.00    -0.082 Cl
BRANCH  27  32
ATOM     32  C   UNL     1       0.064  -2.849   2.489  0.00  0.00    +0.417 C 
ATOM     33  F   UNL     1       0.081  -4.223   2.224  0.00  0.00    -0.166 F 
ATOM     34  F   UNL     1       1.209  -2.500   3.214  0.00  0.00    -0.166 F 
ATOM     35  F   UNL     1      -1.076  -2.532   3.235  0.00  0.00    -0.166 F 
ENDBRANCH  27  32
ENDBRANCH  19  25
BRANCH   1  37
ATOM     36  C   UNL     1      -6.418   5.497   1.508  0.00  0.00    +0.009 C 
ATOM     37  C   UNL     1      -5.656   5.297   2.820  0.00  0.00    +0.033 C 
ENDBRANCH   1  37
TORSDOF 3
