REMARK  Name = ZINC08745060
REMARK  5 active torsions:
REMARK  status: ('A' for Active; 'I' for Inactive)
REMARK    1  A    between atoms: C_1  and  C_2
REMARK    2  A    between atoms: C_2  and  C_3
REMARK    3  A    between atoms: C_12  and  C_13
REMARK    4  A    between atoms: C_16  and  C_29
REMARK    5  A    between atoms: C_21  and  C_23
REMARK                            x       y       z     vdW  Elec       q    Type
REMARK                         _______ _______ _______ _____ _____    ______ ____
ROOT
ATOM      1  C   UNL     1       0.910  -2.691  -0.387  0.00  0.00    +0.089 C 
ATOM      2  N   UNL     1       1.706  -1.740  -0.040  0.00  0.00    -0.166 NA
ATOM      3  N   UNL     1       1.318  -0.404  -0.018  0.00  0.00    -0.188 N 
ATOM      4  C   UNL     1       2.045   0.742  -0.015  0.00  0.00    +0.184 A 
ATOM      5  N   UNL     1       1.196   1.738   0.000  0.00  0.00    -0.129 NA
ATOM      6  N   UNL     1      -0.015   1.293   0.009  0.00  0.00    -0.121 NA
ATOM      7  C   UNL     1       0.002  -0.004   0.002  0.00  0.00    +0.213 A 
ATOM      8  S   UNL     1      -1.322  -1.168   0.018  0.00  0.00    -0.070 S 
ATOM      9  C   UNL     1      -0.498  -2.515  -0.875  0.00  0.00    +0.135 C 
ENDROOT
BRANCH   1  19
ATOM     10  C   UNL     1       3.943  -6.566   0.432  0.00  0.00    -0.024 A 
ATOM     11  C   UNL     1       5.048  -5.869   0.871  0.00  0.00    +0.005 A 
ATOM     12  C   UNL     1       5.023  -4.484   0.956  0.00  0.00    +0.001 A 
ATOM     13  C   UNL     1       3.890  -3.786   0.600  0.00  0.00    +0.010 A 
ATOM     14  C   UNL     1       2.768  -4.477   0.149  0.00  0.00    +0.009 A 
ATOM     15  C   UNL     1       2.789  -5.880   0.069  0.00  0.00    +0.050 A 
ATOM     16  N   UNL     1       1.557  -6.286  -0.397  0.00  0.00    -0.360 N 
ATOM     17  H   UNL     1       1.299  -7.209  -0.550  0.00  0.00    +0.165 HD
ATOM     18  C   UNL     1       0.753  -5.208  -0.610  0.00  0.00    +0.093 A 
ATOM     19  C   UNL     1       1.424  -4.066  -0.295  0.00  0.00    +0.024 A 
BRANCH  10  21
ATOM     20  C   UNL     1       4.360  -8.490  -1.075  0.00  0.00    +0.009 C 
ATOM     21  C   UNL     1       3.985  -8.070   0.347  0.00  0.00    +0.034 C 
ENDBRANCH  10  21
ENDBRANCH   1  19
BRANCH   9  22
ATOM     22  C   UNL     1      -0.476  -2.192  -2.347  0.00  0.00    -0.028 A 
ATOM     23  C   UNL     1       0.177  -1.060  -2.797  0.00  0.00    +0.005 A 
ATOM     24  C   UNL     1       0.201  -0.766  -4.147  0.00  0.00    +0.000 A 
ATOM     25  C   UNL     1      -0.436  -1.601  -5.047  0.00  0.00    +0.000 A 
ATOM     26  C   UNL     1      -1.093  -2.731  -4.597  0.00  0.00    +0.000 A 
ATOM     27  C   UNL     1      -1.113  -3.026  -3.247  0.00  0.00    +0.005 A 
ENDBRANCH   9  22
BRANCH   4  28
ATOM     28  C   UNL     1       3.549   0.847  -0.028  0.00  0.00    +0.188 C 
ATOM     29  C   UNL     1       4.042   1.340  -1.411  0.00  0.00    +0.042 C 
ATOM     30  C   UNL     1       5.406   1.976  -1.029  0.00  0.00    +0.031 C 
ATOM     31  C   UNL     1       5.118   2.549   0.376  0.00  0.00    +0.161 C 
ATOM     32  O   UNL     1       3.986   1.849   0.905  0.00  0.00    -0.369 OA
ENDBRANCH   4  28
TORSDOF 4
