REMARK  Name = ZINC04934725
REMARK  5 active torsions:
REMARK  status: ('A' for Active; 'I' for Inactive)
REMARK    1  A    between atoms: C_1  and  C_2
REMARK    2  A    between atoms: C_2  and  O_3
REMARK    3  A    between atoms: O_3  and  C_4
REMARK    4  A    between atoms: C_7  and  C_10
REMARK    5  A    between atoms: C_21  and  N_45
REMARK                            x       y       z     vdW  Elec       q    Type
REMARK                         _______ _______ _______ _____ _____    ______ ____
ROOT
ATOM      1  C   UNL     1       2.452   3.935  -0.000  0.00  0.00    +0.190 C 
ATOM      2  N   UNL     1       2.257   5.215   0.705  0.00  0.00    -0.316 N 
ATOM      3  C   UNL     1       2.353   5.186   2.072  0.00  0.00    +0.080 A 
ATOM      4  C   UNL     1       3.066   4.197   2.767  0.00  0.00    +0.068 A 
ATOM      5  C   UNL     1       3.072   4.323   4.213  0.00  0.00    -0.027 A 
ATOM      6  C   UNL     1       2.382   5.373   4.715  0.00  0.00    -0.021 A 
ATOM      7  S   UNL     1       1.725   6.207   3.296  0.00  0.00    -0.080 S 
ATOM      8  C   UNL     1       2.226   5.727   6.160  0.00  0.00    -0.036 C 
ATOM      9  C   UNL     1       3.942   4.055   6.516  0.00  0.00    -0.074 C 
ATOM     10  C   UNL     1       3.793   3.366   5.157  0.00  0.00    +0.018 C 
ATOM     11  C   UNL     1       2.675   4.903   8.397  0.00  0.00    -0.096 C 
ATOM     12  C   UNL     1       3.726   3.140   1.967  0.00  0.00    +0.248 C 
ATOM     13  O   UNL     1       4.453   2.313   2.486  0.00  0.00    -0.270 OA
ATOM     14  N   UNL     1       3.489   3.131   0.638  0.00  0.00    -0.289 N 
ATOM     15  H   UNL     1       2.071   6.038   0.225  0.00  0.00    +0.149 HD
ATOM     16  H   UNL     1       4.037   2.560   0.078  0.00  0.00    +0.151 HD
ATOM     17  N   UNL     1       2.622   4.545   6.963  0.00  0.00    +0.381 N 
ATOM     18  H   UNL     1       1.927   3.802   6.830  0.00  0.00    -0.082 HD
ENDROOT
BRANCH   1  22
ATOM     19  C   UNL     1      -1.223   1.754   0.017  0.00  0.00    +0.121 A 
ATOM     20  C   UNL     1      -0.013   1.076   0.008  0.00  0.00    +0.046 A 
ATOM     21  C   UNL     1       1.174   1.783   0.000  0.00  0.00    +0.010 A 
ATOM     22  C   UNL     1       1.156   3.166   0.007  0.00  0.00    -0.009 A 
ATOM     23  C   UNL     1      -0.049   3.844   0.022  0.00  0.00    +0.010 A 
ATOM     24  C   UNL     1      -1.238   3.141   0.029  0.00  0.00    +0.046 A 
BRANCH  19  25
ATOM     25  O   UNL     1      -2.392   1.060   0.020  0.00  0.00    -0.492 OA
BRANCH  25  27
ATOM     26  C   UNL     1      -4.801   0.877   0.030  0.00  0.00    +0.048 C 
ATOM     27  C   UNL     1      -3.599   1.824   0.029  0.00  0.00    +0.225 C 
ENDBRANCH  25  27
ENDBRANCH  19  25
ENDBRANCH   1  22
TORSDOF 3
