REMARK  Name = ZINC01382007
REMARK  13 active torsions:
REMARK  status: ('A' for Active; 'I' for Inactive)
REMARK    1  A    between atoms: C_1  and  C_2
REMARK    2  A    between atoms: C_6  and  C_15
REMARK    3  A    between atoms: C_13  and  C_14
REMARK    4  A    between atoms: C_15  and  C_17
REMARK    5  A    between atoms: C_15  and  N_28
REMARK    6  A    between atoms: N_21  and  C_22
REMARK    7  A    between atoms: C_22  and  C_23
REMARK    8  A    between atoms: N_28  and  C_29
REMARK    9  A    between atoms: N_28  and  C_38
REMARK   10  A    between atoms: C_29  and  C_30
REMARK   11  A    between atoms: C_33  and  O_36
REMARK   12  A    between atoms: O_36  and  C_37
REMARK   13  A    between atoms: C_38  and  C_39
REMARK                            x       y       z     vdW  Elec       q    Type
REMARK                         _______ _______ _______ _____ _____    ______ ____
ROOT
ATOM      1  C   UNL     1      -0.221  -5.018  -3.623  0.00  0.00    +0.163 C 
ENDROOT
BRANCH   1   7
ATOM      2  C   UNL     1      -2.115   2.119  -2.580  0.00  0.00    +0.044 C 
ATOM      3  C   UNL     1      -1.842   0.740  -2.039  0.00  0.00    -0.047 A 
ATOM      4  C   UNL     1      -1.487  -0.265  -2.895  0.00  0.00    +0.013 A 
ATOM      5  C   UNL     1      -1.233  -1.546  -2.393  0.00  0.00    -0.001 A 
ATOM      6  C   UNL     1      -0.850  -2.645  -3.281  0.00  0.00    +0.021 A 
ATOM      7  C   UNL     1      -0.616  -3.865  -2.737  0.00  0.00    +0.042 A 
ATOM      8  C   UNL     1      -0.743  -4.059  -1.345  0.00  0.00    +0.254 A 
ATOM      9  O   UNL     1      -0.528  -5.164  -0.877  0.00  0.00    -0.268 OA
ATOM     10  N   UNL     1      -1.094  -3.056  -0.521  0.00  0.00    -0.322 N 
ATOM     11  H   UNL     1      -1.171  -3.224   0.431  0.00  0.00    +0.169 HD
ATOM     12  C   UNL     1      -1.345  -1.792  -1.011  0.00  0.00    +0.049 A 
ATOM     13  C   UNL     1      -1.709  -0.754  -0.160  0.00  0.00    +0.030 A 
ATOM     14  C   UNL     1      -1.948   0.502  -0.676  0.00  0.00    -0.046 A 
ATOM     15  C   UNL     1      -2.335   1.627   0.249  0.00  0.00    +0.044 C 
ENDBRANCH   1   7
BRANCH   1  16
ATOM     16  C   UNL     1       1.181  -5.455  -3.283  0.00  0.00    +0.174 A 
ATOM     17  N   UNL     1       1.551  -6.155  -2.238  0.00  0.00    -0.111 NA
ATOM     18  N   UNL     1       2.826  -6.323  -2.303  0.00  0.00    -0.023 NA
ATOM     19  N   UNL     1       3.280  -5.750  -3.363  0.00  0.00    -0.043 NA
ATOM     20  N   UNL     1       2.295  -5.208  -3.996  0.00  0.00    -0.220 N 
BRANCH  20  21
ATOM     21  C   UNL     1       2.375  -4.460  -5.254  0.00  0.00    +0.221 C 
BRANCH  21  22
ATOM     22  C   UNL     1       2.602  -3.000  -4.957  0.00  0.00    +0.126 A 
ATOM     23  C   UNL     1       3.799  -2.399  -4.834  0.00  0.00    +0.046 A 
ATOM     24  C   UNL     1       3.546  -1.036  -4.557  0.00  0.00    +0.041 A 
ATOM     25  C   UNL     1       2.209  -0.886  -4.526  0.00  0.00    +0.195 A 
ATOM     26  O   UNL     1       1.643  -2.078  -4.775  0.00  0.00    -0.466 OA
ENDBRANCH  21  22
ENDBRANCH  20  21
ENDBRANCH   1  16
BRANCH   1  27
ATOM     27  N   UNL     1      -1.147  -6.138  -3.412  0.00  0.00    -0.280 NA
BRANCH  27  28
ATOM     28  C   UNL     1      -0.985  -7.160  -4.455  0.00  0.00    +0.121 C 
BRANCH  28  29
ATOM     29  C   UNL     1       0.243  -7.984  -4.163  0.00  0.00    -0.033 A 
ATOM     30  C   UNL     1       1.441  -7.681  -4.783  0.00  0.00    +0.008 A 
ATOM     31  C   UNL     1       2.567  -8.435  -4.518  0.00  0.00    +0.046 A 
ATOM     32  C   UNL     1       2.496  -9.498  -3.629  0.00  0.00    +0.120 A 
ATOM     33  C   UNL     1       1.292  -9.800  -3.008  0.00  0.00    +0.046 A 
ATOM     34  C   UNL     1       0.170  -9.039  -3.273  0.00  0.00    +0.008 A 
BRANCH  32  35
ATOM     35  O   UNL     1       3.602 -10.242  -3.367  0.00  0.00    -0.495 OA
ATOM     36  C   UNL     1       3.455 -11.320  -2.441  0.00  0.00    +0.277 C 
ENDBRANCH  32  35
ENDBRANCH  28  29
ENDBRANCH  27  28
BRANCH  27  37
ATOM     37  C   UNL     1      -2.537  -5.667  -3.349  0.00  0.00    +0.122 C 
BRANCH  37  38
ATOM     38  C   UNL     1      -3.451  -6.833  -3.073  0.00  0.00    -0.015 A 
ATOM     39  C   UNL     1      -4.144  -7.428  -4.111  0.00  0.00    +0.006 A 
ATOM     40  C   UNL     1      -4.983  -8.498  -3.858  0.00  0.00    +0.000 A 
ATOM     41  C   UNL     1      -5.129  -8.973  -2.568  0.00  0.00    +0.001 A 
ATOM     42  C   UNL     1      -4.436  -8.379  -1.530  0.00  0.00    +0.020 A 
ATOM     43  C   UNL     1      -3.592  -7.312  -1.783  0.00  0.00    +0.045 A 
ATOM     44 CL   UNL     1      -2.717  -6.569  -0.481  0.00  0.00    -0.083 Cl
ENDBRANCH  37  38
ENDBRANCH  27  37
ENDBRANCH   1  27
TORSDOF 10
