REMARK  Name = ZINC39345392
REMARK  8 active torsions:
REMARK  status: ('A' for Active; 'I' for Inactive)
REMARK    1  A    between atoms: C_1  and  C_2
REMARK    2  A    between atoms: C_3  and  C_30
REMARK    3  A    between atoms: C_4  and  C_23
REMARK    4  A    between atoms: C_10  and  C_11
REMARK    5  A    between atoms: C_30  and  O_32
REMARK    6  A    between atoms: O_32  and  C_33
REMARK    7  A    between atoms: C_33  and  C_34
REMARK    8  A    between atoms: C_33  and  C_35
REMARK                            x       y       z     vdW  Elec       q    Type
REMARK                         _______ _______ _______ _____ _____    ______ ____
ROOT
ATOM      1  C   UNL     1      -0.018   1.503   0.010  0.00  0.00    +0.066 C 
ATOM      2  C   UNL     1       0.002  -0.004   0.002  0.00  0.00    +0.053 C 
ATOM      3  C   UNL     1      -1.175  -0.697   0.004  0.00  0.00    +0.085 C 
ATOM      4  C   UNL     1      -1.111  -2.207  -0.005  0.00  0.00    +0.162 C 
ATOM      5  N   UNL     1       0.243  -2.830  -0.015  0.00  0.00    -0.275 N 
ATOM      6  C   UNL     1       0.503  -4.144  -0.023  0.00  0.00    +0.268 A 
ATOM      7  O   UNL     1      -0.397  -4.962  -0.024  0.00  0.00    -0.266 OA
ATOM      8  C   UNL     1       1.919  -4.566  -0.033  0.00  0.00    +0.080 A 
ATOM      9  C   UNL     1       2.456  -5.838  -0.043  0.00  0.00    +0.026 C 
ATOM     10  S   UNL     1       2.748  -2.984  -0.028  0.00  0.00    -0.046 S 
ATOM     11  C   UNL     1       1.299  -1.947  -0.015  0.00  0.00    +0.178 A 
ATOM     12  N   UNL     1       1.164  -0.647  -0.013  0.00  0.00    -0.228 NA
ENDROOT
BRANCH   9  13
ATOM     13  C   UNL     1       3.841  -6.012  -0.051  0.00  0.00    -0.018 C 
ATOM     14  C   UNL     1       4.541  -7.218  -0.067  0.00  0.00    +0.003 A 
ATOM     15  C   UNL     1       4.120  -8.565  -0.079  0.00  0.00    +0.010 A 
ATOM     16  C   UNL     1       5.044  -9.559  -0.094  0.00  0.00    +0.001 A 
ATOM     17  C   UNL     1       6.416  -9.285  -0.097  0.00  0.00    +0.002 A 
ATOM     18  C   UNL     1       6.893  -8.018  -0.086  0.00  0.00    +0.026 A 
ATOM     19  C   UNL     1       5.986  -6.923  -0.071  0.00  0.00    +0.043 A 
ATOM     20  N   UNL     1       6.190  -5.625  -0.058  0.00  0.00    -0.380 N 
ATOM     21  C   UNL     1       4.899  -4.930  -0.051  0.00  0.00    +0.149 C 
ATOM     22  H   UNL     1       7.059  -5.194  -0.058  0.00  0.00    +0.160 HD
ENDBRANCH   9  13
BRANCH   4  23
ATOM     23  C   UNL     1      -1.854  -2.696  -1.221  0.00  0.00    -0.020 A 
ATOM     24  C   UNL     1      -1.238  -2.682  -2.459  0.00  0.00    +0.007 A 
ATOM     25  C   UNL     1      -1.919  -3.130  -3.575  0.00  0.00    +0.020 A 
ATOM     26  C   UNL     1      -3.217  -3.592  -3.453  0.00  0.00    +0.041 A 
ATOM     27  C   UNL     1      -3.833  -3.605  -2.215  0.00  0.00    +0.020 A 
ATOM     28  C   UNL     1      -3.149  -3.162  -1.098  0.00  0.00    +0.007 A 
ATOM     29 CL   UNL     1      -4.074  -4.154  -4.855  0.00  0.00    -0.084 Cl
ENDBRANCH   4  23
BRANCH   3  30
ATOM     30  C   UNL     1      -2.410  -0.025   0.014  0.00  0.00    +0.339 C 
ATOM     31  O   UNL     1      -2.441   1.193   0.021  0.00  0.00    -0.245 OA
BRANCH  30  32
ATOM     32  O   UNL     1      -3.562  -0.730   0.016  0.00  0.00    -0.459 OA
BRANCH  32  33
ATOM     33  C   UNL     1      -4.780   0.018   0.026  0.00  0.00    +0.171 C 
ATOM     34  C   UNL     1      -5.222   0.293  -1.413  0.00  0.00    +0.052 C 
ATOM     35  C   UNL     1      -5.865  -0.784   0.748  0.00  0.00    +0.052 C 
ENDBRANCH  32  33
ENDBRANCH  30  32
ENDBRANCH   3  30
TORSDOF 5
