REMARK  Name = ZINC64652824
REMARK  8 active torsions:
REMARK  status: ('A' for Active; 'I' for Inactive)
REMARK    1  A    between atoms: C_1  and  C_2
REMARK    2  A    between atoms: C_2  and  C_3
REMARK    3  A    between atoms: C_2  and  C_4
REMARK    4  A    between atoms: C_9  and  C_13
REMARK    5  A    between atoms: C_13  and  C_14
REMARK    6  A    between atoms: N_16  and  C_17
REMARK    7  A    between atoms: C_17  and  C_18
REMARK    8  A    between atoms: C_18  and  C_19
REMARK                            x       y       z     vdW  Elec       q    Type
REMARK                         _______ _______ _______ _____ _____    ______ ____
ROOT
ATOM      1  C   UNL     1      -5.468  -1.367  -2.277  0.00  0.00    +0.215 C 
ATOM      2  O   UNL     1      -4.759  -2.349  -2.341  0.00  0.00    -0.276 OA
ATOM      3  N   UNL     1      -5.788  -0.692  -3.398  0.00  0.00    -0.315 N 
ATOM      4  H   UNL     1      -6.356   0.093  -3.347  0.00  0.00    +0.149 HD
ENDROOT
BRANCH   1   5
ATOM      5  C   UNL     1      -5.993  -0.903  -0.942  0.00  0.00    +0.119 C 
BRANCH   5  10
ATOM      6  C   UNL     1      -7.440  -0.219   3.471  0.00  0.00    +0.013 C 
ATOM      7  N   UNL     1      -7.886  -1.375   2.878  0.00  0.00    -0.320 N 
ATOM      8  C   UNL     1      -6.884  -2.249   2.254  0.00  0.00    +0.222 C 
ATOM      9  N   UNL     1      -5.998  -1.379   1.433  0.00  0.00    -0.266 N 
ATOM     10  C   UNL     1      -5.614  -1.920   0.136  0.00  0.00    +0.097 C 
ATOM     11  C   UNL     1      -6.271  -3.274  -0.223  0.00  0.00    +0.095 C 
ATOM     12  S   UNL     1      -7.707  -3.278   0.964  0.00  0.00    -0.117 S 
ATOM     13  C   UNL     1      -5.635  -0.148   1.890  0.00  0.00    +0.243 C 
ATOM     14  O   UNL     1      -4.729   0.472   1.362  0.00  0.00    -0.270 OA
ATOM     15  C   UNL     1      -6.339   0.397   2.990  0.00  0.00    +0.086 C 
ATOM     16  H   UNL     1      -8.828  -1.606   2.871  0.00  0.00    +0.148 HD
BRANCH   6  18
ATOM     17  C   UNL     1      -9.618   0.685   4.238  0.00  0.00    +0.013 C 
ATOM     18  C   UNL     1      -8.180   0.363   4.648  0.00  0.00    +0.027 C 
ATOM     19  C   UNL     1      -8.192  -0.650   5.794  0.00  0.00    +0.013 C 
ENDBRANCH   6  18
ENDBRANCH   5  10
ENDBRANCH   1   5
BRANCH   3  20
ATOM     20  C   UNL     1      -5.278  -1.143  -4.696  0.00  0.00    +0.108 C 
BRANCH  20  21
ATOM     21  C   UNL     1      -5.785  -0.209  -5.796  0.00  0.00    +0.052 C 
BRANCH  21  22
ATOM     22  C   UNL     1      -5.261  -0.673  -7.130  0.00  0.00    -0.040 C 
ATOM     23  C   UNL     1      -5.895  -1.469  -8.021  0.00  0.00    -0.001 A 
ATOM     24  C   UNL     1      -7.213  -2.116  -8.014  0.00  0.00    +0.010 A 
ATOM     25  C   UNL     1      -7.577  -2.872  -9.075  0.00  0.00    +0.001 A 
ATOM     26  C   UNL     1      -6.731  -3.052 -10.178  0.00  0.00    +0.002 A 
ATOM     27  C   UNL     1      -5.507  -2.489 -10.257  0.00  0.00    +0.026 A 
ATOM     28  C   UNL     1      -5.021  -1.674  -9.198  0.00  0.00    +0.043 A 
ATOM     29  N   UNL     1      -3.890  -1.030  -9.040  0.00  0.00    -0.380 N 
ATOM     30  C   UNL     1      -3.921  -0.338  -7.747  0.00  0.00    +0.144 C 
ATOM     31  H   UNL     1      -3.156  -1.011  -9.675  0.00  0.00    +0.160 HD
ENDBRANCH  21  22
ENDBRANCH  20  21
ENDBRANCH   3  20
TORSDOF 6
