REMARK  Name = ZINC00065696
REMARK  3 active torsions:
REMARK  status: ('A' for Active; 'I' for Inactive)
REMARK    1  A    between atoms: C_1  and  O_2
REMARK    2  A    between atoms: O_2  and  C_3
REMARK    3  A    between atoms: C_6  and  C_9
REMARK                            x       y       z     vdW  Elec       q    Type
REMARK                         _______ _______ _______ _____ _____    ______ ____
ROOT
ATOM      1  C   UNL     1       2.505  -2.503  -4.381  0.00  0.00    +0.175 C 
ATOM      2  C   UNL     1       1.498  -3.367  -5.109  0.00  0.00    +0.041 C 
ATOM      3  C   UNL     1       1.517  -4.715  -5.028  0.00  0.00    +0.020 C 
ATOM      4  C   UNL     1       0.498  -5.551  -5.766  0.00  0.00    +0.052 C 
ATOM      5  C   UNL     1      -0.816  -4.777  -5.885  0.00  0.00    +0.014 C 
ATOM      6  C   UNL     1      -0.537  -3.464  -6.624  0.00  0.00    +0.080 C 
ATOM      7  C   UNL     1       0.527  -2.704  -5.882  0.00  0.00    +0.163 C 
ATOM      8  O   UNL     1       0.549  -1.491  -5.951  0.00  0.00    -0.292 OA
ATOM      9  N   UNL     1       2.459  -5.382  -4.282  0.00  0.00    -0.287 N 
ATOM     10  C   UNL     1       3.573  -4.677  -3.859  0.00  0.00    +0.218 A 
ATOM     11  N   UNL     1       3.610  -3.324  -3.904  0.00  0.00    -0.221 N 
ATOM     12  N   UNL     1       4.862  -2.949  -3.418  0.00  0.00    -0.156 NA
ATOM     13  C   UNL     1       5.494  -4.055  -3.109  0.00  0.00    +0.247 A 
ATOM     14  N   UNL     1       4.710  -5.097  -3.377  0.00  0.00    -0.201 NA
ATOM     15  H   UNL     1       2.346  -6.320  -4.059  0.00  0.00    +0.155 HD
ENDROOT
BRANCH   1  19
ATOM     16  C   UNL     1       0.606  -0.607  -1.056  0.00  0.00    +0.120 A 
ATOM     17  C   UNL     1       1.173   0.161  -2.062  0.00  0.00    +0.046 A 
ATOM     18  C   UNL     1       1.786  -0.455  -3.136  0.00  0.00    +0.009 A 
ATOM     19  C   UNL     1       1.835  -1.835  -3.209  0.00  0.00    -0.018 A 
ATOM     20  C   UNL     1       1.270  -2.602  -2.207  0.00  0.00    +0.009 A 
ATOM     21  C   UNL     1       0.661  -1.992  -1.128  0.00  0.00    +0.046 A 
BRANCH  16  23
ATOM     22  C   UNL     1      -0.017   1.425   0.010  0.00  0.00    +0.277 C 
ATOM     23  O   UNL     1       0.002  -0.004   0.002  0.00  0.00    -0.495 OA
ENDBRANCH  16  23
ENDBRANCH   1  19
TORSDOF 2
