REMARK  Name = ZINC63801466
REMARK  8 active torsions:
REMARK  status: ('A' for Active; 'I' for Inactive)
REMARK    1  A    between atoms: C_1  and  C_2
REMARK    2  A    between atoms: N_4  and  C_5
REMARK    3  A    between atoms: C_5  and  C_7
REMARK    4  A    between atoms: C_5  and  C_17
REMARK    5  A    between atoms: C_7  and  C_8
REMARK    6  A    between atoms: N_19  and  C_20
REMARK    7  A    between atoms: C_27  and  S_30
REMARK    8  A    between atoms: S_30  and  C_31
REMARK                            x       y       z     vdW  Elec       q    Type
REMARK                         _______ _______ _______ _____ _____    ______ ____
ROOT
ATOM      1  C   UNL     1       0.016  -2.139  -1.171  0.00  0.00    +0.163 C 
ENDROOT
BRANCH   1   5
ATOM      2  C   UNL     1      -0.020   1.502   0.010  0.00  0.00    +0.109 C 
ATOM      3  C   UNL     1       0.002  -0.004   0.004  0.00  0.00    +0.211 C 
ATOM      4  O   UNL     1       0.026  -0.615   1.052  0.00  0.00    -0.276 OA
ATOM      5  N   UNL     1      -0.006  -0.674  -1.165  0.00  0.00    -0.304 N 
ATOM      6  H   UNL     1      -0.025  -0.186  -2.004  0.00  0.00    +0.149 HD
ENDBRANCH   1   5
BRANCH   1   7
ATOM      7  C   UNL     1       1.264  -2.626  -0.481  0.00  0.00    +0.238 C 
ATOM      8  O   UNL     1       1.865  -1.891   0.274  0.00  0.00    -0.273 OA
ATOM      9  N   UNL     1       1.712  -3.877  -0.703  0.00  0.00    -0.284 N 
ATOM     10  H   UNL     1       1.196  -4.487  -1.253  0.00  0.00    +0.155 HD
BRANCH   9  11
ATOM     11  C   UNL     1       2.924  -4.298  -0.139  0.00  0.00    +0.035 A 
ATOM     12  C   UNL     1       3.311  -3.853   1.118  0.00  0.00    +0.025 A 
ATOM     13  C   UNL     1       4.497  -4.260   1.680  0.00  0.00    +0.026 A 
ATOM     14  C   UNL     1       5.362  -5.140   1.004  0.00  0.00    +0.042 A 
ATOM     15  C   UNL     1       4.947  -5.572  -0.260  0.00  0.00    +0.033 A 
ATOM     16  C   UNL     1       3.758  -5.173  -0.826  0.00  0.00    +0.040 A 
ATOM     17  S   UNL     1       6.241  -6.651  -0.829  0.00  0.00    -0.090 S 
ATOM     18  C   UNL     1       7.347  -6.526   0.632  0.00  0.00    +0.192 C 
ATOM     19  N   UNL     1       6.584  -5.609   1.490  0.00  0.00    -0.323 N 
ATOM     20  H   UNL     1       6.916  -5.340   2.360  0.00  0.00    +0.148 HD
BRANCH  18  21
ATOM     21  S   UNL     1       8.952  -5.812   0.177  0.00  0.00    -0.131 S 
ATOM     22  C   UNL     1       8.529  -4.192  -0.520  0.00  0.00    +0.087 C 
ENDBRANCH  18  21
ENDBRANCH   9  11
ENDBRANCH   1   7
BRANCH   1  23
ATOM     23  C   UNL     1      -1.215  -2.670  -0.433  0.00  0.00    +0.065 C 
BRANCH  23  24
ATOM     24  C   UNL     1      -2.460  -2.286  -1.192  0.00  0.00    -0.039 C 
ATOM     25  C   UNL     1      -3.128  -3.042  -2.093  0.00  0.00    -0.001 A 
ATOM     26  C   UNL     1      -2.904  -4.394  -2.617  0.00  0.00    +0.010 A 
ATOM     27  C   UNL     1      -3.764  -4.893  -3.534  0.00  0.00    +0.001 A 
ATOM     28  C   UNL     1      -4.861  -4.152  -3.996  0.00  0.00    +0.002 A 
ATOM     29  C   UNL     1      -5.132  -2.903  -3.561  0.00  0.00    +0.026 A 
ATOM     30  C   UNL     1      -4.293  -2.280  -2.596  0.00  0.00    +0.043 A 
ATOM     31  N   UNL     1      -4.344  -1.100  -2.027  0.00  0.00    -0.380 N 
ATOM     32  C   UNL     1      -3.218  -0.981  -1.094  0.00  0.00    +0.144 C 
ATOM     33  H   UNL     1      -5.016  -0.420  -2.193  0.00  0.00    +0.160 HD
ENDBRANCH  23  24
ENDBRANCH   1  23
TORSDOF 6
