REMARK  Name = ZINC56793222
REMARK  8 active torsions:
REMARK  status: ('A' for Active; 'I' for Inactive)
REMARK    1  A    between atoms: C_1  and  C_2
REMARK    2  A    between atoms: C_6  and  N_8
REMARK    3  A    between atoms: C_9  and  C_11
REMARK    4  A    between atoms: N_20  and  C_21
REMARK    5  A    between atoms: C_21  and  C_22
REMARK    6  A    between atoms: C_22  and  N_27
REMARK    7  A    between atoms: N_27  and  C_28
REMARK    8  A    between atoms: N_27  and  C_29
REMARK                            x       y       z     vdW  Elec       q    Type
REMARK                         _______ _______ _______ _____ _____    ______ ____
ROOT
ATOM      1  C   UNL     1       0.428  -4.303   4.013  0.00  0.00    +0.093 C 
ATOM      2  C   UNL     1       0.500  -5.808   3.740  0.00  0.00    +0.016 C 
ATOM      3  C   UNL     1       0.366  -6.574   5.058  0.00  0.00    +0.020 C 
ATOM      4  C   UNL     1      -0.994  -6.262   5.689  0.00  0.00    +0.109 C 
ATOM      5  N   UNL     1      -1.131  -4.805   5.822  0.00  0.00    -0.285 N 
ATOM      6  C   UNL     1      -0.931  -3.965   4.633  0.00  0.00    +0.122 C 
ATOM      7  C   UNL     1      -1.433  -4.249   7.012  0.00  0.00    +0.302 C 
ATOM      8  O   UNL     1      -1.635  -3.053   7.090  0.00  0.00    -0.253 OA
ATOM      9  N   UNL     1      -1.513  -5.019   8.115  0.00  0.00    -0.301 N 
ATOM     10  H   UNL     1      -1.425  -5.983   8.041  0.00  0.00    +0.150 HD
ENDROOT
BRANCH   1  12
ATOM     11  N   UNL     1       0.560  -2.202   2.715  0.00  0.00    -0.270 N 
ATOM     12  C   UNL     1       0.592  -3.549   2.718  0.00  0.00    +0.223 C 
ATOM     13  O   UNL     1       0.752  -4.154   1.680  0.00  0.00    -0.275 OA
ATOM     14  H   UNL     1       0.505  -1.716   3.553  0.00  0.00    +0.156 HD
BRANCH  11  20
ATOM     15  C   UNL     1       1.053  -2.349  -2.047  0.00  0.00    +0.065 C 
ATOM     16  C   UNL     1       0.843  -1.549  -0.787  0.00  0.00    +0.040 A 
ATOM     17  C   UNL     1       0.707  -0.177  -0.866  0.00  0.00    +0.023 A 
ATOM     18  C   UNL     1       0.514   0.554   0.298  0.00  0.00    +0.005 A 
ATOM     19  C   UNL     1       0.464  -0.124   1.504  0.00  0.00    +0.044 A 
ATOM     20  C   UNL     1       0.608  -1.506   1.508  0.00  0.00    +0.125 A 
ATOM     21  N   UNL     1       0.786  -2.169   0.376  0.00  0.00    -0.237 NA
ENDBRANCH  11  20
ENDBRANCH   1  12
BRANCH   9  22
ATOM     22  C   UNL     1      -1.732  -4.402   9.425  0.00  0.00    +0.094 C 
BRANCH  22  23
ATOM     23  C   UNL     1      -1.659  -5.475  10.513  0.00  0.00    -0.050 C 
ATOM     24  C   UNL     1      -2.815  -6.482  10.342  0.00  0.00    -0.010 C 
ATOM     25  C   UNL     1      -3.233  -6.830  11.792  0.00  0.00    -0.001 C 
ATOM     26  C   UNL     1      -3.095  -5.472  12.524  0.00  0.00    -0.001 C 
ATOM     27  C   UNL     1      -1.836  -4.833  11.900  0.00  0.00    -0.010 C 
BRANCH  23  28
ATOM     28  N   UNL     1      -0.368  -6.174  10.444  0.00  0.00    +0.381 N 
ATOM     29  C   UNL     1       0.718  -5.224  10.722  0.00  0.00    -0.096 C 
ATOM     30  C   UNL     1      -0.341  -7.253  11.440  0.00  0.00    -0.096 C 
ATOM     31  H   UNL     1      -0.246  -6.564   9.522  0.00  0.00    -0.082 HD
ENDBRANCH  23  28
ENDBRANCH  22  23
ENDBRANCH   9  22
TORSDOF 5
