REMARK  Name = ZINC08190702
REMARK  4 active torsions:
REMARK  status: ('A' for Active; 'I' for Inactive)
REMARK    1  A    between atoms: C_4  and  N_7
REMARK    2  A    between atoms: C_8  and  C_10
REMARK    3  A    between atoms: C_15  and  N_16
REMARK    4  A    between atoms: C_15  and  N_59
REMARK                            x       y       z     vdW  Elec       q    Type
REMARK                         _______ _______ _______ _____ _____    ______ ____
ROOT
ATOM      1  C   UNL     1       3.628   5.998  -0.217  0.00  0.00    +0.072 C 
ATOM      2  C   UNL     1       4.498   5.734   1.014  0.00  0.00    -0.006 C 
ATOM      3  C   UNL     1       5.782   6.561   0.913  0.00  0.00    -0.076 C 
ATOM      4  C   UNL     1       4.646   8.273  -0.371  0.00  0.00    -0.076 C 
ATOM      5  C   UNL     1       3.329   7.497  -0.309  0.00  0.00    -0.006 C 
ATOM      6  N   UNL     1       5.426   7.995   0.854  0.00  0.00    +0.391 N 
ATOM      7  H   UNL     1       4.854   8.230   1.673  0.00  0.00    -0.079 HD
ENDROOT
BRANCH   1   9
ATOM      8  N   UNL     1       2.356   3.889  -0.001  0.00  0.00    -0.285 N 
ATOM      9  C   UNL     1       2.336   5.233  -0.095  0.00  0.00    +0.220 C 
ATOM     10  O   UNL     1       1.278   5.827  -0.082  0.00  0.00    -0.275 OA
ATOM     11  H   UNL     1       3.202   3.419   0.066  0.00  0.00    +0.155 HD
BRANCH   8  15
ATOM     12  C   UNL     1      -1.221   1.752   0.012  0.00  0.00    +0.000 A 
ATOM     13  C   UNL     1      -1.114   2.914  -0.730  0.00  0.00    +0.002 A 
ATOM     14  C   UNL     1       0.070   3.626  -0.735  0.00  0.00    +0.023 A 
ATOM     15  C   UNL     1       1.155   3.170   0.002  0.00  0.00    +0.033 A 
ATOM     16  C   UNL     1       1.046   2.000   0.742  0.00  0.00    +0.023 A 
ATOM     17  C   UNL     1      -0.141   1.293   0.742  0.00  0.00    +0.002 A 
ENDBRANCH   8  15
ENDBRANCH   1   9
BRANCH   6  18
ATOM     18  C   UNL     1       6.651   8.820   0.871  0.00  0.00    +0.043 C 
BRANCH  18  19
ATOM     19  N   UNL     1       7.090   8.975   2.260  0.00  0.00    -0.241 N 
ATOM     20  C   UNL     1       7.949   8.142   2.878  0.00  0.00    +0.245 C 
ATOM     21  O   UNL     1       8.481   7.159   2.408  0.00  0.00    -0.273 OA
ATOM     22  C   UNL     1       8.114   8.687   4.286  0.00  0.00    +0.112 C 
ATOM     23  C   UNL     1       9.572   9.175   4.439  0.00  0.00    +0.035 C 
ATOM     24  C   UNL     1       9.625  10.209   5.528  0.00  0.00    +0.003 C 
ATOM     25  C   UNL     1       9.985   9.608   6.902  0.00  0.00    +0.000 C 
ATOM     26  C   UNL     1       9.267   8.274   7.176  0.00  0.00    +0.000 C 
ATOM     27  C   UNL     1       7.829   8.296   6.735  0.00  0.00    +0.003 C 
ATOM     28  C   UNL     1       7.747   7.716   5.310  0.00  0.00    +0.035 C 
ATOM     29  N   UNL     1       7.238   9.877   4.293  0.00  0.00    -0.285 N 
ATOM     30  C   UNL     1       6.692   9.963   3.068  0.00  0.00    +0.308 C 
ATOM     31  O   UNL     1       5.921  10.840   2.733  0.00  0.00    -0.252 OA
ATOM     32  H   UNL     1       7.088  10.481   5.037  0.00  0.00    +0.151 HD
ENDBRANCH  18  19
ENDBRANCH   6  18
TORSDOF 4
