REMARK  Name = ZINC39364791
REMARK  10 active torsions:
REMARK  status: ('A' for Active; 'I' for Inactive)
REMARK    1  A    between atoms: C_1  and  C_2
REMARK    2  A    between atoms: C_4  and  C_10
REMARK    3  A    between atoms: C_5  and  C_9
REMARK    4  A    between atoms: N_7  and  C_8
REMARK    5  A    between atoms: C_10  and  N_11
REMARK    6  A    between atoms: C_12  and  C_14
REMARK    7  A    between atoms: C_17  and  C_21
REMARK    8  A    between atoms: C_21  and  N_22
REMARK    9  A    between atoms: C_25  and  C_34
REMARK   10  A    between atoms: C_25  and  O_40
REMARK                            x       y       z     vdW  Elec       q    Type
REMARK                         _______ _______ _______ _____ _____    ______ ____
ROOT
ATOM      1  C   UNL     1      -1.888  -1.054  -5.959  0.00  0.00    +0.101 A 
ATOM      2  C   UNL     1      -2.163  -1.123  -7.323  0.00  0.00    +0.020 A 
ATOM      3  C   UNL     1      -3.215  -1.928  -7.760  0.00  0.00    +0.020 A 
ATOM      4  C   UNL     1      -3.954  -2.629  -6.863  0.00  0.00    +0.003 A 
ATOM      5  N   UNL     1      -3.693  -2.567  -5.536  0.00  0.00    -0.327 N 
ATOM      6  C   UNL     1      -2.685  -1.810  -5.061  0.00  0.00    +0.261 A 
ATOM      7  O   UNL     1      -2.462  -1.771  -3.864  0.00  0.00    -0.267 OA
ATOM      8  H   UNL     1      -4.238  -3.078  -4.918  0.00  0.00    +0.169 HD
ENDROOT
BRANCH   1  10
ATOM      9  N   UNL     1      -0.456  -0.249  -4.153  0.00  0.00    -0.307 N 
ATOM     10  C   UNL     1      -0.787  -0.217  -5.459  0.00  0.00    +0.250 C 
ATOM     11  O   UNL     1      -0.176   0.505  -6.224  0.00  0.00    -0.270 OA
ATOM     12  H   UNL     1      -0.988  -0.768  -3.530  0.00  0.00    +0.149 HD
BRANCH   9  13
ATOM     13  C   UNL     1       0.709   0.500  -3.674  0.00  0.00    +0.138 C 
BRANCH  13  16
ATOM     14  C   UNL     1       0.203   2.588  -1.415  0.00  0.00    +0.030 C 
ATOM     15  C   UNL     1       0.152   1.091  -1.108  0.00  0.00    +0.100 C 
ATOM     16  C   UNL     1       0.860   0.299  -2.188  0.00  0.00    -0.018 C 
ATOM     17  C   UNL     1       1.625  -0.591  -1.609  0.00  0.00    -0.000 C 
ATOM     18  N   UNL     1       1.530  -0.520  -0.216  0.00  0.00    -0.354 NA
ATOM     19  N   UNL     1       0.933   0.779   0.116  0.00  0.00    -0.242 NA
ATOM     20  C   UNL     1       0.056   0.676   1.289  0.00  0.00    +0.126 C 
ATOM     21  C   UNL     1       2.499  -1.570  -2.350  0.00  0.00    +0.060 C 
ATOM     22  H   UNL     1       0.939  -1.264   0.126  0.00  0.00    +0.141 HD
ATOM     23  H   UNL     1       2.449  -0.592   0.195  0.00  0.00    +0.141 HD
ENDBRANCH  13  16
ENDBRANCH   9  13
ENDBRANCH   1  10
BRANCH   4  24
ATOM     24  C   UNL     1      -5.087  -3.494  -7.354  0.00  0.00    -0.024 C 
BRANCH  24  25
ATOM     25  N   UNL     1      -4.727  -4.909  -7.197  0.00  0.00    +0.386 N 
ATOM     26  C   UNL     1      -4.607  -5.226  -5.769  0.00  0.00    -0.075 C 
ATOM     27  C   UNL     1      -4.153  -6.677  -5.600  0.00  0.00    +0.021 C 
ATOM     28  C   UNL     1      -5.185  -7.607  -6.246  0.00  0.00    +0.091 C 
ATOM     29  C   UNL     1      -5.356  -7.219  -7.717  0.00  0.00    +0.012 C 
ATOM     30  C   UNL     1      -5.765  -5.747  -7.807  0.00  0.00    -0.062 C 
ATOM     31  C   UNL     1      -5.941  -5.356  -9.276  0.00  0.00    -0.015 C 
ATOM     32  C   UNL     1      -7.027  -6.228  -9.909  0.00  0.00    -0.002 C 
ATOM     33  C   UNL     1      -6.618  -7.699  -9.819  0.00  0.00    +0.000 C 
ATOM     34  C   UNL     1      -6.440  -8.093  -8.351  0.00  0.00    +0.005 C 
ATOM     35  H   UNL     1      -3.844  -5.083  -7.653  0.00  0.00    -0.081 HD
BRANCH  28  36
ATOM     36  C   UNL     1      -6.505  -7.468  -5.532  0.00  0.00    -0.016 A 
ATOM     37  C   UNL     1      -7.583  -8.243  -5.916  0.00  0.00    +0.006 A 
ATOM     38  C   UNL     1      -8.794  -8.116  -5.261  0.00  0.00    +0.000 A 
ATOM     39  C   UNL     1      -8.926  -7.215  -4.221  0.00  0.00    +0.000 A 
ATOM     40  C   UNL     1      -7.847  -6.441  -3.836  0.00  0.00    +0.000 A 
ATOM     41  C   UNL     1      -6.635  -6.571  -4.488  0.00  0.00    +0.006 A 
ENDBRANCH  28  36
BRANCH  28  42
ATOM     42  O   UNL     1      -4.731  -8.959  -6.157  0.00  0.00    -0.384 OA
ATOM     43  H   UNL     1      -4.595  -9.270  -5.252  0.00  0.00    +0.211 HD
ENDBRANCH  28  42
ENDBRANCH  24  25
ENDBRANCH   4  24
TORSDOF 7
