REMARK  Name = ZINC36494899
REMARK  16 active torsions:
REMARK  status: ('A' for Active; 'I' for Inactive)
REMARK    1  A    between atoms: C_1  and  C_2
REMARK    2  A    between atoms: C_5  and  S_8
REMARK    3  A    between atoms: S_8  and  C_11
REMARK    4  A    between atoms: C_11  and  N_12
REMARK    5  A    between atoms: C_13  and  C_15
REMARK    6  A    between atoms: C_15  and  C_17
REMARK    7  A    between atoms: C_15  and  N_26
REMARK    8  A    between atoms: C_20  and  O_25
REMARK    9  A    between atoms: C_21  and  O_23
REMARK   10  A    between atoms: O_23  and  C_24
REMARK   11  A    between atoms: N_26  and  C_27
REMARK   12  A    between atoms: C_27  and  C_28
REMARK   13  A    between atoms: C_33  and  C_35
REMARK   14  A    between atoms: C_35  and  C_36
REMARK   15  A    between atoms: C_36  and  C_37
REMARK   16  A    between atoms: C_36  and  C_38
REMARK                            x       y       z     vdW  Elec       q    Type
REMARK                         _______ _______ _______ _____ _____    ______ ____
ROOT
ATOM      1  C   UNL     1       2.863  -4.932   3.676  0.00  0.00    +0.193 C 
ENDROOT
BRANCH   1   2
ATOM      2  C   UNL     1       1.890  -3.994   4.344  0.00  0.00    -0.015 A 
ATOM      3  C   UNL     1       0.849  -4.503   5.098  0.00  0.00    +0.010 A 
ATOM      4  C   UNL     1      -0.046  -3.647   5.713  0.00  0.00    +0.049 A 
ATOM      5  C   UNL     1       0.100  -2.276   5.574  0.00  0.00    +0.158 A 
ATOM      6  C   UNL     1       1.148  -1.764   4.814  0.00  0.00    +0.162 A 
ATOM      7  C   UNL     1       2.044  -2.628   4.205  0.00  0.00    +0.055 A 
BRANCH   6   8
ATOM      8  O   UNL     1       1.295  -0.419   4.675  0.00  0.00    -0.491 OA
ATOM      9  C   UNL     1       2.393   0.034   3.881  0.00  0.00    +0.277 C 
ENDBRANCH   6   8
BRANCH   5  10
ATOM     10  O   UNL     1      -0.780  -1.433   6.177  0.00  0.00    -0.503 OA
ATOM     11  H   UNL     1      -0.523  -1.170   7.071  0.00  0.00    +0.292 HD
ENDBRANCH   5  10
ENDBRANCH   1   2
BRANCH   1  13
ATOM     12  N   UNL     1       1.743  -4.552   1.504  0.00  0.00    -0.294 N 
ATOM     13  C   UNL     1       2.274  -5.427   2.380  0.00  0.00    +0.239 C 
ATOM     14  O   UNL     1       2.279  -6.613   2.126  0.00  0.00    -0.273 OA
ATOM     15  H   UNL     1       1.739  -3.604   1.707  0.00  0.00    +0.150 HD
BRANCH  12  16
ATOM     16  C   UNL     1       1.171  -5.034   0.244  0.00  0.00    +0.278 C 
BRANCH  16  17
ATOM     17  S   UNL     1      -0.619  -5.260   0.440  0.00  0.00    +0.013 S 
ATOM     18  O   UNL     1      -0.894  -5.971   1.639  0.00  0.00    -0.168 OA
ATOM     19  O   UNL     1      -1.198  -5.667  -0.792  0.00  0.00    -0.168 OA
BRANCH  17  24
ATOM     20  C   UNL     1      -2.789   0.286   1.405  0.00  0.00    +0.044 C 
ATOM     21  C   UNL     1      -2.247  -1.099   1.164  0.00  0.00    -0.050 A 
ATOM     22  C   UNL     1      -2.145  -1.587  -0.125  0.00  0.00    +0.005 A 
ATOM     23  C   UNL     1      -1.648  -2.857  -0.346  0.00  0.00    +0.027 A 
ATOM     24  C   UNL     1      -1.252  -3.640   0.722  0.00  0.00    +0.090 A 
ATOM     25  C   UNL     1      -1.353  -3.152   2.011  0.00  0.00    +0.027 A 
ATOM     26  C   UNL     1      -1.846  -1.880   2.232  0.00  0.00    +0.005 A 
ENDBRANCH  17  24
ENDBRANCH  16  17
ENDBRANCH  12  16
ENDBRANCH   1  13
BRANCH   1  27
ATOM     27  N   UNL     1       3.128  -6.071   4.559  0.00  0.00    -0.279 N 
ATOM     28  C   UNL     1       3.956  -5.928   5.613  0.00  0.00    +0.217 C 
ATOM     29  O   UNL     1       4.482  -4.857   5.830  0.00  0.00    -0.276 OA
BRANCH  27  30
ATOM     30  C   UNL     1       2.492  -7.364   4.297  0.00  0.00    +0.183 C 
BRANCH  30  31
ATOM     31  C   UNL     1       3.463  -8.265   3.578  0.00  0.00    +0.122 A 
ATOM     32  C   UNL     1       4.245  -9.197   4.152  0.00  0.00    +0.046 A 
ATOM     33  C   UNL     1       4.991  -9.801   3.114  0.00  0.00    +0.041 A 
ATOM     34  C   UNL     1       4.622  -9.202   1.968  0.00  0.00    +0.195 A 
ATOM     35  O   UNL     1       3.692  -8.276   2.254  0.00  0.00    -0.466 OA
ENDBRANCH  30  31
ENDBRANCH  27  30
BRANCH  28  36
ATOM     36  C   UNL     1       4.228  -7.100   6.521  0.00  0.00    +0.099 C 
BRANCH  36  37
ATOM     37  C   UNL     1       5.194  -6.673   7.628  0.00  0.00    -0.008 C 
ATOM     38  C   UNL     1       4.521  -5.622   8.514  0.00  0.00    +0.008 C 
ATOM     39  C   UNL     1       5.568  -7.890   8.476  0.00  0.00    +0.008 C 
ENDBRANCH  36  37
ENDBRANCH  28  36
ENDBRANCH   1  27
TORSDOF 12
