REMARK  Name = ZINC38609930
REMARK  10 active torsions:
REMARK  status: ('A' for Active; 'I' for Inactive)
REMARK    1  A    between atoms: C_1  and  C_2
REMARK    2  A    between atoms: C_2  and  C_4
REMARK    3  A    between atoms: C_2  and  N_22
REMARK    4  A    between atoms: N_6  and  C_7
REMARK    5  A    between atoms: C_15  and  C_17
REMARK    6  A    between atoms: C_17  and  O_19
REMARK    7  A    between atoms: O_19  and  C_20
REMARK    8  A    between atoms: N_25  and  C_28
REMARK    9  A    between atoms: C_33  and  O_34
REMARK   10  A    between atoms: O_34  and  C_35
REMARK                            x       y       z     vdW  Elec       q    Type
REMARK                         _______ _______ _______ _____ _____    ______ ____
ROOT
ATOM      1  C   UNL     1       0.632   0.274   1.819  0.00  0.00    +0.203 C 
ATOM      2  O   UNL     1       1.108  -0.695   1.267  0.00  0.00    -0.277 OA
ATOM      3  N   UNL     1       0.757   0.419   3.153  0.00  0.00    -0.288 N 
ATOM      4  H   UNL     1       0.316   1.155   3.605  0.00  0.00    +0.155 HD
ENDROOT
BRANCH   3   5
ATOM      5  C   UNL     1       1.502  -0.470   3.868  0.00  0.00    +0.053 C 
ATOM      6  C   UNL     1       1.649  -0.521   5.244  0.00  0.00    +0.019 A 
ATOM      7  C   UNL     1       1.117   0.269   6.291  0.00  0.00    +0.026 A 
ATOM      8  C   UNL     1       1.439  -0.016   7.577  0.00  0.00    +0.019 A 
ATOM      9  C   UNL     1       2.289  -1.078   7.903  0.00  0.00    +0.017 A 
ATOM     10  C   UNL     1       2.833  -1.875   6.952  0.00  0.00    +0.027 A 
ATOM     11  C   UNL     1       2.544  -1.641   5.583  0.00  0.00    +0.045 A 
ATOM     12  N   UNL     1       2.940  -2.261   4.490  0.00  0.00    -0.367 N 
ATOM     13  C   UNL     1       2.335  -1.609   3.324  0.00  0.00    +0.234 C 
ATOM     14 BR   UNL     1       0.722   1.050   8.965  0.00  0.00    -0.050 Br
ATOM     15  H   UNL     1       3.533  -3.028   4.461  0.00  0.00    +0.161 HD
BRANCH  13  16
ATOM     16  C   UNL     1       3.412  -1.076   2.414  0.00  0.00    +0.335 C 
ATOM     17  O   UNL     1       4.433  -0.629   2.883  0.00  0.00    -0.248 OA
BRANCH  16  18
ATOM     18  O   UNL     1       3.238  -1.096   1.083  0.00  0.00    -0.466 OA
ATOM     19  C   UNL     1       4.300  -0.575   0.282  0.00  0.00    +0.280 C 
ENDBRANCH  16  18
ENDBRANCH  13  16
ENDBRANCH   3   5
BRANCH   1  21
ATOM     20  C   UNL     1       0.876   2.422   0.605  0.00  0.00    -0.004 C 
ATOM     21  C   UNL     1      -0.100   1.316   1.013  0.00  0.00    +0.017 C 
BRANCH  21  22
ATOM     22  N   UNL     1      -0.667   0.695  -0.191  0.00  0.00    +0.389 N 
ATOM     23  C   UNL     1      -1.658  -0.314   0.203  0.00  0.00    -0.059 C 
ATOM     24  C   UNL     1      -2.167  -1.042  -1.046  0.00  0.00    +0.086 C 
ATOM     25  N   UNL     1      -2.667  -0.040  -1.999  0.00  0.00    -0.331 N 
ATOM     26  C   UNL     1      -1.797   1.101  -2.326  0.00  0.00    +0.086 C 
ATOM     27  C   UNL     1      -1.306   1.727  -1.017  0.00  0.00    -0.059 C 
ATOM     28  H   UNL     1       0.070   0.252  -0.718  0.00  0.00    -0.081 HD
BRANCH  25  29
ATOM     29  C   UNL     1      -3.935  -0.167  -2.579  0.00  0.00    +0.072 A 
ATOM     30  C   UNL     1      -5.042   0.399  -1.963  0.00  0.00    +0.027 A 
ATOM     31  C   UNL     1      -6.292   0.272  -2.538  0.00  0.00    +0.002 A 
ATOM     32  C   UNL     1      -6.444  -0.418  -3.726  0.00  0.00    +0.004 A 
ATOM     33  C   UNL     1      -5.345  -0.984  -4.346  0.00  0.00    +0.047 A 
ATOM     34  C   UNL     1      -4.088  -0.857  -3.779  0.00  0.00    +0.141 A 
BRANCH  34  35
ATOM     35  O   UNL     1      -3.006  -1.410  -4.391  0.00  0.00    -0.493 OA
ATOM     36  C   UNL     1      -3.238  -2.103  -5.619  0.00  0.00    +0.277 C 
ENDBRANCH  34  35
ENDBRANCH  25  29
ENDBRANCH  21  22
ENDBRANCH   1  21
TORSDOF 7
