REMARK  Name = ZINC39893742
REMARK  8 active torsions:
REMARK  status: ('A' for Active; 'I' for Inactive)
REMARK    1  A    between atoms: C_1  and  C_2
REMARK    2  A    between atoms: C_3  and  C_31
REMARK    3  A    between atoms: N_6  and  C_22
REMARK    4  A    between atoms: C_10  and  N_11
REMARK    5  A    between atoms: N_11  and  C_12
REMARK    6  A    between atoms: C_15  and  N_19
REMARK    7  A    between atoms: C_22  and  C_24
REMARK    8  A    between atoms: C_22  and  C_25
REMARK                            x       y       z     vdW  Elec       q    Type
REMARK                         _______ _______ _______ _____ _____    ______ ____
ROOT
ATOM      1  C   UNL     1       0.348   1.312  -0.003  0.00  0.00    +0.046 C 
ATOM      2  C   UNL     1       0.250  -0.188   0.106  0.00  0.00    -0.015 C 
ATOM      3  C   UNL     1       0.050  -0.968  -1.024  0.00  0.00    +0.118 C 
ATOM      4  C   UNL     1      -0.042  -2.423  -0.891  0.00  0.00    +0.264 C 
ATOM      5  O   UNL     1      -0.217  -3.107  -1.882  0.00  0.00    -0.269 OA
ATOM      6  N   UNL     1       0.067  -3.012   0.313  0.00  0.00    -0.226 N 
ATOM      7  C   UNL     1       0.261  -2.290   1.431  0.00  0.00    +0.255 C 
ATOM      8  O   UNL     1       0.354  -2.853   2.506  0.00  0.00    -0.269 OA
ATOM      9  C   UNL     1       0.367  -0.827   1.361  0.00  0.00    +0.055 C 
ATOM     10  C   UNL     1       0.574  -0.079   2.516  0.00  0.00    +0.085 C 
ENDROOT
BRANCH  10  11
ATOM     11  N   UNL     1       0.836  -0.700   3.681  0.00  0.00    -0.319 N 
ATOM     12  H   UNL     1       0.970  -1.660   3.699  0.00  0.00    +0.152 HD
BRANCH  11  13
ATOM     13  C   UNL     1       0.915   0.040   4.864  0.00  0.00    +0.045 A 
ATOM     14  C   UNL     1       0.718   1.415   4.840  0.00  0.00    +0.026 A 
ATOM     15  C   UNL     1       0.797   2.143   6.011  0.00  0.00    +0.034 A 
ATOM     16  C   UNL     1       1.072   1.505   7.207  0.00  0.00    +0.127 A 
ATOM     17  C   UNL     1       1.270   0.137   7.235  0.00  0.00    +0.049 A 
ATOM     18  C   UNL     1       1.186  -0.599   6.068  0.00  0.00    +0.041 A 
ATOM     19 BR   UNL     1       1.448  -2.471   6.109  0.00  0.00    -0.048 Br
BRANCH  16  20
ATOM     20  N   UNL     1       1.157   2.289   8.460  0.00  0.00    +0.056 N 
ATOM     21  O   UNL     1       0.985   3.486   8.437  0.00  0.00    -0.126 OA
ATOM     22  O   UNL     1       1.397   1.733   9.506  0.00  0.00    -0.126 OA
ENDBRANCH  16  20
ENDBRANCH  11  13
ENDBRANCH  10  11
BRANCH   6  23
ATOM     23  C   UNL     1      -0.030  -4.471   0.408  0.00  0.00    +0.112 C 
ATOM     24  C   UNL     1      -0.010  -5.077  -0.997  0.00  0.00    +0.033 C 
BRANCH  23  25
ATOM     25  C   UNL     1      -1.316  -4.845   1.098  0.00  0.00    -0.027 A 
ATOM     26  C   UNL     1      -2.499  -4.230   0.736  0.00  0.00    +0.005 A 
ATOM     27  C   UNL     1      -3.679  -4.573   1.369  0.00  0.00    +0.000 A 
ATOM     28  C   UNL     1      -3.676  -5.533   2.364  0.00  0.00    +0.000 A 
ATOM     29  C   UNL     1      -2.492  -6.149   2.726  0.00  0.00    +0.000 A 
ATOM     30  C   UNL     1      -1.313  -5.809   2.090  0.00  0.00    +0.005 A 
ENDBRANCH  23  25
ENDBRANCH   6  23
BRANCH   3  31
ATOM     31  C   UNL     1      -0.068  -0.353  -2.312  0.00  0.00    +0.105 C 
ATOM     32  N   UNL     1      -0.161   0.134  -3.334  0.00  0.00    -0.191 NA
ENDBRANCH   3  31
TORSDOF 6
