REMARK  Name = ZINC45047867
REMARK  6 active torsions:
REMARK  status: ('A' for Active; 'I' for Inactive)
REMARK    1  A    between atoms: C_1  and  C_2
REMARK    2  A    between atoms: C_2  and  C_4
REMARK    3  A    between atoms: C_2  and  N_23
REMARK    4  A    between atoms: C_4  and  C_6
REMARK    5  A    between atoms: C_4  and  N_13
REMARK    6  A    between atoms: C_17  and  C_18
REMARK                            x       y       z     vdW  Elec       q    Type
REMARK                         _______ _______ _______ _____ _____    ______ ____
ROOT
ATOM      1  C   UNL     1       0.742  -0.511   1.242  0.00  0.00    +0.104 C 
ENDROOT
BRANCH   1   2
ATOM      2  C   UNL     1       2.156   0.011   1.231  0.00  0.00    -0.026 A 
ATOM      3  C   UNL     1       3.000  -0.301   0.181  0.00  0.00    +0.007 A 
ATOM      4  C   UNL     1       4.296   0.177   0.171  0.00  0.00    +0.015 A 
ATOM      5  C   UNL     1       4.750   0.969   1.211  0.00  0.00    +0.018 A 
ATOM      6  C   UNL     1       3.905   1.281   2.261  0.00  0.00    +0.015 A 
ATOM      7  C   UNL     1       2.607   0.806   2.268  0.00  0.00    +0.007 A 
ATOM      8 BR   UNL     1       6.524   1.623   1.197  0.00  0.00    -0.050 Br
ENDBRANCH   1   2
BRANCH   1   9
ATOM      9  N   UNL     1       0.762  -1.976   1.234  0.00  0.00    -0.324 N 
ATOM     10  C   UNL     1       1.320  -2.779   0.272  0.00  0.00    +0.108 A 
ATOM     11  C   UNL     1       1.115  -4.055   0.655  0.00  0.00    +0.131 A 
ATOM     12  N   UNL     1       0.450  -4.047   1.817  0.00  0.00    -0.235 NA
ATOM     13  C   UNL     1       0.233  -2.801   2.185  0.00  0.00    +0.148 A 
BRANCH  13  14
ATOM     14  C   UNL     1      -0.463  -2.372   3.409  0.00  0.00    +0.055 A 
ATOM     15  C   UNL     1      -1.247  -3.108   4.261  0.00  0.00    +0.019 A 
ATOM     16  C   UNL     1      -1.799  -2.484   5.356  0.00  0.00    +0.008 A 
ATOM     17  C   UNL     1      -1.553  -1.163   5.559  0.00  0.00    +0.046 A 
ATOM     18  S   UNL     1      -0.500  -0.760   4.176  0.00  0.00    -0.094 S 
ENDBRANCH  13  14
ENDBRANCH   1   9
BRANCH   1  20
ATOM     19  C   UNL     1      -0.019   1.526   0.010  0.00  0.00    -0.012 C 
ATOM     20  C   UNL     1       0.002  -0.004   0.002  0.00  0.00    -0.051 C 
BRANCH  20  21
ATOM     21  N   UNL     1      -1.376  -0.512   0.012  0.00  0.00    +0.381 N 
ATOM     22  H   UNL     1      -1.864  -0.178  -0.805  0.00  0.00    -0.090 HD
ATOM     23  H   UNL     1      -1.362  -1.521   0.007  0.00  0.00    -0.090 HD
ATOM     24  H   UNL     1      -1.848  -0.187   0.843  0.00  0.00    -0.090 HD
ENDBRANCH  20  21
ENDBRANCH   1  20
TORSDOF 5
