REMARK  Name = ZINC51700126
REMARK  4 active torsions:
REMARK  status: ('A' for Active; 'I' for Inactive)
REMARK    1  A    between atoms: C_1  and  O_2
REMARK    2  A    between atoms: O_2  and  C_3
REMARK    3  A    between atoms: C_3  and  C_4
REMARK    4  A    between atoms: C_10  and  C_12
REMARK                            x       y       z     vdW  Elec       q    Type
REMARK                         _______ _______ _______ _____ _____    ______ ____
ROOT
ATOM      1  C   UNL     1       0.614  -2.074  -1.042  0.00  0.00    +0.074 A 
ATOM      2  C   UNL     1      -0.086  -2.796  -1.964  0.00  0.00    +0.095 A 
ATOM      3  C   UNL     1      -0.108  -4.201  -1.854  0.00  0.00    +0.252 A 
ATOM      4  O   UNL     1      -0.723  -4.878  -2.660  0.00  0.00    -0.268 OA
ATOM      5  N   UNL     1       0.567  -4.782  -0.839  0.00  0.00    -0.307 N 
ATOM      6  H   UNL     1       0.567  -5.747  -0.744  0.00  0.00    +0.170 HD
ATOM      7  C   UNL     1       1.249  -4.007   0.051  0.00  0.00    +0.141 A 
ATOM      8  N   UNL     1       1.268  -2.694  -0.063  0.00  0.00    -0.232 NA
ENDROOT
BRANCH   7   9
ATOM      9  C   UNL     1       1.984  -4.649   1.158  0.00  0.00    +0.022 A 
ATOM     10  C   UNL     1       2.683  -3.867   2.081  0.00  0.00    +0.061 A 
ATOM     11  C   UNL     1       3.370  -4.472   3.118  0.00  0.00    +0.164 A 
ATOM     12  C   UNL     1       3.363  -5.859   3.242  0.00  0.00    +0.180 A 
ATOM     13  C   UNL     1       2.669  -6.636   2.322  0.00  0.00    +0.087 A 
ATOM     14  C   UNL     1       1.978  -6.040   1.289  0.00  0.00    +0.035 A 
ATOM     15 CL   UNL     1       2.667  -8.365   2.478  0.00  0.00    -0.080 Cl
ATOM     16  O   UNL     1       4.027  -6.468   4.261  0.00  0.00    -0.483 OA
ATOM     17  C   UNL     1       5.016  -5.689   4.943  0.00  0.00    +0.270 C 
ATOM     18  C   UNL     1       4.415  -4.311   5.248  0.00  0.00    +0.270 C 
ATOM     19  O   UNL     1       4.049  -3.696   4.008  0.00  0.00    -0.485 OA
ENDBRANCH   7   9
BRANCH   1  20
ATOM     20  C   UNL     1       0.652  -0.570  -1.138  0.00  0.00    +0.214 C 
BRANCH  20  22
ATOM     21  C   UNL     1      -0.017   1.425   0.010  0.00  0.00    +0.194 C 
ATOM     22  O   UNL     1       0.002  -0.004   0.002  0.00  0.00    -0.377 OA
ENDBRANCH  20  22
ENDBRANCH   1  20
TORSDOF 3
