REMARK  Name = ZINC39675632
REMARK  10 active torsions:
REMARK  status: ('A' for Active; 'I' for Inactive)
REMARK    1  A    between atoms: C_1  and  C_2
REMARK    2  A    between atoms: C_2  and  C_3
REMARK    3  A    between atoms: C_6  and  C_9
REMARK    4  A    between atoms: C_13  and  C_22
REMARK    5  A    between atoms: N_24  and  C_25
REMARK    6  A    between atoms: C_25  and  C_26
REMARK    7  A    between atoms: C_26  and  C_28
REMARK    8  A    between atoms: C_26  and  N_34
REMARK    9  A    between atoms: N_34  and  C_35
REMARK   10  A    between atoms: N_34  and  C_36
REMARK                            x       y       z     vdW  Elec       q    Type
REMARK                         _______ _______ _______ _____ _____    ______ ____
ROOT
ATOM      1  C   UNL     1      -5.440  -2.029   0.058  0.00  0.00    +0.247 C 
ATOM      2  O   UNL     1      -5.974  -2.342   1.104  0.00  0.00    -0.270 OA
ATOM      3  N   UNL     1      -6.109  -2.157  -1.105  0.00  0.00    -0.296 N 
ATOM      4  C   UNL     1      -5.590  -1.956  -2.478  0.00  0.00    +0.121 C 
ATOM      5  C   UNL     1      -6.249  -3.077  -3.313  0.00  0.00    +0.100 C 
ATOM      6  C   UNL     1      -7.523  -3.449  -2.534  0.00  0.00    -0.004 C 
ATOM      7  C   UNL     1      -7.529  -2.537  -1.299  0.00  0.00    +0.115 C 
ATOM      8  C   UNL     1      -8.759  -3.190  -3.390  0.00  0.00    -0.010 C 
ATOM      9  C   UNL     1     -10.008  -3.621  -2.617  0.00  0.00    -0.082 C 
ATOM     10  N   UNL     1      -9.911  -5.046  -2.281  0.00  0.00    +0.379 N 
ATOM     11  C   UNL     1      -8.773  -5.272  -1.382  0.00  0.00    -0.082 C 
ATOM     12  C   UNL     1      -7.471  -4.911  -2.103  0.00  0.00    -0.010 C 
ATOM     13  H   UNL     1     -10.761  -5.342  -1.826  0.00  0.00    -0.086 HD
ATOM     14  H   UNL     1      -9.782  -5.582  -3.127  0.00  0.00    -0.086 HD
ENDROOT
BRANCH   1  18
ATOM     15  C   UNL     1      -1.463  -0.536   0.066  0.00  0.00    -0.048 A 
ATOM     16  C   UNL     1      -1.898  -1.344   1.102  0.00  0.00    +0.004 A 
ATOM     17  C   UNL     1      -3.188  -1.832   1.105  0.00  0.00    +0.013 A 
ATOM     18  C   UNL     1      -4.056  -1.509   0.061  0.00  0.00    +0.037 A 
ATOM     19  C   UNL     1      -3.611  -0.694  -0.981  0.00  0.00    +0.013 A 
ATOM     20  C   UNL     1      -2.320  -0.208  -0.970  0.00  0.00    +0.004 A 
BRANCH  15  22
ATOM     21  C   UNL     1      -0.013   1.336   0.801  0.00  0.00    +0.009 C 
ATOM     22  C   UNL     1      -0.052  -0.007   0.069  0.00  0.00    +0.032 C 
ENDBRANCH  15  22
ENDBRANCH   1  18
BRANCH   5  23
ATOM     23  C   UNL     1      -6.601  -2.571  -4.688  0.00  0.00    +0.218 C 
ATOM     24  O   UNL     1      -6.792  -1.387  -4.867  0.00  0.00    -0.275 OA
ATOM     25  N   UNL     1      -6.702  -3.434  -5.718  0.00  0.00    -0.316 N 
ATOM     26  H   UNL     1      -6.548  -4.381  -5.574  0.00  0.00    +0.149 HD
BRANCH  25  27
ATOM     27  C   UNL     1      -7.043  -2.942  -7.055  0.00  0.00    +0.093 C 
BRANCH  27  28
ATOM     28  C   UNL     1      -6.971  -4.096  -8.057  0.00  0.00    -0.021 C 
BRANCH  28  29
ATOM     29  C   UNL     1      -5.570  -4.651  -8.083  0.00  0.00    -0.059 A 
ATOM     30  C   UNL     1      -4.582  -4.004  -8.801  0.00  0.00    +0.002 A 
ATOM     31  C   UNL     1      -3.297  -4.514  -8.824  0.00  0.00    +0.000 A 
ATOM     32  C   UNL     1      -3.001  -5.671  -8.129  0.00  0.00    +0.000 A 
ATOM     33  C   UNL     1      -3.988  -6.318  -7.410  0.00  0.00    +0.000 A 
ATOM     34  C   UNL     1      -5.272  -5.806  -7.383  0.00  0.00    +0.002 A 
ENDBRANCH  28  29
BRANCH  28  35
ATOM     35  N   UNL     1      -7.327  -3.605  -9.395  0.00  0.00    +0.382 N 
ATOM     36  C   UNL     1      -7.370  -4.733 -10.335  0.00  0.00    -0.096 C 
ATOM     37  C   UNL     1      -8.645  -2.959  -9.345  0.00  0.00    -0.096 C 
ATOM     38  H   UNL     1      -6.636  -2.937  -9.704  0.00  0.00    -0.082 HD
ENDBRANCH  28  35
ENDBRANCH  27  28
ENDBRANCH  25  27
ENDBRANCH   5  23
TORSDOF 7
