REMARK  Name = ZINC09051732
REMARK  4 active torsions:
REMARK  status: ('A' for Active; 'I' for Inactive)
REMARK    1  A    between atoms: C_6  and  C_7
REMARK    2  A    between atoms: C_12  and  S_16
REMARK    3  A    between atoms: S_16  and  C_17
REMARK    4  A    between atoms: C_17  and  C_18
REMARK                            x       y       z     vdW  Elec       q    Type
REMARK                         _______ _______ _______ _____ _____    ______ ____
ROOT
ATOM      1  C   UNL     1       1.323  -0.302  -0.012  0.00  0.00    +0.001 A 
ATOM      2  C   UNL     1       0.016  -0.001   0.174  0.00  0.00    +0.056 A 
ATOM      3  S   UNL     1      -0.015   1.780   0.106  0.00  0.00    -0.076 S 
ATOM      4  C   UNL     1       1.711   2.080  -0.168  0.00  0.00    +0.113 A 
ATOM      5  C   UNL     1       2.274   0.788  -0.201  0.00  0.00    +0.047 A 
ATOM      6  C   UNL     1       3.678   0.739  -0.413  0.00  0.00    +0.109 A 
ATOM      7  N   UNL     1       4.349   1.871  -0.561  0.00  0.00    -0.229 NA
ATOM      8  C   UNL     1       3.756   3.050  -0.519  0.00  0.00    +0.223 A 
ATOM      9  N   UNL     1       2.455   3.158  -0.326  0.00  0.00    -0.228 NA
ENDROOT
BRANCH   1  15
ATOM     10  C   UNL     1       1.242  -2.612  -0.945  0.00  0.00    +0.011 A 
ATOM     11  C   UNL     1       1.673  -3.923  -0.956  0.00  0.00    +0.039 A 
ATOM     12  C   UNL     1       2.628  -4.348  -0.047  0.00  0.00    +0.123 A 
ATOM     13  C   UNL     1       3.160  -3.459   0.873  0.00  0.00    +0.039 A 
ATOM     14  C   UNL     1       2.739  -2.145   0.888  0.00  0.00    +0.011 A 
ATOM     15  C   UNL     1       1.778  -1.713  -0.025  0.00  0.00    -0.016 A 
ATOM     16  F   UNL     1       3.043  -5.634  -0.058  0.00  0.00    -0.205 F 
ENDBRANCH   1  15
BRANCH   6  17
ATOM     17  S   UNL     1       4.517  -0.809  -0.477  0.00  0.00    -0.096 S 
BRANCH  17  18
ATOM     18  C   UNL     1       6.211  -0.238  -0.759  0.00  0.00    +0.172 C 
BRANCH  18  19
ATOM     19  C   UNL     1       7.133  -1.426  -0.850  0.00  0.00    +0.231 C 
ATOM     20  O   UNL     1       6.689  -2.549  -0.737  0.00  0.00    -0.274 OA
ATOM     21  N   UNL     1       8.452  -1.241  -1.059  0.00  0.00    -0.240 N 
ATOM     22  C   UNL     1       9.277  -2.304  -1.141  0.00  0.00    +0.303 C 
ATOM     23  O   UNL     1       8.832  -3.429  -1.027  0.00  0.00    -0.253 OA
ATOM     24  N   UNL     1      10.595  -2.119  -1.349  0.00  0.00    -0.313 N 
ATOM     25  H   UNL     1       8.807  -0.343  -1.150  0.00  0.00    +0.159 HD
ATOM     26  H   UNL     1      10.951  -1.221  -1.441  0.00  0.00    +0.146 HD
ATOM     27  H   UNL     1      11.189  -2.884  -1.408  0.00  0.00    +0.146 HD
ENDBRANCH  18  19
ENDBRANCH  17  18
ENDBRANCH   6  17
TORSDOF 4
