REMARK  Name = ZINC44714282
REMARK  9 active torsions:
REMARK  status: ('A' for Active; 'I' for Inactive)
REMARK    1  A    between atoms: C_1  and  C_2
REMARK    2  A    between atoms: C_3  and  C_9
REMARK    3  A    between atoms: C_4  and  C_8
REMARK    4  A    between atoms: C_9  and  C_11
REMARK    5  A    between atoms: C_9  and  N_12
REMARK    6  A    between atoms: C_13  and  C_15
REMARK    7  A    between atoms: C_26  and  C_28
REMARK    8  A    between atoms: C_35  and  C_39
REMARK    9  A    between atoms: N_37  and  C_38
REMARK                            x       y       z     vdW  Elec       q    Type
REMARK                         _______ _______ _______ _____ _____    ______ ____
ROOT
ATOM      1  C   UNL     1       2.456  -1.762  -5.675  0.00  0.00    +0.100 C 
ATOM      2  C   UNL     1       3.661  -1.790  -4.709  0.00  0.00    +0.121 C 
ATOM      3  N   UNL     1       4.837  -1.521  -5.569  0.00  0.00    -0.296 N 
ATOM      4  C   UNL     1       4.367  -0.488  -6.523  0.00  0.00    +0.115 C 
ATOM      5  C   UNL     1       2.923  -0.906  -6.864  0.00  0.00    -0.004 C 
ATOM      6  C   UNL     1       2.901  -1.729  -8.149  0.00  0.00    -0.010 C 
ATOM      7  C   UNL     1       3.315  -0.842  -9.326  0.00  0.00    -0.082 C 
ATOM      8  N   UNL     1       2.391   0.294  -9.433  0.00  0.00    +0.379 N 
ATOM      9  C   UNL     1       2.486   1.132  -8.232  0.00  0.00    -0.082 C 
ATOM     10  C   UNL     1       2.038   0.328  -7.008  0.00  0.00    -0.010 C 
ATOM     11  C   UNL     1       6.058  -2.087  -5.500  0.00  0.00    +0.250 C 
ATOM     12  O   UNL     1       6.954  -1.690  -6.220  0.00  0.00    -0.270 OA
ATOM     13  H   UNL     1       2.629   0.844 -10.245  0.00  0.00    -0.086 HD
ATOM     14  H   UNL     1       1.447  -0.050  -9.527  0.00  0.00    -0.086 HD
ENDROOT
BRANCH  11  15
ATOM     15  C   UNL     1       6.308  -3.188  -4.549  0.00  0.00    +0.074 A 
ATOM     16  C   UNL     1       5.682  -3.200  -3.296  0.00  0.00    +0.127 A 
ATOM     17  N   UNL     1       5.890  -4.169  -2.437  0.00  0.00    -0.235 NA
ATOM     18  C   UNL     1       6.702  -5.186  -2.709  0.00  0.00    +0.160 A 
ATOM     19  C   UNL     1       7.371  -5.249  -3.948  0.00  0.00    +0.060 A 
ATOM     20  C   UNL     1       7.168  -4.235  -4.890  0.00  0.00    +0.067 A 
ATOM     21 CL   UNL     1       7.965  -4.273  -6.432  0.00  0.00    -0.082 Cl
ATOM     22  C   UNL     1       8.170  -6.470  -3.926  0.00  0.00    +0.071 A 
ATOM     23  N   UNL     1       7.972  -7.048  -2.777  0.00  0.00    -0.174 NA
ATOM     24  N   UNL     1       7.082  -6.295  -2.006  0.00  0.00    -0.249 N 
ATOM     25  C   UNL     1       6.628  -6.639  -0.656  0.00  0.00    +0.174 C 
ATOM     26  C   UNL     1       9.061  -6.971  -5.033  0.00  0.00    +0.068 C 
ENDBRANCH  11  15
BRANCH   1  28
ATOM     27  N   UNL     1       0.016  -1.492  -5.367  0.00  0.00    -0.308 N 
ATOM     28  C   UNL     1       1.263  -1.127  -5.008  0.00  0.00    +0.219 C 
ATOM     29  O   UNL     1       1.425  -0.287  -4.148  0.00  0.00    -0.275 OA
ATOM     30  H   UNL     1      -0.113  -2.163  -6.055  0.00  0.00    +0.149 HD
BRANCH  27  31
ATOM     31  C   UNL     1      -1.143  -0.874  -4.719  0.00  0.00    +0.104 C 
ATOM     32  C   UNL     1      -1.482   0.440  -5.425  0.00  0.00    +0.033 C 
BRANCH  31  35
ATOM     33  C   UNL     1      -3.114  -1.566  -2.390  0.00  0.00    +0.065 C 
ATOM     34  C   UNL     1      -3.175  -2.107  -3.795  0.00  0.00    +0.038 A 
ATOM     35  C   UNL     1      -2.322  -1.809  -4.803  0.00  0.00    +0.015 A 
ATOM     36  C   UNL     1      -2.729  -2.520  -5.936  0.00  0.00    +0.065 A 
ATOM     37  N   UNL     1      -3.788  -3.221  -5.620  0.00  0.00    -0.179 NA
ATOM     38  N   UNL     1      -4.086  -2.981  -4.272  0.00  0.00    -0.281 N 
ATOM     39  H   UNL     1      -4.818  -3.372  -3.771  0.00  0.00    +0.189 HD
ATOM     40  C   UNL     1      -2.064  -2.485  -7.287  0.00  0.00    +0.068 C 
ENDBRANCH  31  35
ENDBRANCH  27  31
ENDBRANCH   1  28
TORSDOF 4
