REMARK  Name = ZINC07572558
REMARK  5 active torsions:
REMARK  status: ('A' for Active; 'I' for Inactive)
REMARK    1  A    between atoms: C_1  and  C_2
REMARK    2  A    between atoms: C_4  and  C_18
REMARK    3  A    between atoms: C_7  and  C_12
REMARK    4  A    between atoms: C_23  and  O_24
REMARK    5  A    between atoms: O_24  and  C_25
REMARK                            x       y       z     vdW  Elec       q    Type
REMARK                         _______ _______ _______ _____ _____    ______ ____
ROOT
ATOM      1  C   UNL     1       7.020  -0.156  -3.079  0.00  0.00    +0.026 C 
ATOM      2  C   UNL     1       7.426   0.390  -1.708  0.00  0.00    +0.102 C 
ATOM      3  C   UNL     1       6.415   1.402  -1.262  0.00  0.00    +0.086 C 
ATOM      4  N   UNL     1       5.301   1.143  -0.670  0.00  0.00    -0.166 NA
ATOM      5  N   UNL     1       4.918  -0.152  -0.331  0.00  0.00    -0.186 N 
ATOM      6  C   UNL     1       3.695  -0.684  -0.038  0.00  0.00    +0.186 A 
ATOM      7  N   UNL     1       3.888  -1.960   0.232  0.00  0.00    -0.126 NA
ATOM      8  N   UNL     1       5.139  -2.256   0.116  0.00  0.00    -0.120 NA
ATOM      9  C   UNL     1       5.809  -1.196  -0.224  0.00  0.00    +0.213 A 
ATOM     10  S   UNL     1       7.533  -0.982  -0.527  0.00  0.00    -0.075 S 
ENDROOT
BRANCH   6  11
ATOM     11  C   UNL     1       2.404   0.034  -0.021  0.00  0.00    +0.021 A 
ATOM     12  C   UNL     1       1.204  -0.681  -0.013  0.00  0.00    +0.011 A 
ATOM     13  C   UNL     1       0.002  -0.004   0.002  0.00  0.00    +0.001 A 
ATOM     14  C   UNL     1      -0.017   1.379   0.010  0.00  0.00    +0.000 A 
ATOM     15  C   UNL     1       1.168   2.094   0.002  0.00  0.00    +0.001 A 
ATOM     16  C   UNL     1       2.377   1.430  -0.013  0.00  0.00    +0.011 A 
ENDBRANCH   6  11
BRANCH   3  17
ATOM     17  C   UNL     1       6.722   2.819  -1.525  0.00  0.00    +0.041 A 
ATOM     18  C   UNL     1       7.915   3.173  -2.159  0.00  0.00    +0.013 A 
ATOM     19  C   UNL     1       8.194   4.500  -2.407  0.00  0.00    +0.001 A 
ATOM     20  C   UNL     1       7.301   5.486  -2.020  0.00  0.00    +0.004 A 
ATOM     21  C   UNL     1       6.120   5.149  -1.387  0.00  0.00    +0.046 A 
ATOM     22  C   UNL     1       5.821   3.819  -1.135  0.00  0.00    +0.129 A 
BRANCH  22  23
ATOM     23  O   UNL     1       4.661   3.487  -0.512  0.00  0.00    -0.494 OA
ATOM     24  C   UNL     1       3.792   4.561  -0.144  0.00  0.00    +0.277 C 
ENDBRANCH  22  23
ENDBRANCH   3  17
TORSDOF 3
