REMARK  Name = ZINC14304203
REMARK  10 active torsions:
REMARK  status: ('A' for Active; 'I' for Inactive)
REMARK    1  A    between atoms: C_1  and  C_2
REMARK    2  A    between atoms: C_2  and  C_3
REMARK    3  A    between atoms: C_3  and  C_4
REMARK    4  A    between atoms: C_4  and  C_5
REMARK    5  A    between atoms: C_5  and  C_7
REMARK    6  A    between atoms: C_5  and  N_20
REMARK    7  A    between atoms: N_9  and  N_10
REMARK    8  A    between atoms: C_11  and  C_13
REMARK    9  A    between atoms: C_15  and  C_19
REMARK   10  A    between atoms: C_17  and  C_18
REMARK                            x       y       z     vdW  Elec       q    Type
REMARK                         _______ _______ _______ _____ _____    ______ ____
ROOT
ATOM      1  C   UNL     1      -1.214   3.562   0.027  0.00  0.00    +0.159 C 
ENDROOT
BRANCH   1   2
ATOM      2  N   UNL     1      -2.601   4.031   0.036  0.00  0.00    -0.316 N 
ATOM      3  C   UNL     1      -2.905   5.274   0.549  0.00  0.00    +0.150 C 
ATOM      4  N   UNL     1      -1.970   6.030   1.029  0.00  0.00    -0.113 NA
ATOM      5  S   UNL     1      -2.732   7.430   1.540  0.00  0.00    +0.101 S 
ATOM      6  O   UNL     1      -2.311   8.490   0.692  0.00  0.00    -0.146 OA
ATOM      7  O   UNL     1      -2.640   7.476   2.957  0.00  0.00    -0.146 OA
ATOM      8  C   UNL     1      -4.407   7.035   1.120  0.00  0.00    +0.123 A 
ATOM      9  C   UNL     1      -4.295   5.753   0.562  0.00  0.00    +0.043 A 
ATOM     10  C   UNL     1      -5.475   5.138   0.116  0.00  0.00    +0.013 A 
ATOM     11  C   UNL     1      -6.684   5.788   0.232  0.00  0.00    +0.001 A 
ATOM     12  C   UNL     1      -6.763   7.053   0.787  0.00  0.00    +0.002 A 
ATOM     13  C   UNL     1      -5.606   7.676   1.234  0.00  0.00    +0.030 A 
ATOM     14  H   UNL     1      -3.306   3.467  -0.319  0.00  0.00    +0.148 HD
ENDBRANCH   1   2
BRANCH   1  15
ATOM     15  C   UNL     1      -1.193   2.055   0.019  0.00  0.00    +0.249 C 
ATOM     16  O   UNL     1      -2.235   1.434   0.020  0.00  0.00    -0.272 OA
ATOM     17  N   UNL     1      -0.017   1.397   0.010  0.00  0.00    -0.233 N 
ATOM     18  H   UNL     1       0.816   1.893   0.004  0.00  0.00    +0.173 HD
BRANCH  17  19
ATOM     19  N   UNL     1       0.002  -0.004   0.002  0.00  0.00    -0.230 N 
ATOM     20  C   UNL     1       1.178  -0.662  -0.013  0.00  0.00    +0.263 C 
ATOM     21  O   UNL     1       2.223  -0.040  -0.019  0.00  0.00    -0.269 OA
ATOM     22  H   UNL     1      -0.831  -0.500   0.007  0.00  0.00    +0.173 HD
BRANCH  20  23
ATOM     23  C   UNL     1       1.198  -2.136  -0.021  0.00  0.00    +0.079 A 
ATOM     24  C   UNL     1       0.039  -3.040  -0.008  0.00  0.00    +0.057 A 
ATOM     25  C   UNL     1       0.542  -4.284  -0.026  0.00  0.00    +0.103 A 
ATOM     26  O   UNL     1       1.883  -4.216  -0.039  0.00  0.00    -0.464 OA
ATOM     27  C   UNL     1       2.296  -2.945  -0.036  0.00  0.00    +0.114 A 
ATOM     28  C   UNL     1       3.731  -2.485  -0.048  0.00  0.00    +0.087 C 
ATOM     29  C   UNL     1      -0.269  -5.554  -0.025  0.00  0.00    +0.086 C 
ENDBRANCH  20  23
ENDBRANCH  17  19
ENDBRANCH   1  15
BRANCH   1  30
ATOM     30  C   UNL     1      -0.505   4.088  -1.223  0.00  0.00    +0.032 C 
BRANCH  30  31
ATOM     31  C   UNL     1      -0.416   5.614  -1.153  0.00  0.00    +0.002 C 
BRANCH  31  33
ATOM     32  C   UNL     1       0.382   7.666  -2.334  0.00  0.00    +0.004 C 
ATOM     33  C   UNL     1       0.292   6.141  -2.403  0.00  0.00    -0.003 C 
ENDBRANCH  31  33
ENDBRANCH  30  31
ENDBRANCH   1  30
TORSDOF 7
