REMARK  Name = ZINC40317426
REMARK  10 active torsions:
REMARK  status: ('A' for Active; 'I' for Inactive)
REMARK    1  A    between atoms: C_1  and  C_2
REMARK    2  A    between atoms: C_4  and  O_9
REMARK    3  A    between atoms: O_9  and  C_10
REMARK    4  A    between atoms: C_10  and  C_11
REMARK    5  A    between atoms: C_11  and  C_13
REMARK    6  A    between atoms: C_11  and  O_32
REMARK    7  A    between atoms: C_13  and  N_14
REMARK    8  A    between atoms: N_14  and  C_15
REMARK    9  A    between atoms: N_14  and  C_24
REMARK   10  A    between atoms: C_15  and  C_16
REMARK                            x       y       z     vdW  Elec       q    Type
REMARK                         _______ _______ _______ _____ _____    ______ ____
ROOT
ATOM      1  N   UNL     1      -1.529  -6.951  -4.301  0.00  0.00    +0.387 N 
ATOM      2  H   UNL     1      -2.262  -6.611  -4.906  0.00  0.00    -0.081 HD
ENDROOT
BRANCH   1   3
ATOM      3  C   UNL     1      -0.506  -5.909  -4.139  0.00  0.00    -0.045 C 
ATOM      4  C   UNL     1       0.199  -5.659  -5.482  0.00  0.00    +0.009 C 
ATOM      5  C   UNL     1       1.475  -4.812  -5.259  0.00  0.00    +0.164 C 
ATOM      6  S   UNL     1       1.961  -5.258  -3.542  0.00  0.00    -0.033 S 
ATOM      7  O   UNL     1       1.891  -4.097  -2.726  0.00  0.00    -0.174 OA
ATOM      8  O   UNL     1       3.164  -6.012  -3.583  0.00  0.00    -0.174 OA
ATOM      9  C   UNL     1       0.564  -6.379  -3.111  0.00  0.00    +0.151 C 
ENDBRANCH   1   3
BRANCH   1  10
ATOM     10  C   UNL     1      -2.095  -7.290  -2.989  0.00  0.00    -0.043 C 
BRANCH  10  11
ATOM     11  C   UNL     1      -2.889  -6.098  -2.452  0.00  0.00    +0.135 C 
BRANCH  11  12
ATOM     12  O   UNL     1      -1.994  -5.026  -2.150  0.00  0.00    -0.390 OA
ATOM     13  H   UNL     1      -1.287  -5.266  -1.535  0.00  0.00    +0.210 HD
ENDBRANCH  11  12
BRANCH  11  14
ATOM     14  C   UNL     1      -3.636  -6.513  -1.183  0.00  0.00    +0.258 C 
BRANCH  14  15
ATOM     15  O   UNL     1      -4.469  -5.436  -0.747  0.00  0.00    -0.489 OA
BRANCH  15  19
ATOM     16  C   UNL     1      -7.687  -3.762   2.518  0.00  0.00    +0.045 C 
ATOM     17  C   UNL     1      -6.785  -4.851   1.997  0.00  0.00    -0.029 A 
ATOM     18  C   UNL     1      -6.036  -4.640   0.855  0.00  0.00    +0.050 A 
ATOM     19  C   UNL     1      -5.206  -5.642   0.376  0.00  0.00    +0.121 A 
ATOM     20  C   UNL     1      -5.130  -6.856   1.044  0.00  0.00    +0.047 A 
ATOM     21  C   UNL     1      -5.880  -7.063   2.185  0.00  0.00    +0.024 A 
ATOM     22  C   UNL     1      -6.703  -6.059   2.665  0.00  0.00    +0.044 A 
ATOM     23 CL   UNL     1      -7.640  -6.320   4.103  0.00  0.00    -0.083 Cl
ENDBRANCH  15  19
ENDBRANCH  14  15
ENDBRANCH  11  14
ENDBRANCH  10  11
ENDBRANCH   1  10
BRANCH   1  24
ATOM     24  C   UNL     1      -0.919  -8.148  -4.896  0.00  0.00    -0.041 C 
BRANCH  24  25
ATOM     25  C   UNL     1      -1.506  -8.384  -6.264  0.00  0.00    -0.046 A 
ATOM     26  C   UNL     1      -2.878  -8.378  -6.437  0.00  0.00    +0.004 A 
ATOM     27  C   UNL     1      -3.417  -8.595  -7.691  0.00  0.00    +0.020 A 
ATOM     28  C   UNL     1      -2.584  -8.817  -8.774  0.00  0.00    +0.042 A 
ATOM     29  C   UNL     1      -1.212  -8.823  -8.601  0.00  0.00    +0.040 A 
ATOM     30  C   UNL     1      -0.673  -8.601  -7.346  0.00  0.00    +0.044 A 
ATOM     31 CL   UNL     1       1.050  -8.602  -7.129  0.00  0.00    -0.083 Cl
ATOM     32 CL   UNL     1      -3.262  -9.090 -10.348  0.00  0.00    -0.083 Cl
ENDBRANCH  24  25
ENDBRANCH   1  24
TORSDOF 9
