REMARK  Name = ZINC58951470
REMARK  9 active torsions:
REMARK  status: ('A' for Active; 'I' for Inactive)
REMARK    1  A    between atoms: C_1  and  C_2
REMARK    2  A    between atoms: N_5  and  C_9
REMARK    3  A    between atoms: C_9  and  C_11
REMARK    4  A    between atoms: C_9  and  C_27
REMARK    5  A    between atoms: C_11  and  N_12
REMARK    6  A    between atoms: C_13  and  C_15
REMARK    7  A    between atoms: C_15  and  C_16
REMARK    8  A    between atoms: C_16  and  C_18
REMARK    9  A    between atoms: C_16  and  N_23
REMARK                            x       y       z     vdW  Elec       q    Type
REMARK                         _______ _______ _______ _____ _____    ______ ____
ROOT
ATOM      1  N   UNL     1      -1.724  -4.471  -1.278  0.00  0.00    -0.313 N 
ATOM      2  C   UNL     1      -1.367  -5.730  -1.602  0.00  0.00    +0.215 C 
ATOM      3  O   UNL     1      -1.800  -6.666  -0.964  0.00  0.00    -0.276 OA
ATOM      4  H   UNL     1      -1.378  -3.722  -1.789  0.00  0.00    +0.149 HD
ENDROOT
BRANCH   1   5
ATOM      5  C   UNL     1      -2.635  -4.233  -0.155  0.00  0.00    +0.128 C 
BRANCH   5   6
ATOM      6  C   UNL     1      -2.708  -2.733   0.133  0.00  0.00    +0.108 C 
BRANCH   6   7
ATOM      7  C   UNL     1      -3.677  -2.484   1.260  0.00  0.00    +0.025 A 
ATOM      8  C   UNL     1      -4.503  -3.505   1.701  0.00  0.00    +0.129 A 
ATOM      9  C   UNL     1      -5.393  -3.275   2.736  0.00  0.00    +0.039 A 
ATOM     10  C   UNL     1      -5.456  -2.028   3.330  0.00  0.00    +0.004 A 
ATOM     11  C   UNL     1      -4.632  -1.010   2.890  0.00  0.00    +0.020 A 
ATOM     12  C   UNL     1      -3.738  -1.239   1.859  0.00  0.00    +0.048 A 
ATOM     13 CL   UNL     1      -2.697   0.038   1.312  0.00  0.00    -0.083 Cl
ATOM     14  F   UNL     1      -4.441  -4.723   1.120  0.00  0.00    -0.205 F 
ENDBRANCH   6   7
BRANCH   6  18
ATOM     15  C   UNL     1       1.574  -3.814   2.306  0.00  0.00    +0.039 C 
ATOM     16  C   UNL     1       0.741  -2.713   1.647  0.00  0.00    +0.129 C 
ATOM     17  C   UNL     1      -0.612  -3.284   1.216  0.00  0.00    +0.116 C 
ATOM     18  N   UNL     1      -1.377  -2.242   0.515  0.00  0.00    -0.289 NA
ATOM     19  C   UNL     1      -0.638  -1.755  -0.659  0.00  0.00    +0.113 C 
ATOM     20  C   UNL     1       0.716  -1.200  -0.210  0.00  0.00    +0.175 C 
ATOM     21  O   UNL     1       1.432  -2.216   0.497  0.00  0.00    -0.374 OA
ENDBRANCH   6  18
ENDBRANCH   5   6
ENDBRANCH   1   5
BRANCH   2  22
ATOM     22  C   UNL     1      -0.431  -5.974  -2.757  0.00  0.00    +0.123 C 
BRANCH  22  23
ATOM     23  C   UNL     1      -0.191  -7.477  -2.909  0.00  0.00    +0.120 C 
BRANCH  23  24
ATOM     24  N   UNL     1       0.512  -7.982  -1.727  0.00  0.00    -0.292 N 
ATOM     25  C   UNL     1       0.400  -9.279  -1.379  0.00  0.00    +0.298 C 
ATOM     26  O   UNL     1      -0.285 -10.030  -2.046  0.00  0.00    -0.253 OA
ATOM     27  N   UNL     1       1.046  -9.743  -0.291  0.00  0.00    -0.313 N 
ATOM     28  H   UNL     1       1.059  -7.382  -1.195  0.00  0.00    +0.151 HD
ATOM     29  H   UNL     1       1.593  -9.144   0.241  0.00  0.00    +0.146 HD
ATOM     30  H   UNL     1       0.965 -10.677  -0.040  0.00  0.00    +0.146 HD
ENDBRANCH  23  24
BRANCH  23  31
ATOM     31  C   UNL     1       0.646  -7.730  -4.137  0.00  0.00    +0.010 A 
ATOM     32  C   UNL     1       0.252  -8.128  -5.372  0.00  0.00    +0.013 A 
ATOM     33  C   UNL     1       1.205  -8.298  -6.358  0.00  0.00    +0.008 A 
ATOM     34  C   UNL     1       2.507  -8.062  -6.061  0.00  0.00    +0.045 A 
ATOM     35  S   UNL     1       2.412  -7.577  -4.346  0.00  0.00    -0.100 S 
ENDBRANCH  23  31
ENDBRANCH  22  23
ENDBRANCH   2  22
TORSDOF 8
