REMARK  Name = ZINC14731368
REMARK  9 active torsions:
REMARK  status: ('A' for Active; 'I' for Inactive)
REMARK    1  A    between atoms: C_1  and  C_2
REMARK    2  A    between atoms: C_2  and  C_3
REMARK    3  A    between atoms: C_2  and  C_4
REMARK    4  A    between atoms: C_4  and  C_5
REMARK    5  A    between atoms: C_5  and  N_6
REMARK    6  A    between atoms: N_9  and  C_28
REMARK    7  A    between atoms: C_17  and  C_18
REMARK    8  A    between atoms: C_17  and  N_62
REMARK    9  A    between atoms: C_28  and  C_29
REMARK                            x       y       z     vdW  Elec       q    Type
REMARK                         _______ _______ _______ _____ _____    ______ ____
ROOT
ATOM      1  N   UNL     1      -2.139   1.543   2.919  0.00  0.00    -0.271 N 
ATOM      2  C   UNL     1      -1.657   0.880   1.851  0.00  0.00    +0.312 C 
ATOM      3  O   UNL     1      -2.058  -0.210   1.494  0.00  0.00    -0.252 OA
ATOM      4  N   UNL     1      -0.685   1.557   1.226  0.00  0.00    -0.215 N 
ATOM      5  C   UNL     1      -0.431   2.736   1.833  0.00  0.00    +0.247 C 
ATOM      6  O   UNL     1       0.391   3.566   1.510  0.00  0.00    -0.273 OA
ATOM      7  C   UNL     1      -1.390   2.803   2.999  0.00  0.00    +0.112 C 
ATOM      8  C   UNL     1      -0.621   2.887   4.313  0.00  0.00    +0.017 C 
ATOM      9  C   UNL     1      -1.613   2.979   5.476  0.00  0.00    -0.076 C 
ATOM     10  C   UNL     1      -3.268   4.051   4.064  0.00  0.00    -0.076 C 
ATOM     11  C   UNL     1      -2.331   3.995   2.854  0.00  0.00    +0.017 C 
ATOM     12  N   UNL     1      -2.454   4.181   5.292  0.00  0.00    +0.383 N 
ATOM     13  H   UNL     1      -1.845   5.003   5.203  0.00  0.00    -0.081 HD
ENDROOT
BRANCH   1  14
ATOM     14  C   UNL     1      -3.201   1.094   3.824  0.00  0.00    +0.110 C 
BRANCH  14  15
ATOM     15  C   UNL     1      -4.528   1.040   3.066  0.00  0.00    +0.022 C 
BRANCH  15  17
ATOM     16  C   UNL     1      -7.000   0.764   3.306  0.00  0.00    +0.007 C 
ATOM     17  C   UNL     1      -5.658   0.696   4.038  0.00  0.00    -0.016 C 
ATOM     18  C   UNL     1      -5.447  -0.717   4.586  0.00  0.00    +0.007 C 
ENDBRANCH  15  17
ENDBRANCH  14  15
ENDBRANCH   1  14
BRANCH  12  19
ATOM     19  C   UNL     1      -3.336   4.364   6.464  0.00  0.00    -0.025 C 
BRANCH  19  20
ATOM     20  C   UNL     1      -2.488   4.710   7.660  0.00  0.00    +0.000 A 
ATOM     21  C   UNL     1      -2.055   3.832   8.578  0.00  0.00    +0.029 A 
ATOM     22  C   UNL     1      -1.267   4.587   9.555  0.00  0.00    -0.000 A 
ATOM     23  C   UNL     1      -0.570   4.242  10.715  0.00  0.00    +0.010 A 
ATOM     24  C   UNL     1       0.078   5.210  11.430  0.00  0.00    +0.001 A 
ATOM     25  C   UNL     1       0.049   6.534  11.012  0.00  0.00    +0.002 A 
ATOM     26  C   UNL     1      -0.633   6.896   9.872  0.00  0.00    +0.026 A 
ATOM     27  C   UNL     1      -1.300   5.927   9.128  0.00  0.00    +0.047 A 
ATOM     28  N   UNL     1      -2.050   5.968   7.974  0.00  0.00    -0.360 N 
ATOM     29  H   UNL     1      -2.239   6.768   7.460  0.00  0.00    +0.166 HD
ENDBRANCH  19  20
ENDBRANCH  12  19
BRANCH   4  30
ATOM     30  C   UNL     1       0.020   1.076   0.035  0.00  0.00    +0.213 C 
BRANCH  30  31
ATOM     31  C   UNL     1      -0.708   1.539  -1.200  0.00  0.00    +0.228 C 
ATOM     32  O   UNL     1      -1.715   2.206  -1.097  0.00  0.00    -0.274 OA
ATOM     33  N   UNL     1      -0.238   1.212  -2.421  0.00  0.00    -0.328 N 
ATOM     34  H   UNL     1       0.568   0.679  -2.504  0.00  0.00    +0.145 HD
ATOM     35  H   UNL     1      -0.706   1.511  -3.216  0.00  0.00    +0.145 HD
ENDBRANCH  30  31
ENDBRANCH   4  30
TORSDOF 7
