REMARK  Name = ZINC06017599
REMARK  14 active torsions:
REMARK  status: ('A' for Active; 'I' for Inactive)
REMARK    1  A    between atoms: C_1  and  C_2
REMARK    2  A    between atoms: C_2  and  C_3
REMARK    3  A    between atoms: C_3  and  C_4
REMARK    4  A    between atoms: C_4  and  N_5
REMARK    5  A    between atoms: C_9  and  S_29
REMARK    6  A    between atoms: C_13  and  S_14
REMARK    7  A    between atoms: S_14  and  C_15
REMARK    8  A    between atoms: C_15  and  C_16
REMARK    9  A    between atoms: N_18  and  C_19
REMARK   10  A    between atoms: C_21  and  C_27
REMARK   11  A    between atoms: C_21  and  C_28
REMARK   12  A    between atoms: C_23  and  C_25
REMARK   13  A    between atoms: C_23  and  C_26
REMARK   14  A    between atoms: S_29  and  N_32
REMARK                            x       y       z     vdW  Elec       q    Type
REMARK                         _______ _______ _______ _____ _____    ______ ____
ROOT
ATOM      1  N   UNL     1       1.717  -2.088  -1.610  0.00  0.00    -0.319 N 
ATOM      2  C   UNL     1       1.052  -2.263  -2.812  0.00  0.00    +0.070 A 
ATOM      3  C   UNL     1      -0.268  -2.111  -3.211  0.00  0.00    +0.030 A 
ATOM      4  C   UNL     1      -0.624  -2.371  -4.519  0.00  0.00    +0.030 A 
ATOM      5  C   UNL     1       0.329  -2.782  -5.438  0.00  0.00    +0.107 A 
ATOM      6  C   UNL     1       1.644  -2.938  -5.059  0.00  0.00    +0.058 A 
ATOM      7  C   UNL     1       2.021  -2.679  -3.739  0.00  0.00    +0.092 A 
ATOM      8  N   UNL     1       3.207  -2.739  -3.079  0.00  0.00    -0.222 NA
ATOM      9  C   UNL     1       3.033  -2.387  -1.828  0.00  0.00    +0.170 A 
ENDROOT
BRANCH   5  10
ATOM     10  S   UNL     1      -0.145  -3.109  -7.103  0.00  0.00    +0.056 S 
ATOM     11  O   UNL     1       0.823  -4.004  -7.634  0.00  0.00    -0.153 OA
ATOM     12  O   UNL     1      -1.533  -3.416  -7.077  0.00  0.00    -0.153 OA
BRANCH  10  13
ATOM     13  N   UNL     1       0.010  -1.691  -7.944  0.00  0.00    -0.204 NA
ATOM     14  H   UNL     1       0.317  -0.890  -7.491  0.00  0.00    +0.144 HD
ATOM     15  H   UNL     1      -0.206  -1.661  -8.889  0.00  0.00    +0.144 HD
ENDBRANCH  10  13
ENDBRANCH   5  10
BRANCH   1  16
ATOM     16  C   UNL     1       1.123  -1.658  -0.342  0.00  0.00    +0.124 C 
BRANCH  16  17
ATOM     17  C   UNL     1       1.171  -0.132  -0.248  0.00  0.00    +0.021 C 
BRANCH  17  19
ATOM     18  C   UNL     1       0.599   1.843   1.171  0.00  0.00    +0.004 C 
ATOM     19  C   UNL     1       0.550   0.317   1.077  0.00  0.00    -0.002 C 
ENDBRANCH  17  19
ENDBRANCH  16  17
ENDBRANCH   1  16
BRANCH   9  20
ATOM     20  S   UNL     1       4.303  -2.314  -0.610  0.00  0.00    -0.078 S 
BRANCH  20  21
ATOM     21  C   UNL     1       5.799  -2.817  -1.505  0.00  0.00    +0.173 C 
BRANCH  21  22
ATOM     22  C   UNL     1       6.977  -2.798  -0.566  0.00  0.00    +0.224 C 
ATOM     23  O   UNL     1       6.823  -2.477   0.594  0.00  0.00    -0.275 OA
ATOM     24  N   UNL     1       8.202  -3.138  -1.014  0.00  0.00    -0.312 N 
ATOM     25  H   UNL     1       8.325  -3.395  -1.941  0.00  0.00    +0.149 HD
BRANCH  24  26
ATOM     26  C   UNL     1       9.350  -3.119  -0.099  0.00  0.00    +0.070 C 
ATOM     27  C   UNL     1       9.439  -4.465   0.623  0.00  0.00    +0.009 C 
ATOM     28  C   UNL     1      10.637  -4.466   1.572  0.00  0.00    -0.072 C 
ATOM     29  N   UNL     1      11.875  -4.115   0.891  0.00  0.00    +0.386 N 
ATOM     30  C   UNL     1      11.856  -2.960   0.007  0.00  0.00    -0.072 C 
ATOM     31  C   UNL     1      10.633  -2.921  -0.904  0.00  0.00    +0.009 C 
ATOM     32  C   UNL     1      11.968  -1.647   0.787  0.00  0.00    -0.010 C 
ATOM     33  C   UNL     1      13.103  -3.052  -0.904  0.00  0.00    -0.010 C 
ATOM     34  C   UNL     1      10.794  -5.906   2.111  0.00  0.00    -0.010 C 
ATOM     35  C   UNL     1      10.363  -3.559   2.771  0.00  0.00    -0.010 C 
ATOM     36  H   UNL     1      12.599  -3.967   1.598  0.00  0.00    -0.084 HD
ATOM     37  H   UNL     1      12.187  -4.927   0.353  0.00  0.00    -0.084 HD
ENDBRANCH  24  26
ENDBRANCH  21  22
ENDBRANCH  20  21
ENDBRANCH   9  20
TORSDOF 9
