REMARK  Name = ZINC42029708
REMARK  5 active torsions:
REMARK  status: ('A' for Active; 'I' for Inactive)
REMARK    1  A    between atoms: C_4  and  N_8
REMARK    2  A    between atoms: C_9  and  C_11
REMARK    3  A    between atoms: N_13  and  C_14
REMARK    4  A    between atoms: C_14  and  C_15
REMARK    5  A    between atoms: C_15  and  C_16
REMARK                            x       y       z     vdW  Elec       q    Type
REMARK                         _______ _______ _______ _____ _____    ______ ____
ROOT
ATOM      1  C   UNL     1       4.951  -2.715   0.152  0.00  0.00    +0.299 C 
ATOM      2  O   UNL     1       5.991  -2.089   0.144  0.00  0.00    -0.265 OA
ATOM      3  N   UNL     1       4.974  -4.059   0.246  0.00  0.00    -0.307 N 
ATOM      4  H   UNL     1       4.143  -4.559   0.252  0.00  0.00    +0.149 HD
ENDROOT
BRANCH   1   6
ATOM      5  N   UNL     1       3.622  -0.651  -0.037  0.00  0.00    -0.275 N 
ATOM      6  C   UNL     1       3.646  -1.996   0.057  0.00  0.00    +0.303 C 
ATOM      7  O   UNL     1       2.606  -2.622   0.064  0.00  0.00    -0.265 OA
ATOM      8  H   UNL     1       4.452  -0.157  -0.124  0.00  0.00    +0.155 HD
BRANCH   5  12
ATOM      9  C   UNL     1      -0.015   1.382   0.042  0.00  0.00    +0.041 A 
ATOM     10  C   UNL     1       1.083   1.957  -0.572  0.00  0.00    +0.043 A 
ATOM     11  C   UNL     1       2.291   1.285  -0.601  0.00  0.00    +0.145 A 
ATOM     12  C   UNL     1       2.402   0.030  -0.010  0.00  0.00    +0.072 A 
ATOM     13  C   UNL     1       1.298  -0.544   0.606  0.00  0.00    +0.064 A 
ATOM     14  C   UNL     1       0.092   0.133   0.631  0.00  0.00    +0.125 A 
ATOM     15  F   UNL     1      -0.983  -0.424   1.230  0.00  0.00    -0.205 F 
ATOM     16  F   UNL     1       3.362   1.847  -1.202  0.00  0.00    -0.204 F 
ENDBRANCH   5  12
ENDBRANCH   1   6
BRANCH   3  17
ATOM     17  C   UNL     1       6.255  -4.765   0.340  0.00  0.00    +0.109 C 
BRANCH  17  18
ATOM     18  C   UNL     1       6.002  -6.271   0.435  0.00  0.00    +0.057 C 
BRANCH  18  19
ATOM     19  C   UNL     1       7.319  -6.996   0.532  0.00  0.00    -0.001 A 
ATOM     20  C   UNL     1       7.915  -7.498  -0.609  0.00  0.00    +0.045 A 
ATOM     21  C   UNL     1       9.125  -8.165  -0.521  0.00  0.00    +0.124 A 
ATOM     22  C   UNL     1       9.737  -8.332   0.710  0.00  0.00    +0.047 A 
ATOM     23  C   UNL     1       9.142  -7.832   1.853  0.00  0.00    +0.023 A 
ATOM     24  C   UNL     1       7.934  -7.156   1.765  0.00  0.00    +0.132 A 
ATOM     25  O   UNL     1       7.345  -6.647   2.880  0.00  0.00    -0.466 OA
ATOM     26  C   UNL     1       7.814  -7.137   4.140  0.00  0.00    +0.394 C 
ATOM     27  O   UNL     1       9.246  -7.110   4.137  0.00  0.00    -0.339 OA
ATOM     28  C   UNL     1       9.815  -8.022   3.188  0.00  0.00    +0.202 C 
ATOM     29  F   UNL     1       9.709  -8.655  -1.637  0.00  0.00    -0.205 F 
ENDBRANCH  18  19
ENDBRANCH  17  18
ENDBRANCH   3  17
TORSDOF 5
