REMARK  Name = ZINC23590802
REMARK  11 active torsions:
REMARK  status: ('A' for Active; 'I' for Inactive)
REMARK    1  A    between atoms: C_1  and  C_2
REMARK    2  A    between atoms: C_11  and  N_31
REMARK    3  A    between atoms: C_13  and  S_15
REMARK    4  A    between atoms: S_15  and  C_16
REMARK    5  A    between atoms: C_16  and  C_17
REMARK    6  A    between atoms: N_19  and  C_20
REMARK    7  A    between atoms: C_20  and  C_21
REMARK    8  A    between atoms: C_24  and  O_29
REMARK    9  A    between atoms: C_25  and  O_27
REMARK   10  A    between atoms: O_27  and  C_28
REMARK   11  A    between atoms: O_29  and  C_30
REMARK                            x       y       z     vdW  Elec       q    Type
REMARK                         _______ _______ _______ _____ _____    ______ ____
ROOT
ATOM      1  C   UNL     1       3.024  -3.717  -9.084  0.00  0.00    +0.008 C 
ATOM      2  C   UNL     1       2.473  -3.111  -7.791  0.00  0.00    -0.009 C 
ATOM      3  C   UNL     1       3.630  -2.575  -6.942  0.00  0.00    +0.008 C 
ATOM      4  C   UNL     1       3.120  -2.195  -5.551  0.00  0.00    +0.037 C 
ATOM      5  C   UNL     1       1.924  -1.258  -5.704  0.00  0.00    -0.025 A 
ATOM      6  C   UNL     1       1.251  -1.185  -6.869  0.00  0.00    -0.004 A 
ATOM      7  S   UNL     1      -0.030   0.008  -6.588  0.00  0.00    -0.073 S 
ATOM      8  C   UNL     1       0.341   0.407  -4.900  0.00  0.00    +0.115 A 
ATOM      9  C   UNL     1       1.455  -0.404  -4.610  0.00  0.00    +0.051 A 
ATOM     10  C   UNL     1       1.975  -0.284  -3.290  0.00  0.00    +0.129 A 
ATOM     11  N   UNL     1       1.404   0.558  -2.445  0.00  0.00    -0.207 NA
ATOM     12  C   UNL     1       0.350   1.291  -2.783  0.00  0.00    +0.191 A 
ATOM     13  N   UNL     1      -0.176   1.220  -3.999  0.00  0.00    -0.214 NA
ATOM     14  C   UNL     1       1.529  -1.948  -8.127  0.00  0.00    +0.046 C 
ENDROOT
BRANCH  10  15
ATOM     15  N   UNL     1       3.068  -1.035  -2.898  0.00  0.00    -0.343 N 
ATOM     16  H   UNL     1       3.465  -0.937  -1.877  0.00  0.00    +0.144 HD
ATOM     17  H   UNL     1       3.542  -1.729  -3.608  0.00  0.00    +0.144 HD
ENDBRANCH  10  15
BRANCH  12  18
ATOM     18  S   UNL     1      -0.359   2.384  -1.597  0.00  0.00    -0.077 S 
BRANCH  18  19
ATOM     19  C   UNL     1       0.730   2.066  -0.186  0.00  0.00    +0.173 C 
BRANCH  19  20
ATOM     20  C   UNL     1       0.301   2.917   0.981  0.00  0.00    +0.224 C 
ATOM     21  O   UNL     1      -0.647   3.665   0.870  0.00  0.00    -0.275 OA
ATOM     22  N   UNL     1       0.971   2.847   2.148  0.00  0.00    -0.311 N 
ATOM     23  H   UNL     1       1.832   2.169   2.248  0.00  0.00    +0.149 HD
BRANCH  22  24
ATOM     24  C   UNL     1       0.554   3.674   3.283  0.00  0.00    +0.139 C 
BRANCH  24  25
ATOM     25  C   UNL     1       1.461   3.409   4.457  0.00  0.00    -0.027 A 
ATOM     26  C   UNL     1       1.141   2.418   5.366  0.00  0.00    +0.009 A 
ATOM     27  C   UNL     1       1.972   2.167   6.442  0.00  0.00    +0.050 A 
ATOM     28  C   UNL     1       3.123   2.918   6.618  0.00  0.00    +0.162 A 
ATOM     29  C   UNL     1       3.442   3.920   5.706  0.00  0.00    +0.162 A 
ATOM     30  C   UNL     1       2.608   4.162   4.627  0.00  0.00    +0.054 A 
BRANCH  29  31
ATOM     31  O   UNL     1       4.571   4.660   5.874  0.00  0.00    -0.491 OA
ATOM     32  C   UNL     1       4.836   5.671   4.899  0.00  0.00    +0.277 C 
ENDBRANCH  29  31
BRANCH  28  33
ATOM     33  O   UNL     1       3.939   2.677   7.678  0.00  0.00    -0.491 OA
ATOM     34  C   UNL     1       3.549   1.633   8.573  0.00  0.00    +0.277 C 
ENDBRANCH  28  33
ENDBRANCH  24  25
ENDBRANCH  22  24
ENDBRANCH  19  20
ENDBRANCH  18  19
ENDBRANCH  12  18
TORSDOF 8
