REMARK  Name = ZINC09054619
REMARK  7 active torsions:
REMARK  status: ('A' for Active; 'I' for Inactive)
REMARK    1  A    between atoms: C_1  and  C_2
REMARK    2  A    between atoms: C_2  and  C_24
REMARK    3  A    between atoms: N_5  and  C_9
REMARK    4  A    between atoms: C_9  and  C_10
REMARK    5  A    between atoms: N_12  and  C_13
REMARK    6  A    between atoms: N_12  and  C_14
REMARK    7  A    between atoms: C_14  and  C_15
REMARK                            x       y       z     vdW  Elec       q    Type
REMARK                         _______ _______ _______ _____ _____    ______ ____
ROOT
ATOM      1  C   UNL     1      -3.279   1.212   1.308  0.00  0.00    +0.047 C 
ATOM      2  C   UNL     1      -2.497   0.952   0.019  0.00  0.00    +0.136 C 
ATOM      3  C   UNL     1      -3.412   1.019  -1.187  0.00  0.00    +0.251 C 
ATOM      4  O   UNL     1      -4.056   1.974  -1.565  0.00  0.00    -0.272 OA
ATOM      5  N   UNL     1      -3.362  -0.203  -1.752  0.00  0.00    -0.215 N 
ATOM      6  C   UNL     1      -2.550  -1.026  -1.077  0.00  0.00    +0.310 C 
ATOM      7  O   UNL     1      -2.343  -2.180  -1.394  0.00  0.00    -0.252 OA
ATOM      8  N   UNL     1      -1.989  -0.431  -0.008  0.00  0.00    -0.281 N 
ATOM      9  H   UNL     1      -1.371  -0.834   0.621  0.00  0.00    +0.152 HD
ENDROOT
BRANCH   2  10
ATOM     10  C   UNL     1      -1.363   1.935  -0.119  0.00  0.00    -0.008 A 
ATOM     11  C   UNL     1      -0.077   1.493  -0.183  0.00  0.00    +0.007 A 
ATOM     12  C   UNL     1       0.983   2.387  -0.317  0.00  0.00    +0.001 A 
ATOM     13  C   UNL     1       0.764   3.729  -0.383  0.00  0.00    +0.008 A 
ATOM     14  C   UNL     1      -0.549   4.223  -0.315  0.00  0.00    -0.018 A 
ATOM     15  C   UNL     1      -1.628   3.314  -0.178  0.00  0.00    -0.012 A 
ATOM     16  C   UNL     1      -2.942   3.808  -0.110  0.00  0.00    +0.009 A 
ATOM     17  C   UNL     1      -3.160   5.150  -0.176  0.00  0.00    +0.001 A 
ATOM     18  C   UNL     1      -2.099   6.044  -0.311  0.00  0.00    +0.001 A 
ATOM     19  C   UNL     1      -0.814   5.602  -0.380  0.00  0.00    +0.008 A 
ENDBRANCH   2  10
BRANCH   5  20
ATOM     20  C   UNL     1      -4.105  -0.585  -2.955  0.00  0.00    +0.213 C 
BRANCH  20  21
ATOM     21  C   UNL     1      -5.452  -1.133  -2.561  0.00  0.00    +0.234 C 
ATOM     22  O   UNL     1      -5.761  -1.198  -1.390  0.00  0.00    -0.274 OA
ATOM     23  N   UNL     1      -6.314  -1.551  -3.510  0.00  0.00    -0.297 N 
ATOM     24  C   UNL     1      -5.940  -1.472  -4.924  0.00  0.00    +0.132 C 
BRANCH  23  25
ATOM     25  C   UNL     1      -7.623  -2.083  -3.127  0.00  0.00    +0.170 C 
BRANCH  25  26
ATOM     26  C   UNL     1      -8.625  -0.959  -3.069  0.00  0.00    +0.097 A 
ATOM     27  N   UNL     1      -9.386  -0.504  -4.024  0.00  0.00    -0.242 NA
ATOM     28  C   UNL     1     -10.252   0.514  -3.839  0.00  0.00    +0.079 A 
ATOM     29  C   UNL     1     -11.136   1.111  -4.765  0.00  0.00    +0.029 A 
ATOM     30  C   UNL     1     -11.939   2.144  -4.392  0.00  0.00    +0.002 A 
ATOM     31  C   UNL     1     -11.921   2.650  -3.099  0.00  0.00    +0.001 A 
ATOM     32  C   UNL     1     -11.069   2.093  -2.164  0.00  0.00    +0.017 A 
ATOM     33  C   UNL     1     -10.255   1.049  -2.530  0.00  0.00    +0.039 A 
ATOM     34  S   UNL     1      -9.040   0.045  -1.715  0.00  0.00    -0.071 S 
ENDBRANCH  25  26
ENDBRANCH  23  25
ENDBRANCH  20  21
ENDBRANCH   5  20
TORSDOF 5
