REMARK  Name = ZINC08611913
REMARK  8 active torsions:
REMARK  status: ('A' for Active; 'I' for Inactive)
REMARK    1  A    between atoms: C_1  and  C_2
REMARK    2  A    between atoms: C_6  and  C_12
REMARK    3  A    between atoms: C_10  and  C_11
REMARK    4  A    between atoms: C_12  and  C_13
REMARK    5  A    between atoms: N_15  and  C_16
REMARK    6  A    between atoms: C_19  and  S_22
REMARK    7  A    between atoms: S_22  and  N_25
REMARK    8  A    between atoms: C_30  and  C_32
REMARK                            x       y       z     vdW  Elec       q    Type
REMARK                         _______ _______ _______ _____ _____    ______ ____
ROOT
ATOM      1  C   UNL     1       0.515 -10.385  -2.507  0.00  0.00    +0.222 C 
ATOM      2  O   UNL     1       1.263 -11.265  -2.876  0.00  0.00    -0.275 OA
ATOM      3  N   UNL     1       0.981  -9.132  -2.333  0.00  0.00    -0.285 N 
ATOM      4  H   UNL     1       0.370  -8.415  -2.103  0.00  0.00    +0.155 HD
ENDROOT
BRANCH   3   5
ATOM      5  C   UNL     1       2.347  -8.867  -2.484  0.00  0.00    +0.034 A 
ATOM      6  C   UNL     1       2.967  -7.927  -1.672  0.00  0.00    +0.025 A 
ATOM      7  C   UNL     1       4.315  -7.667  -1.823  0.00  0.00    +0.030 A 
ATOM      8  C   UNL     1       5.047  -8.342  -2.783  0.00  0.00    +0.106 A 
ATOM      9  C   UNL     1       4.432  -9.279  -3.594  0.00  0.00    +0.030 A 
ATOM     10  C   UNL     1       3.086  -9.547  -3.443  0.00  0.00    +0.025 A 
BRANCH   8  11
ATOM     11  S   UNL     1       6.767  -8.008  -2.973  0.00  0.00    +0.061 S 
ATOM     12  O   UNL     1       7.107  -8.375  -4.303  0.00  0.00    -0.153 OA
ATOM     13  O   UNL     1       6.985  -6.700  -2.464  0.00  0.00    -0.153 OA
BRANCH  11  14
ATOM     14  N   UNL     1       7.581  -9.047  -1.973  0.00  0.00    -0.174 NA
ATOM     15  C   UNL     1       8.003  -8.620  -0.633  0.00  0.00    +0.110 C 
ATOM     16  C   UNL     1       9.505  -8.879  -0.482  0.00  0.00    +0.017 C 
ATOM     17  C   UNL     1       9.799 -10.348  -0.795  0.00  0.00    +0.003 C 
ATOM     18  C   UNL     1       9.398 -10.654  -2.240  0.00  0.00    +0.020 C 
ATOM     19  C   UNL     1       7.889 -10.417  -2.408  0.00  0.00    +0.077 C 
ATOM     20  C   UNL     1       7.502 -10.588  -3.878  0.00  0.00    +0.026 C 
ENDBRANCH  11  14
ENDBRANCH   8  11
ENDBRANCH   3   5
BRANCH   1  21
ATOM     21  C   UNL     1      -0.937 -10.691  -2.245  0.00  0.00    +0.135 C 
BRANCH  21  27
ATOM     22  C   UNL     1      -0.771 -17.085   0.314  0.00  0.00    +0.044 C 
ATOM     23  C   UNL     1      -0.854 -15.740  -0.362  0.00  0.00    -0.044 A 
ATOM     24  C   UNL     1      -0.479 -14.599   0.332  0.00  0.00    +0.004 A 
ATOM     25  C   UNL     1      -0.549 -13.371  -0.266  0.00  0.00    +0.012 A 
ATOM     26  C   UNL     1      -1.000 -13.267  -1.581  0.00  0.00    +0.024 A 
ATOM     27  C   UNL     1      -1.199 -12.151  -2.513  0.00  0.00    +0.007 A 
ATOM     28  C   UNL     1      -1.660 -12.691  -3.649  0.00  0.00    +0.200 A 
ATOM     29  O   UNL     1      -1.767 -14.024  -3.518  0.00  0.00    -0.462 OA
ATOM     30  C   UNL     1      -1.381 -14.419  -2.289  0.00  0.00    +0.138 A 
ATOM     31  C   UNL     1      -1.297 -15.658  -1.664  0.00  0.00    -0.005 A 
ATOM     32  C   UNL     1      -1.695 -16.907  -2.407  0.00  0.00    +0.048 C 
ENDBRANCH  21  27
ENDBRANCH   1  21
TORSDOF 5
