REMARK  Name = ZINC32543250
REMARK  8 active torsions:
REMARK  status: ('A' for Active; 'I' for Inactive)
REMARK    1  A    between atoms: C_1  and  C_2
REMARK    2  A    between atoms: C_2  and  C_4
REMARK    3  A    between atoms: C_2  and  N_20
REMARK    4  A    between atoms: N_9  and  C_10
REMARK    5  A    between atoms: N_23  and  C_26
REMARK    6  A    between atoms: C_26  and  C_27
REMARK    7  A    between atoms: N_29  and  C_30
REMARK    8  A    between atoms: N_29  and  C_31
REMARK                            x       y       z     vdW  Elec       q    Type
REMARK                         _______ _______ _______ _____ _____    ______ ____
ROOT
ATOM      1  C   UNL     1      -2.808   3.589  -0.887  0.00  0.00    +0.237 C 
ATOM      2  O   UNL     1      -2.658   3.923   0.269  0.00  0.00    -0.274 OA
ATOM      3  N   UNL     1      -3.772   4.163  -1.634  0.00  0.00    -0.239 N 
ATOM      4  C   UNL     1      -4.568   5.108  -1.096  0.00  0.00    +0.306 C 
ATOM      5  O   UNL     1      -4.418   5.442   0.062  0.00  0.00    -0.252 OA
ATOM      6  N   UNL     1      -5.532   5.682  -1.843  0.00  0.00    -0.294 N 
ATOM      7  H   UNL     1      -3.908   3.861  -2.683  0.00  0.00    +0.159 HD
ATOM      8  H   UNL     1      -5.669   5.380  -2.892  0.00  0.00    +0.151 HD
ENDROOT
BRANCH   6   9
ATOM      9  C   UNL     1      -6.398   6.709  -1.258  0.00  0.00    +0.037 C 
ATOM     10  C   UNL     1      -7.156   6.120  -0.067  0.00  0.00    +0.029 C 
ATOM     11  C   UNL     1      -8.060   7.192   0.544  0.00  0.00    -0.008 C 
ATOM     12  C   UNL     1      -9.060   7.675  -0.508  0.00  0.00    +0.007 C 
ATOM     13  C   UNL     1      -8.303   8.265  -1.700  0.00  0.00    -0.008 C 
ATOM     14  C   UNL     1      -7.398   7.192  -2.311  0.00  0.00    +0.029 C 
ATOM     15  C   UNL     1      -7.449   9.444  -1.228  0.00  0.00    +0.007 C 
ATOM     16  C   UNL     1      -6.449   8.960  -0.176  0.00  0.00    -0.008 C 
ATOM     17  C   UNL     1      -7.206   8.371   1.015  0.00  0.00    +0.007 C 
ATOM     18  C   UNL     1      -5.544   7.888  -0.787  0.00  0.00    +0.029 C 
ENDBRANCH   6   9
BRANCH   1  20
ATOM     19  C   UNL     1      -0.731   3.203  -2.186  0.00  0.00    +0.034 C 
ATOM     20  C   UNL     1      -1.917   2.533  -1.489  0.00  0.00    +0.140 C 
BRANCH  20  21
ATOM     21  N   UNL     1      -1.424   1.646  -0.427  0.00  0.00    -0.295 NA
ATOM     22  C   UNL     1      -2.535   1.120   0.378  0.00  0.00    +0.066 C 
ATOM     23  C   UNL     1      -1.989   0.141   1.420  0.00  0.00    -0.063 C 
ATOM     24  N   UNL     1      -1.006   0.829   2.268  0.00  0.00    +0.387 N 
ATOM     25  C   UNL     1       0.105   1.355   1.463  0.00  0.00    -0.063 C 
ATOM     26  C   UNL     1      -0.442   2.335   0.421  0.00  0.00    +0.066 C 
ATOM     27  H   UNL     1      -1.510   1.681   2.749  0.00  0.00    -0.081 HD
BRANCH  24  28
ATOM     28  C   UNL     1      -0.513  -0.059   3.330  0.00  0.00    +0.019 C 
BRANCH  28  29
ATOM     29  C   UNL     1      -1.640  -0.383   4.277  0.00  0.00    +0.199 C 
ATOM     30  O   UNL     1      -2.717   0.160   4.147  0.00  0.00    -0.278 OA
ATOM     31  N   UNL     1      -1.450  -1.275   5.269  0.00  0.00    -0.309 N 
ATOM     32  C   UNL     1      -2.545  -1.590   6.190  0.00  0.00    +0.131 C 
ATOM     33  C   UNL     1      -0.150  -1.931   5.426  0.00  0.00    +0.131 C 
ENDBRANCH  28  29
ENDBRANCH  24  28
ENDBRANCH  20  21
ENDBRANCH   1  20
TORSDOF 5
