REMARK  Name = ZINC29174547
REMARK  8 active torsions:
REMARK  status: ('A' for Active; 'I' for Inactive)
REMARK    1  A    between atoms: C_1  and  C_2
REMARK    2  A    between atoms: C_2  and  C_3
REMARK    3  A    between atoms: C_2  and  C_4
REMARK    4  A    between atoms: C_4  and  C_6
REMARK    5  A    between atoms: C_4  and  N_18
REMARK    6  A    between atoms: C_6  and  N_7
REMARK    7  A    between atoms: C_8  and  C_10
REMARK    8  A    between atoms: C_13  and  N_15
REMARK                            x       y       z     vdW  Elec       q    Type
REMARK                         _______ _______ _______ _____ _____    ______ ____
ROOT
ATOM      1  C   UNL     1       4.803   5.581  -0.075  0.00  0.00    -0.048 C 
ENDROOT
BRANCH   1   2
ATOM      2  N   UNL     1       5.401   4.773   0.997  0.00  0.00    +0.386 N 
ATOM      3  C   UNL     1       5.449   3.351   0.620  0.00  0.00    -0.073 C 
ATOM      4  C   UNL     1       6.391   2.627   1.582  0.00  0.00    +0.017 C 
ATOM      5  C   UNL     1       6.023   2.954   3.006  0.00  0.00    -0.048 A 
ATOM      6  C   UNL     1       6.512   2.141   4.018  0.00  0.00    +0.004 A 
ATOM      7  C   UNL     1       6.206   2.410   5.337  0.00  0.00    +0.000 A 
ATOM      8  C   UNL     1       5.409   3.496   5.651  0.00  0.00    +0.000 A 
ATOM      9  C   UNL     1       4.921   4.303   4.644  0.00  0.00    +0.002 A 
ATOM     10  C   UNL     1       5.226   4.034   3.318  0.00  0.00    -0.061 A 
ATOM     11  C   UNL     1       4.666   4.941   2.254  0.00  0.00    -0.042 C 
ATOM     12  H   UNL     1       6.430   5.130   1.149  0.00  0.00    -0.081 HD
ENDBRANCH   1   2
BRANCH   1  14
ATOM     13  C   UNL     1       6.453   7.371   0.488  0.00  0.00    +0.005 C 
ATOM     14  C   UNL     1       4.972   7.066   0.252  0.00  0.00    -0.029 C 
ATOM     15  C   UNL     1       4.458   7.908  -0.918  0.00  0.00    +0.005 C 
ENDBRANCH   1  14
BRANCH   1  16
ATOM     16  C   UNL     1       3.313   5.252  -0.192  0.00  0.00    +0.089 C 
BRANCH  16  17
ATOM     17  N   UNL     1       2.761   5.901  -1.383  0.00  0.00    -0.312 N 
ATOM     18  C   UNL     1       1.440   5.832  -1.637  0.00  0.00    +0.251 C 
ATOM     19  O   UNL     1       0.705   5.229  -0.877  0.00  0.00    -0.270 OA
ATOM     20  H   UNL     1       3.425   6.446  -2.070  0.00  0.00    +0.149 HD
BRANCH  18  21
ATOM     21  C   UNL     1       0.887   6.482  -2.829  0.00  0.00    +0.076 A 
ATOM     22  C   UNL     1      -0.426   6.529  -3.269  0.00  0.00    +0.023 A 
ATOM     23  C   UNL     1      -0.672   7.215  -4.432  0.00  0.00    +0.041 A 
ATOM     24  C   UNL     1       0.363   7.804  -5.086  0.00  0.00    +0.164 A 
ATOM     25  S   UNL     1       1.730   7.419  -4.092  0.00  0.00    -0.060 S 
BRANCH  24  26
ATOM     26  N   UNL     1       0.332   8.586  -6.343  0.00  0.00    +0.063 N 
ATOM     27  O   UNL     1      -0.724   8.766  -6.922  0.00  0.00    -0.126 OA
ATOM     28  O   UNL     1       1.362   9.050  -6.797  0.00  0.00    -0.126 OA
ENDBRANCH  24  26
ENDBRANCH  18  21
ENDBRANCH  16  17
ENDBRANCH   1  16
TORSDOF 6
