REMARK  Name = ZINC24070989
REMARK  8 active torsions:
REMARK  status: ('A' for Active; 'I' for Inactive)
REMARK    1  A    between atoms: C_1  and  C_2
REMARK    2  A    between atoms: C_5  and  S_7
REMARK    3  A    between atoms: S_7  and  N_10
REMARK    4  A    between atoms: N_10  and  C_11
REMARK    5  A    between atoms: C_13  and  S_18
REMARK    6  A    between atoms: C_16  and  O_17
REMARK    7  A    between atoms: S_18  and  N_21
REMARK    8  A    between atoms: N_21  and  C_22
REMARK                            x       y       z     vdW  Elec       q    Type
REMARK                         _______ _______ _______ _____ _____    ______ ____
ROOT
ATOM      1  C   UNL     1       0.605  -0.713  -0.188  0.00  0.00    +0.091 A 
ATOM      2  C   UNL     1       1.795  -0.015  -0.033  0.00  0.00    +0.057 A 
ATOM      3  C   UNL     1       1.770   1.342   0.229  0.00  0.00    +0.111 A 
ATOM      4  C   UNL     1       0.563   2.007   0.337  0.00  0.00    +0.032 A 
ATOM      5  C   UNL     1      -0.626   1.318   0.184  0.00  0.00    +0.049 A 
ATOM      6  C   UNL     1      -0.611  -0.042  -0.078  0.00  0.00    +0.139 A 
ENDROOT
BRANCH   3   7
ATOM      7  S   UNL     1       3.282   2.226   0.425  0.00  0.00    +0.072 S 
ATOM      8  O   UNL     1       3.005   3.315   1.294  0.00  0.00    -0.150 OA
ATOM      9  O   UNL     1       4.284   1.260   0.709  0.00  0.00    -0.150 OA
BRANCH   7  10
ATOM     10  N   UNL     1       3.660   2.881  -1.048  0.00  0.00    -0.216 N 
ATOM     11  H   UNL     1       4.569   2.558  -1.577  0.00  0.00    +0.174 HD
BRANCH  10  12
ATOM     12  C   UNL     1       2.826   3.844  -1.620  0.00  0.00    +0.049 A 
ATOM     13  C   UNL     1       2.830   5.146  -1.135  0.00  0.00    +0.024 A 
ATOM     14  C   UNL     1       2.005   6.096  -1.702  0.00  0.00    +0.003 A 
ATOM     15  C   UNL     1       1.173   5.754  -2.752  0.00  0.00    +0.020 A 
ATOM     16  C   UNL     1       1.165   4.458  -3.238  0.00  0.00    +0.043 A 
ATOM     17  C   UNL     1       1.993   3.503  -2.678  0.00  0.00    +0.044 A 
ATOM     18 CL   UNL     1       0.120   4.033  -4.558  0.00  0.00    -0.083 Cl
ENDBRANCH  10  12
ENDBRANCH   7  10
ENDBRANCH   3   7
BRANCH   1  19
ATOM     19  N   UNL     1       0.627  -2.087  -0.453  0.00  0.00    -0.212 N 
ATOM     20  H   UNL     1      -0.131  -2.531  -1.115  0.00  0.00    +0.174 HD
BRANCH  19  21
ATOM     21  S   UNL     1       1.794  -3.043   0.230  0.00  0.00    +0.079 S 
ATOM     22  O   UNL     1       1.471  -4.384  -0.112  0.00  0.00    -0.149 OA
ATOM     23  O   UNL     1       3.045  -2.454  -0.096  0.00  0.00    -0.149 OA
BRANCH  21  28
ATOM     24  C   UNL     1       1.832  -1.849   6.025  0.00  0.00    +0.051 C 
ATOM     25  C   UNL     1       1.647  -2.354   4.617  0.00  0.00    -0.011 A 
ATOM     26  C   UNL     1       0.881  -3.379   4.171  0.00  0.00    +0.013 A 
ATOM     27  C   UNL     1       0.866  -3.666   2.819  0.00  0.00    +0.037 A 
ATOM     28  C   UNL     1       1.617  -2.913   1.978  0.00  0.00    +0.146 A 
ATOM     29  S   UNL     1       2.386  -1.760   3.104  0.00  0.00    -0.074 S 
ENDBRANCH  21  28
ENDBRANCH  19  21
ENDBRANCH   1  19
BRANCH   6  30
ATOM     30  O   UNL     1      -1.780  -0.720  -0.229  0.00  0.00    -0.505 OA
ATOM     31  H   UNL     1      -2.739  -0.189  -0.143  0.00  0.00    +0.292 HD
ENDBRANCH   6  30
TORSDOF 7
