REMARK  Name = ZINC40687479
REMARK  3 active torsions:
REMARK  status: ('A' for Active; 'I' for Inactive)
REMARK    1  A    between atoms: C_11  and  N_27
REMARK    2  A    between atoms: C_12  and  S_16
REMARK    3  A    between atoms: S_16  and  C_17
REMARK                            x       y       z     vdW  Elec       q    Type
REMARK                         _______ _______ _______ _____ _____    ______ ____
ROOT
ATOM      1  C   UNL     1       0.927  -1.937  -2.849  0.00  0.00    +0.000 A 
ATOM      2  C   UNL     1       2.213  -1.573  -3.208  0.00  0.00    +0.002 A 
ATOM      3  C   UNL     1       3.123  -1.200  -2.243  0.00  0.00    +0.024 A 
ATOM      4  C   UNL     1       2.756  -1.187  -0.895  0.00  0.00    +0.038 A 
ATOM      5  C   UNL     1       1.466  -1.553  -0.546  0.00  0.00    -0.025 A 
ATOM      6  C   UNL     1       0.556  -1.926  -1.517  0.00  0.00    +0.005 A 
ATOM      7  C   UNL     1       1.327  -1.455   0.957  0.00  0.00    +0.056 C 
ATOM      8  C   UNL     1       2.708  -0.983   1.441  0.00  0.00    +0.117 C 
ATOM      9  N   UNL     1       3.516  -0.847   0.226  0.00  0.00    -0.283 N 
ATOM     10  C   UNL     1       4.845  -0.439   0.194  0.00  0.00    +0.151 A 
ATOM     11  C   UNL     1       5.168   0.910   0.031  0.00  0.00    +0.098 A 
ATOM     12  C   UNL     1       6.519   1.265   0.006  0.00  0.00    +0.127 A 
ATOM     13  N   UNL     1       7.439   0.312   0.139  0.00  0.00    -0.227 NA
ATOM     14  C   UNL     1       7.090  -0.950   0.291  0.00  0.00    +0.224 A 
ATOM     15  N   UNL     1       5.828  -1.327   0.325  0.00  0.00    -0.218 NA
ENDROOT
BRANCH  11  16
ATOM     16  N   UNL     1       4.164   1.881  -0.106  0.00  0.00    -0.353 N 
ATOM     17  H   UNL     1       3.233   1.634   0.005  0.00  0.00    +0.142 HD
ATOM     18  H   UNL     1       4.402   2.799  -0.311  0.00  0.00    +0.142 HD
ENDBRANCH  11  16
BRANCH  12  19
ATOM     19  S   UNL     1       6.997   2.949  -0.198  0.00  0.00    -0.066 S 
BRANCH  19  20
ATOM     20  C   UNL     1       8.756   2.884  -0.287  0.00  0.00    +0.040 A 
ATOM     21  C   UNL     1       9.395   3.028  -1.501  0.00  0.00    +0.017 A 
ATOM     22  C   UNL     1      10.783   2.978  -1.585  0.00  0.00    +0.002 A 
ATOM     23  C   UNL     1      11.547   2.786  -0.473  0.00  0.00    +0.010 A 
ATOM     24  C   UNL     1      10.933   2.636   0.781  0.00  0.00    +0.001 A 
ATOM     25  C   UNL     1       9.522   2.690   0.884  0.00  0.00    +0.085 A 
ATOM     26  N   UNL     1       8.935   2.552   2.075  0.00  0.00    -0.254 NA
ATOM     27  C   UNL     1       9.641   2.372   3.166  0.00  0.00    +0.111 A 
ATOM     28  C   UNL     1      11.032   2.315   3.136  0.00  0.00    +0.020 A 
ATOM     29  C   UNL     1      11.695   2.436   1.948  0.00  0.00    +0.011 A 
ENDBRANCH  19  20
ENDBRANCH  12  19
TORSDOF 3
