REMARK  Name = ZINC21090102
REMARK  10 active torsions:
REMARK  status: ('A' for Active; 'I' for Inactive)
REMARK    1  A    between atoms: C_1  and  C_2
REMARK    2  A    between atoms: C_5  and  N_9
REMARK    3  A    between atoms: C_10  and  C_12
REMARK    4  A    between atoms: C_12  and  C_14
REMARK    5  A    between atoms: C_12  and  N_18
REMARK    6  A    between atoms: C_14  and  C_15
REMARK    7  A    between atoms: C_15  and  C_16
REMARK    8  A    between atoms: C_15  and  C_17
REMARK    9  A    between atoms: N_18  and  S_19
REMARK   10  A    between atoms: S_19  and  C_22
REMARK                            x       y       z     vdW  Elec       q    Type
REMARK                         _______ _______ _______ _____ _____    ______ ____
ROOT
ATOM      1  C   UNL     1      -0.968   0.895  -0.637  0.00  0.00    +0.163 C 
ENDROOT
BRANCH   1   3
ATOM      2  N   UNL     1      -0.652   0.294  -3.015  0.00  0.00    -0.284 N 
ATOM      3  C   UNL     1      -1.365   0.965  -2.089  0.00  0.00    +0.236 C 
ATOM      4  O   UNL     1      -2.326   1.624  -2.424  0.00  0.00    -0.274 OA
ATOM      5  H   UNL     1       0.166  -0.372  -2.704  0.00  0.00    +0.155 HD
BRANCH   2  10
ATOM      6  C   UNL     1      -1.867   0.904  -8.524  0.00  0.00    +0.045 C 
ATOM      7  C   UNL     1      -1.544   0.743  -7.061  0.00  0.00    -0.032 A 
ATOM      8  C   UNL     1      -1.089  -0.473  -6.585  0.00  0.00    +0.006 A 
ATOM      9  C   UNL     1      -0.786  -0.623  -5.246  0.00  0.00    +0.023 A 
ATOM     10  C   UNL     1      -0.952   0.445  -4.374  0.00  0.00    +0.035 A 
ATOM     11  C   UNL     1      -1.409   1.665  -4.853  0.00  0.00    +0.043 A 
ATOM     12  C   UNL     1      -1.705   1.811  -6.196  0.00  0.00    +0.046 A 
ATOM     13 CL   UNL     1      -2.277   3.335  -6.798  0.00  0.00    -0.083 Cl
ENDBRANCH   2  10
ENDBRANCH   1   3
BRANCH   1  14
ATOM     14  N   UNL     1      -1.893   1.703   0.161  0.00  0.00    -0.178 NA
ATOM     15  H   UNL     1      -1.629   2.736   0.431  0.00  0.00    +0.149 HD
BRANCH  14  16
ATOM     16  S   UNL     1      -3.214   0.995   0.866  0.00  0.00    +0.059 S 
ATOM     17  O   UNL     1      -3.881   2.016   1.596  0.00  0.00    -0.153 OA
ATOM     18  O   UNL     1      -3.860   0.239  -0.150  0.00  0.00    -0.153 OA
BRANCH  16  19
ATOM     19  C   UNL     1      -2.615  -0.162   2.051  0.00  0.00    +0.106 A 
ATOM     20  C   UNL     1      -2.496   0.215   3.382  0.00  0.00    +0.030 A 
ATOM     21  C   UNL     1      -2.030  -0.674   4.326  0.00  0.00    +0.028 A 
ATOM     22  C   UNL     1      -1.674  -1.963   3.944  0.00  0.00    +0.049 A 
ATOM     23  C   UNL     1      -1.796  -2.342   2.594  0.00  0.00    +0.000 A 
ATOM     24  C   UNL     1      -2.277  -1.425   1.654  0.00  0.00    +0.038 A 
ATOM     25  C   UNL     1      -1.419  -3.701   2.201  0.00  0.00    +0.015 A 
ATOM     26  C   UNL     1      -0.965  -4.549   3.157  0.00  0.00    +0.071 A 
ATOM     27  C   UNL     1      -0.861  -4.119   4.498  0.00  0.00    +0.249 A 
ATOM     28  O   UNL     1      -0.450  -4.897   5.341  0.00  0.00    -0.268 OA
ATOM     29  N   UNL     1      -1.205  -2.873   4.867  0.00  0.00    -0.322 N 
ATOM     30  H   UNL     1      -1.108  -2.584   5.924  0.00  0.00    +0.169 HD
ENDBRANCH  16  19
ENDBRANCH  14  16
ENDBRANCH   1  14
BRANCH   1  31
ATOM     31  C   UNL     1       0.454   1.434  -0.470  0.00  0.00    +0.032 C 
BRANCH  31  32
ATOM     32  C   UNL     1       0.916   1.218   0.972  0.00  0.00    -0.015 C 
ATOM     33  C   UNL     1       2.387   1.618   1.102  0.00  0.00    +0.007 C 
ATOM     34  C   UNL     1       0.069   2.078   1.913  0.00  0.00    +0.007 C 
ENDBRANCH  31  32
ENDBRANCH   1  31
TORSDOF 7
