REMARK  Name = ZINC36686267
REMARK  8 active torsions:
REMARK  status: ('A' for Active; 'I' for Inactive)
REMARK    1  A    between atoms: C_1  and  C_2
REMARK    2  A    between atoms: C_2  and  C_4
REMARK    3  A    between atoms: C_2  and  N_19
REMARK    4  A    between atoms: N_6  and  N_7
REMARK    5  A    between atoms: C_20  and  C_22
REMARK    6  A    between atoms: C_23  and  C_24
REMARK    7  A    between atoms: C_27  and  O_30
REMARK    8  A    between atoms: O_30  and  C_31
REMARK                            x       y       z     vdW  Elec       q    Type
REMARK                         _______ _______ _______ _____ _____    ______ ____
ROOT
ATOM      1  C   UNL     1       0.731  -0.503   1.223  0.00  0.00    +0.250 C 
ATOM      2  O   UNL     1       0.159  -1.213   2.023  0.00  0.00    -0.272 OA
ATOM      3  N   UNL     1       2.019  -0.161   1.426  0.00  0.00    -0.222 N 
ATOM      4  H   UNL     1       2.476   0.406   0.786  0.00  0.00    +0.174 HD
ENDROOT
BRANCH   3   5
ATOM      5  N   UNL     1       2.696  -0.625   2.561  0.00  0.00    -0.137 N 
ATOM      6  C   UNL     1       2.978   0.135   3.639  0.00  0.00    +0.263 C 
ATOM      7  O   UNL     1       2.705   1.304   3.804  0.00  0.00    -0.271 OA
ATOM      8  C   UNL     1       3.707  -0.779   4.598  0.00  0.00    +0.114 C 
ATOM      9  C   UNL     1       2.926  -0.915   5.900  0.00  0.00    +0.035 C 
ATOM     10  C   UNL     1       3.666  -1.867   6.844  0.00  0.00    +0.003 C 
ATOM     11  C   UNL     1       5.067  -1.320   7.124  0.00  0.00    +0.000 C 
ATOM     12  C   UNL     1       5.845  -1.212   5.811  0.00  0.00    +0.003 C 
ATOM     13  C   UNL     1       5.115  -0.257   4.864  0.00  0.00    +0.035 C 
ATOM     14  N   UNL     1       3.760  -2.066   3.893  0.00  0.00    -0.284 N 
ATOM     15  C   UNL     1       3.139  -1.880   2.712  0.00  0.00    +0.326 C 
ATOM     16  O   UNL     1       2.999  -2.751   1.877  0.00  0.00    -0.251 OA
ATOM     17  H   UNL     1       4.160  -2.889   4.215  0.00  0.00    +0.151 HD
ENDBRANCH   3   5
BRANCH   1  19
ATOM     18  C   UNL     1      -0.019   1.526   0.010  0.00  0.00    +0.038 C 
ATOM     19  C   UNL     1       0.002  -0.004   0.002  0.00  0.00    +0.158 C 
BRANCH  19  20
ATOM     20  N   UNL     1      -1.372  -0.511   0.012  0.00  0.00    -0.301 N 
ATOM     21  C   UNL     1      -2.051  -0.643  -1.145  0.00  0.00    +0.237 C 
ATOM     22  O   UNL     1      -1.522  -0.340  -2.198  0.00  0.00    -0.271 OA
ATOM     23  H   UNL     1      -1.794  -0.752   0.852  0.00  0.00    +0.150 HD
BRANCH  21  24
ATOM     24  C   UNL     1      -3.423  -1.149  -1.134  0.00  0.00    +0.068 C 
ATOM     25  C   UNL     1      -4.103  -1.281  -2.293  0.00  0.00    +0.013 C 
BRANCH  25  26
ATOM     26  C   UNL     1      -5.482  -1.790  -2.283  0.00  0.00    -0.025 A 
ATOM     27  C   UNL     1      -6.094  -2.133  -1.072  0.00  0.00    +0.011 A 
ATOM     28  C   UNL     1      -7.386  -2.609  -1.067  0.00  0.00    +0.046 A 
ATOM     29  C   UNL     1      -8.082  -2.749  -2.263  0.00  0.00    +0.120 A 
ATOM     30  C   UNL     1      -7.478  -2.410  -3.468  0.00  0.00    +0.046 A 
ATOM     31  C   UNL     1      -6.189  -1.927  -3.483  0.00  0.00    +0.011 A 
BRANCH  29  32
ATOM     32  O   UNL     1      -9.355  -3.219  -2.253  0.00  0.00    -0.495 OA
ATOM     33  C   UNL     1     -10.012  -3.338  -3.517  0.00  0.00    +0.277 C 
ENDBRANCH  29  32
ENDBRANCH  25  26
ENDBRANCH  21  24
ENDBRANCH  19  20
ENDBRANCH   1  19
TORSDOF 6
