REMARK  Name = ZINC40285765
REMARK  2 active torsions:
REMARK  status: ('A' for Active; 'I' for Inactive)
REMARK    1  A    between atoms: C_6  and  C_7
REMARK    2  A    between atoms: C_7  and  C_9
REMARK                            x       y       z     vdW  Elec       q    Type
REMARK                         _______ _______ _______ _____ _____    ______ ____
ROOT
ATOM      1  C   UNL     1      -0.017   1.382   0.010  0.00  0.00    +0.007 A 
ATOM      2  C   UNL     1       1.162   2.095   0.002  0.00  0.00    +0.032 A 
ATOM      3  C   UNL     1       2.381   1.417  -0.013  0.00  0.00    +0.113 A 
ATOM      4  C   UNL     1       2.396   0.014  -0.021  0.00  0.00    +0.159 A 
ATOM      5  C   UNL     1       1.201  -0.688  -0.013  0.00  0.00    +0.053 A 
ATOM      6  C   UNL     1       0.002  -0.004   0.002  0.00  0.00    -0.026 A 
ATOM      7  O   UNL     1       3.697  -0.353  -0.035  0.00  0.00    -0.406 OA
ATOM      8  C   UNL     1       4.448   0.762  -0.036  0.00  0.00    +0.441 A 
ATOM      9  O   UNL     1       5.799   0.785  -0.050  0.00  0.00    -0.221 OA
ATOM     10  N   UNL     1       3.682   1.819  -0.023  0.00  0.00    -0.172 NA
ENDROOT
BRANCH   6  11
ATOM     11  C   UNL     1      -1.296  -0.770   0.011  0.00  0.00    +0.119 C 
ATOM     12 BR   UNL     1      -2.415  -0.179  -1.494  0.00  0.00    -0.078 Br
BRANCH  11  13
ATOM     13  C   UNL     1      -2.021  -0.515   1.307  0.00  0.00    +0.007 A 
ATOM     14  C   UNL     1      -2.989   0.469   1.376  0.00  0.00    +0.023 A 
ATOM     15  C   UNL     1      -3.655   0.703   2.565  0.00  0.00    +0.018 A 
ATOM     16  C   UNL     1      -3.352  -0.048   3.687  0.00  0.00    +0.018 A 
ATOM     17  C   UNL     1      -2.384  -1.032   3.620  0.00  0.00    +0.040 A 
ATOM     18  C   UNL     1      -1.721  -1.270   2.428  0.00  0.00    +0.128 A 
ATOM     19  F   UNL     1      -0.779  -2.236   2.360  0.00  0.00    -0.205 F 
ATOM     20 BR   UNL     1      -4.979   2.050   2.658  0.00  0.00    -0.050 Br
ENDBRANCH  11  13
ENDBRANCH   6  11
TORSDOF 2
