REMARK  Name = ZINC54537269
REMARK  12 active torsions:
REMARK  status: ('A' for Active; 'I' for Inactive)
REMARK    1  A    between atoms: C_1  and  C_2
REMARK    2  A    between atoms: C_2  and  C_3
REMARK    3  A    between atoms: C_2  and  O_4
REMARK    4  A    between atoms: O_4  and  C_5
REMARK    5  A    between atoms: C_8  and  C_26
REMARK    6  A    between atoms: C_10  and  N_11
REMARK    7  A    between atoms: N_14  and  C_15
REMARK    8  A    between atoms: C_15  and  C_16
REMARK    9  A    between atoms: C_16  and  C_18
REMARK   10  A    between atoms: C_16  and  N_23
REMARK   11  A    between atoms: N_23  and  C_24
REMARK   12  A    between atoms: N_23  and  C_25
REMARK                            x       y       z     vdW  Elec       q    Type
REMARK                         _______ _______ _______ _____ _____    ______ ____
ROOT
ATOM      1  N   UNL     1       1.962  -1.007  -3.464  0.00  0.00    -0.266 N 
ATOM      2  C   UNL     1       2.646  -1.500  -4.516  0.00  0.00    +0.304 C 
ATOM      3  O   UNL     1       3.853  -1.631  -4.448  0.00  0.00    -0.253 OA
ATOM      4  N   UNL     1       1.993  -1.848  -5.641  0.00  0.00    -0.300 N 
ATOM      5  H   UNL     1       1.008  -0.852  -3.536  0.00  0.00    +0.156 HD
ATOM      6  H   UNL     1       1.030  -1.744  -5.695  0.00  0.00    +0.150 HD
ENDROOT
BRANCH   1  12
ATOM      7  C   UNL     1       1.982  -0.898  -1.044  0.00  0.00    +0.142 A 
ATOM      8  C   UNL     1       2.643  -0.619   0.144  0.00  0.00    +0.049 A 
ATOM      9  C   UNL     1       3.942  -0.157   0.122  0.00  0.00    +0.022 A 
ATOM     10  C   UNL     1       4.596   0.031  -1.099  0.00  0.00    +0.054 A 
ATOM     11  C   UNL     1       3.932  -0.250  -2.295  0.00  0.00    +0.046 A 
ATOM     12  C   UNL     1       2.631  -0.719  -2.266  0.00  0.00    +0.078 A 
BRANCH  10  13
ATOM     13  C   UNL     1       5.945   0.511  -1.122  0.00  0.00    +0.099 C 
ATOM     14  N   UNL     1       7.015   0.892  -1.141  0.00  0.00    -0.191 NA
ENDBRANCH  10  13
BRANCH   7  15
ATOM     15  O   UNL     1       0.702  -1.353  -1.017  0.00  0.00    -0.488 OA
BRANCH  15  17
ATOM     16  C   UNL     1      -0.499  -0.066   0.638  0.00  0.00    +0.051 C 
ATOM     17  C   UNL     1       0.070  -1.435   0.262  0.00  0.00    +0.167 C 
ATOM     18  C   UNL     1      -1.064  -2.461   0.206  0.00  0.00    +0.051 C 
ENDBRANCH  15  17
ENDBRANCH   7  15
ENDBRANCH   1  12
BRANCH   4  19
ATOM     19  C   UNL     1       2.736  -2.384  -6.784  0.00  0.00    +0.095 C 
BRANCH  19  20
ATOM     20  C   UNL     1       1.784  -2.582  -7.965  0.00  0.00    -0.020 C 
BRANCH  20  21
ATOM     21  C   UNL     1       0.734  -3.600  -7.599  0.00  0.00    -0.052 A 
ATOM     22  C   UNL     1      -0.529  -3.196  -7.209  0.00  0.00    +0.009 A 
ATOM     23  C   UNL     1      -1.450  -4.137  -6.886  0.00  0.00    +0.045 A 
ATOM     24  S   UNL     1      -0.533  -5.649  -7.130  0.00  0.00    -0.105 S 
ATOM     25  C   UNL     1       1.013  -4.925  -7.652  0.00  0.00    +0.047 A 
ENDBRANCH  20  21
BRANCH  20  26
ATOM     26  N   UNL     1       2.541  -3.057  -9.131  0.00  0.00    +0.382 N 
ATOM     27  C   UNL     1       1.646  -3.145 -10.293  0.00  0.00    -0.096 C 
ATOM     28  C   UNL     1       3.631  -2.118  -9.422  0.00  0.00    -0.096 C 
ATOM     29  H   UNL     1       2.926  -3.969  -8.933  0.00  0.00    -0.082 HD
ENDBRANCH  20  26
ENDBRANCH  19  20
ENDBRANCH   4  19
TORSDOF 8
