REMARK  Name = ZINC45898092
REMARK  12 active torsions:
REMARK  status: ('A' for Active; 'I' for Inactive)
REMARK    1  A    between atoms: C_1  and  C_2
REMARK    2  A    between atoms: C_2  and  C_3
REMARK    3  A    between atoms: C_3  and  C_4
REMARK    4  A    between atoms: C_4  and  N_5
REMARK    5  A    between atoms: C_6  and  C_27
REMARK    6  A    between atoms: C_7  and  C_26
REMARK    7  A    between atoms: C_9  and  S_10
REMARK    8  A    between atoms: S_10  and  C_11
REMARK    9  A    between atoms: C_11  and  C_12
REMARK   10  A    between atoms: N_17  and  C_18
REMARK   11  A    between atoms: C_22  and  C_25
REMARK   12  A    between atoms: C_23  and  C_24
REMARK                            x       y       z     vdW  Elec       q    Type
REMARK                         _______ _______ _______ _____ _____    ______ ____
ROOT
ATOM      1  C   UNL     1       6.656  -2.915  -1.154  0.00  0.00    +0.231 C 
ATOM      2  O   UNL     1       6.436  -2.546  -0.020  0.00  0.00    -0.274 OA
ATOM      3  N   UNL     1       7.911  -3.231  -1.529  0.00  0.00    -0.239 N 
ATOM      4  C   UNL     1       8.922  -3.139  -0.642  0.00  0.00    +0.310 C 
ATOM      5  O   UNL     1       8.702  -2.769   0.494  0.00  0.00    -0.252 OA
ATOM      6  N   UNL     1      10.178  -3.455  -1.017  0.00  0.00    -0.269 N 
ATOM      7  H   UNL     1       8.087  -3.526  -2.436  0.00  0.00    +0.159 HD
ATOM      8  H   UNL     1      10.342  -3.827  -1.898  0.00  0.00    +0.156 HD
ENDROOT
BRANCH   6   9
ATOM      9  C   UNL     1      11.244  -3.248  -0.135  0.00  0.00    +0.038 A 
ATOM     10  C   UNL     1      11.144  -2.290   0.866  0.00  0.00    +0.023 A 
ATOM     11  C   UNL     1      12.198  -2.087   1.734  0.00  0.00    +0.002 A 
ATOM     12  C   UNL     1      13.354  -2.837   1.608  0.00  0.00    +0.004 A 
ATOM     13  C   UNL     1      13.457  -3.791   0.613  0.00  0.00    -0.046 A 
ATOM     14  C   UNL     1      12.403  -4.003  -0.255  0.00  0.00    -0.026 A 
ATOM     15  C   UNL     1      12.514  -5.048  -1.335  0.00  0.00    +0.046 C 
ATOM     16  C   UNL     1      14.718  -4.605   0.478  0.00  0.00    +0.044 C 
ENDBRANCH   6   9
BRANCH   1  17
ATOM     17  C   UNL     1       5.525  -3.018  -2.145  0.00  0.00    +0.173 C 
BRANCH  17  18
ATOM     18  S   UNL     1       3.973  -2.528  -1.345  0.00  0.00    -0.080 S 
BRANCH  18  23
ATOM     19  N   UNL     1       1.434  -2.444  -2.489  0.00  0.00    -0.324 N 
ATOM     20  C   UNL     1       0.857  -2.701  -3.713  0.00  0.00    +0.037 A 
ATOM     21  C   UNL     1       1.841  -3.106  -4.533  0.00  0.00    +0.034 A 
ATOM     22  N   UNL     1       2.995  -3.102  -3.844  0.00  0.00    -0.338 N 
ATOM     23  C   UNL     1       2.765  -2.701  -2.616  0.00  0.00    +0.148 A 
ATOM     24  C   UNL     1       1.679  -3.499  -5.979  0.00  0.00    +0.065 C 
ATOM     25  C   UNL     1      -0.601  -2.556  -4.065  0.00  0.00    +0.065 C 
ATOM     26  H   UNL     1       3.862  -3.353  -4.200  0.00  0.00    +0.168 HD
BRANCH  19  27
ATOM     27  C   UNL     1       0.747  -1.978  -1.283  0.00  0.00    +0.124 C 
BRANCH  27  28
ATOM     28  C   UNL     1       0.734  -0.448  -1.262  0.00  0.00    +0.021 C 
BRANCH  28  30
ATOM     29  C   UNL     1       0.004   1.569   0.018  0.00  0.00    +0.004 C 
ATOM     30  C   UNL     1       0.017   0.040  -0.002  0.00  0.00    -0.002 C 
ENDBRANCH  28  30
ENDBRANCH  27  28
ENDBRANCH  19  27
ENDBRANCH  18  23
ENDBRANCH  17  18
ENDBRANCH   1  17
TORSDOF 7
