REMARK  Name = ZINC62688653
REMARK  2 active torsions:
REMARK  status: ('A' for Active; 'I' for Inactive)
REMARK    1  A    between atoms: C_5  and  C_7
REMARK    2  A    between atoms: C_15  and  C_17
REMARK                            x       y       z     vdW  Elec       q    Type
REMARK                         _______ _______ _______ _____ _____    ______ ____
ROOT
ATOM      1  C   UNL     1       1.051  -1.717   0.189  0.00  0.00    +0.195 C 
ATOM      2  C   UNL     1       1.214  -1.944  -1.289  0.00  0.00    +0.238 C 
ATOM      3  O   UNL     1       2.241  -1.580  -1.821  0.00  0.00    -0.273 OA
ATOM      4  N   UNL     1       0.280  -2.527  -2.042  0.00  0.00    -0.312 N 
ATOM      5  C   UNL     1      -0.960  -3.094  -1.530  0.00  0.00    +0.123 C 
ATOM      6  C   UNL     1      -1.315  -2.486  -0.172  0.00  0.00    +0.128 C 
ATOM      7  N   UNL     1      -0.102  -2.494   0.668  0.00  0.00    -0.278 N 
ATOM      8  C   UNL     1      -0.051  -3.184   1.825  0.00  0.00    +0.283 C 
ATOM      9  O   UNL     1      -0.996  -3.870   2.166  0.00  0.00    -0.267 OA
ATOM     10  H   UNL     1       0.438  -2.577  -2.998  0.00  0.00    +0.149 HD
ENDROOT
BRANCH   1  15
ATOM     11  C   UNL     1       0.296   1.942  -0.353  0.00  0.00    +0.001 A 
ATOM     12  C   UNL     1       0.388   2.438   0.934  0.00  0.00    +0.003 A 
ATOM     13  C   UNL     1       0.695   1.591   1.981  0.00  0.00    +0.039 A 
ATOM     14  C   UNL     1       0.909   0.244   1.741  0.00  0.00    +0.129 A 
ATOM     15  C   UNL     1       0.817  -0.252   0.452  0.00  0.00    +0.017 A 
ATOM     16  C   UNL     1       0.510   0.598  -0.594  0.00  0.00    +0.009 A 
ATOM     17  F   UNL     1       1.209  -0.586   2.764  0.00  0.00    -0.205 F 
ENDBRANCH   1  15
BRANCH   8  18
ATOM     18  C   UNL     1       1.144  -3.107   2.672  0.00  0.00    +0.189 A 
ATOM     19  C   UNL     1       1.279  -3.647   3.919  0.00  0.00    +0.054 A 
ATOM     20  C   UNL     1       2.576  -3.335   4.355  0.00  0.00    +0.042 A 
ATOM     21  C   UNL     1       3.168  -2.628   3.368  0.00  0.00    +0.196 A 
ATOM     22  O   UNL     1       2.304  -2.497   2.353  0.00  0.00    -0.458 OA
ENDBRANCH   8  18
TORSDOF 2
