REMARK  Name = ZINC01375135
REMARK  12 active torsions:
REMARK  status: ('A' for Active; 'I' for Inactive)
REMARK    1  A    between atoms: C_1  and  C_2
REMARK    2  A    between atoms: C_2  and  C_3
REMARK    3  A    between atoms: C_3  and  C_5
REMARK    4  A    between atoms: C_3  and  N_18
REMARK    5  A    between atoms: N_9  and  C_10
REMARK    6  A    between atoms: C_10  and  C_11
REMARK    7  A    between atoms: N_18  and  C_19
REMARK    8  A    between atoms: N_18  and  C_29
REMARK    9  A    between atoms: C_19  and  C_20
REMARK   10  A    between atoms: C_29  and  C_30
REMARK   11  A    between atoms: C_34  and  C_43
REMARK   12  A    between atoms: C_35  and  C_42
REMARK                            x       y       z     vdW  Elec       q    Type
REMARK                         _______ _______ _______ _____ _____    ______ ____
ROOT
ATOM      1  N   UNL     1      -0.160  -0.269  -2.480  0.00  0.00    -0.284 NA
ENDROOT
BRANCH   1   2
ATOM      2  C   UNL     1       0.882  -0.590  -1.496  0.00  0.00    +0.127 C 
BRANCH   2   3
ATOM      3  C   UNL     1       2.238  -0.320  -2.094  0.00  0.00    +0.169 A 
ATOM      4  N   UNL     1       2.644  -0.652  -3.296  0.00  0.00    -0.112 NA
ATOM      5  N   UNL     1       3.860  -0.247  -3.431  0.00  0.00    -0.023 NA
ATOM      6  N   UNL     1       4.240   0.335  -2.347  0.00  0.00    -0.044 NA
ATOM      7  N   UNL     1       3.266   0.315  -1.501  0.00  0.00    -0.223 N 
BRANCH   7   8
ATOM      8  C   UNL     1       3.278   0.875  -0.147  0.00  0.00    +0.182 C 
BRANCH   8   9
ATOM      9  C   UNL     1       3.755  -0.173   0.826  0.00  0.00    -0.026 A 
ATOM     10  C   UNL     1       2.844  -1.021   1.428  0.00  0.00    +0.008 A 
ATOM     11  C   UNL     1       3.280  -1.982   2.320  0.00  0.00    +0.038 A 
ATOM     12  C   UNL     1       4.629  -2.096   2.610  0.00  0.00    +0.123 A 
ATOM     13  C   UNL     1       5.540  -1.246   2.006  0.00  0.00    +0.038 A 
ATOM     14  C   UNL     1       5.102  -0.289   1.111  0.00  0.00    +0.008 A 
ATOM     15  F   UNL     1       5.056  -3.035   3.482  0.00  0.00    -0.205 F 
ENDBRANCH   8   9
ENDBRANCH   7   8
ENDBRANCH   2   3
BRANCH   2  17
ATOM     16  C   UNL     1      -0.550  -2.318  -0.397  0.00  0.00    +0.006 C 
ATOM     17  C   UNL     1       0.780  -2.067  -1.110  0.00  0.00    +0.023 C 
ENDBRANCH   2  17
ENDBRANCH   1   2
BRANCH   1  18
ATOM     18  C   UNL     1       0.087  -0.959  -3.753  0.00  0.00    +0.120 C 
BRANCH  18  19
ATOM     19  C   UNL     1      -1.169  -0.943  -4.585  0.00  0.00    -0.030 A 
ATOM     20  C   UNL     1      -2.141  -1.906  -4.385  0.00  0.00    +0.009 A 
ATOM     21  C   UNL     1      -3.296  -1.896  -5.145  0.00  0.00    +0.050 A 
ATOM     22  C   UNL     1      -3.481  -0.920  -6.111  0.00  0.00    +0.166 A 
ATOM     23  C   UNL     1      -2.502   0.050  -6.313  0.00  0.00    +0.167 A 
ATOM     24  C   UNL     1      -1.351   0.037  -5.543  0.00  0.00    +0.054 A 
ATOM     25  O   UNL     1      -2.917   0.887  -7.308  0.00  0.00    -0.453 OA
ATOM     26  C   UNL     1      -3.970   0.181  -7.991  0.00  0.00    +0.466 C 
ATOM     27  O   UNL     1      -4.509  -0.691  -6.979  0.00  0.00    -0.453 OA
ENDBRANCH  18  19
ENDBRANCH   1  18
BRANCH   1  28
ATOM     28  C   UNL     1      -0.266   1.183  -2.680  0.00  0.00    +0.126 C 
BRANCH  28  29
ATOM     29  C   UNL     1      -0.990   1.799  -1.511  0.00  0.00    +0.031 A 
ATOM     30  C   UNL     1      -0.284   2.364  -0.500  0.00  0.00    +0.020 A 
ATOM     31  C   UNL     1      -1.018   2.955   0.620  0.00  0.00    -0.001 A 
ATOM     32  C   UNL     1      -0.345   3.553   1.691  0.00  0.00    +0.013 A 
ATOM     33  C   UNL     1      -1.059   4.095   2.721  0.00  0.00    -0.047 A 
ATOM     34  C   UNL     1      -2.447   4.058   2.716  0.00  0.00    -0.046 A 
ATOM     35  C   UNL     1      -3.131   3.474   1.672  0.00  0.00    +0.030 A 
ATOM     36  C   UNL     1      -2.425   2.916   0.611  0.00  0.00    +0.049 A 
ATOM     37  N   UNL     1      -3.084   2.326  -0.447  0.00  0.00    -0.322 N 
ATOM     38  H   UNL     1      -4.053   2.300  -0.452  0.00  0.00    +0.169 HD
ATOM     39  C   UNL     1      -2.401   1.791  -1.475  0.00  0.00    +0.254 A 
ATOM     40  O   UNL     1      -3.016   1.282  -2.396  0.00  0.00    -0.268 OA
ATOM     41  C   UNL     1      -3.214   4.663   3.864  0.00  0.00    +0.044 C 
ATOM     42  C   UNL     1      -0.334   4.739   3.875  0.00  0.00    +0.044 C 
ENDBRANCH  28  29
ENDBRANCH   1  28
TORSDOF 9
