REMARK  Name = ZINC18522716
REMARK  12 active torsions:
REMARK  status: ('A' for Active; 'I' for Inactive)
REMARK    1  A    between atoms: C_1  and  C_2
REMARK    2  A    between atoms: C_2  and  C_3
REMARK    3  A    between atoms: C_3  and  N_4
REMARK    4  A    between atoms: C_8  and  S_28
REMARK    5  A    between atoms: C_12  and  S_13
REMARK    6  A    between atoms: S_13  and  C_14
REMARK    7  A    between atoms: C_14  and  C_16
REMARK    8  A    between atoms: C_14  and  C_17
REMARK    9  A    between atoms: N_19  and  C_20
REMARK   10  A    between atoms: C_23  and  C_27
REMARK   11  A    between atoms: C_25  and  C_26
REMARK   12  A    between atoms: S_28  and  N_31
REMARK                            x       y       z     vdW  Elec       q    Type
REMARK                         _______ _______ _______ _____ _____    ______ ____
ROOT
ATOM      1  N   UNL     1       2.481   3.630  -0.036  0.00  0.00    -0.319 N 
ATOM      2  C   UNL     1       1.159   3.216  -0.036  0.00  0.00    +0.070 A 
ATOM      3  C   UNL     1      -0.057   3.882  -0.029  0.00  0.00    +0.030 A 
ATOM      4  C   UNL     1      -1.234   3.163  -0.031  0.00  0.00    +0.030 A 
ATOM      5  C   UNL     1      -1.210   1.776  -0.045  0.00  0.00    +0.107 A 
ATOM      6  C   UNL     1      -0.012   1.098  -0.046  0.00  0.00    +0.058 A 
ATOM      7  C   UNL     1       1.189   1.812  -0.044  0.00  0.00    +0.092 A 
ATOM      8  N   UNL     1       2.496   1.439  -0.049  0.00  0.00    -0.222 NA
ATOM      9  C   UNL     1       3.257   2.506  -0.044  0.00  0.00    +0.171 A 
ENDROOT
BRANCH   5  10
ATOM     10  S   UNL     1      -2.725   0.876  -0.054  0.00  0.00    +0.056 S 
ATOM     11  O   UNL     1      -3.709   1.742  -0.603  0.00  0.00    -0.153 OA
ATOM     12  O   UNL     1      -2.436  -0.399  -0.612  0.00  0.00    -0.153 OA
BRANCH  10  13
ATOM     13  N   UNL     1      -3.150   0.616   1.525  0.00  0.00    -0.204 NA
ATOM     14  H   UNL     1      -2.586   0.949   2.240  0.00  0.00    +0.144 HD
ATOM     15  H   UNL     1      -3.964   0.132   1.735  0.00  0.00    +0.144 HD
ENDBRANCH  10  13
ENDBRANCH   5  10
BRANCH   1  16
ATOM     16  C   UNL     1       2.958   5.015  -0.029  0.00  0.00    +0.124 C 
BRANCH  16  18
ATOM     17  C   UNL     1       3.624   6.936   1.423  0.00  0.00    +0.005 C 
ATOM     18  C   UNL     1       3.126   5.489   1.416  0.00  0.00    +0.018 C 
ENDBRANCH  16  18
ENDBRANCH   1  16
BRANCH   9  19
ATOM     19  S   UNL     1       5.019   2.492  -0.048  0.00  0.00    -0.075 S 
BRANCH  19  20
ATOM     20  C   UNL     1       5.319   0.707  -0.058  0.00  0.00    +0.137 C 
ATOM     21  C   UNL     1       4.806   0.096   1.247  0.00  0.00    +0.029 C 
BRANCH  20  22
ATOM     22  C   UNL     1       6.798   0.447  -0.186  0.00  0.00    +0.230 C 
ATOM     23  O   UNL     1       7.595   1.284   0.181  0.00  0.00    -0.274 OA
ATOM     24  N   UNL     1       7.235  -0.716  -0.710  0.00  0.00    -0.284 N 
ATOM     25  H   UNL     1       6.602  -1.417  -0.929  0.00  0.00    +0.155 HD
BRANCH  24  26
ATOM     26  C   UNL     1       8.602  -0.911  -0.936  0.00  0.00    +0.036 A 
ATOM     27  C   UNL     1       9.439   0.181  -1.126  0.00  0.00    +0.024 A 
ATOM     28  C   UNL     1      10.788  -0.016  -1.349  0.00  0.00    +0.005 A 
ATOM     29  C   UNL     1      11.305  -1.298  -1.383  0.00  0.00    -0.050 A 
ATOM     30  C   UNL     1      10.475  -2.387  -1.194  0.00  0.00    +0.008 A 
ATOM     31  C   UNL     1       9.126  -2.197  -0.965  0.00  0.00    -0.029 A 
ATOM     32  C   UNL     1       8.222  -3.384  -0.753  0.00  0.00    +0.045 C 
ATOM     33  C   UNL     1      12.777  -1.508  -1.627  0.00  0.00    +0.044 C 
ENDBRANCH  24  26
ENDBRANCH  20  22
ENDBRANCH  19  20
ENDBRANCH   9  19
TORSDOF 8
