REMARK  Name = ZINC22187609
REMARK  11 active torsions:
REMARK  status: ('A' for Active; 'I' for Inactive)
REMARK    1  A    between atoms: C_1  and  C_2
REMARK    2  A    between atoms: C_6  and  N_9
REMARK    3  A    between atoms: C_7  and  C_8
REMARK    4  A    between atoms: C_10  and  S_14
REMARK    5  A    between atoms: S_14  and  C_15
REMARK    6  A    between atoms: C_15  and  C_16
REMARK    7  A    between atoms: N_18  and  C_19
REMARK    8  A    between atoms: C_20  and  C_33
REMARK    9  A    between atoms: C_21  and  C_32
REMARK   10  A    between atoms: C_22  and  C_31
REMARK   11  A    between atoms: N_23  and  C_24
REMARK                            x       y       z     vdW  Elec       q    Type
REMARK                         _______ _______ _______ _____ _____    ______ ____
ROOT
ATOM      1  C   UNL     1      -2.977   3.185   4.211  0.00  0.00    +0.229 C 
ATOM      2  O   UNL     1      -1.969   3.402   4.849  0.00  0.00    -0.275 OA
ATOM      3  N   UNL     1      -2.893   2.616   2.992  0.00  0.00    -0.270 N 
ATOM      4  H   UNL     1      -3.795   2.510   2.371  0.00  0.00    +0.156 HD
ENDROOT
BRANCH   3   5
ATOM      5  C   UNL     1      -1.669   2.164   2.520  0.00  0.00    +0.128 A 
ATOM      6  C   UNL     1      -1.413   0.911   1.982  0.00  0.00    +0.095 A 
ATOM      7  C   UNL     1       0.013   0.903   1.632  0.00  0.00    -0.010 A 
ATOM      8  C   UNL     1       0.498   2.111   1.964  0.00  0.00    +0.027 A 
ATOM      9  N   UNL     1      -0.508   2.873   2.498  0.00  0.00    -0.300 N 
ATOM     10  C   UNL     1       1.925   2.558   1.777  0.00  0.00    +0.064 C 
ATOM     11  C   UNL     1       0.781  -0.237   1.014  0.00  0.00    +0.047 C 
BRANCH   9  12
ATOM     12  C   UNL     1      -0.362   4.190   2.955  0.00  0.00    +0.048 A 
ATOM     13  C   UNL     1       0.403   4.454   4.083  0.00  0.00    +0.029 A 
ATOM     14  C   UNL     1       0.550   5.753   4.529  0.00  0.00    +0.040 A 
ATOM     15  C   UNL     1      -0.074   6.791   3.858  0.00  0.00    +0.124 A 
ATOM     16  C   UNL     1      -0.843   6.529   2.736  0.00  0.00    +0.040 A 
ATOM     17  C   UNL     1      -0.988   5.232   2.284  0.00  0.00    +0.029 A 
ATOM     18  F   UNL     1       0.067   8.060   4.299  0.00  0.00    -0.205 F 
ENDBRANCH   9  12
BRANCH   6  19
ATOM     19  C   UNL     1      -2.349  -0.159   1.806  0.00  0.00    +0.103 C 
ATOM     20  N   UNL     1      -3.092  -1.007   1.666  0.00  0.00    -0.191 NA
ENDBRANCH   6  19
ENDBRANCH   3   5
BRANCH   1  21
ATOM     21  C   UNL     1      -4.323   3.552   4.780  0.00  0.00    +0.173 C 
BRANCH  21  22
ATOM     22  S   UNL     1      -4.104   4.291   6.418  0.00  0.00    -0.075 S 
BRANCH  22  24
ATOM     23  N   UNL     1      -6.241   5.181   7.986  0.00  0.00    -0.187 N 
ATOM     24  C   UNL     1      -5.786   4.614   6.835  0.00  0.00    +0.214 A 
ATOM     25  N   UNL     1      -6.840   4.358   6.090  0.00  0.00    -0.101 NA
ATOM     26  N   UNL     1      -7.915   4.715   6.694  0.00  0.00    -0.022 NA
ATOM     27  N   UNL     1      -7.639   5.225   7.845  0.00  0.00    -0.038 NA
BRANCH  23  33
ATOM     28  C   UNL     1      -5.213   8.678  11.289  0.00  0.00    +0.044 C 
ATOM     29  C   UNL     1      -4.962   7.316  10.697  0.00  0.00    -0.046 A 
ATOM     30  C   UNL     1      -3.978   6.502  11.229  0.00  0.00    +0.004 A 
ATOM     31  C   UNL     1      -3.744   5.252  10.688  0.00  0.00    +0.002 A 
ATOM     32  C   UNL     1      -4.496   4.809   9.617  0.00  0.00    +0.028 A 
ATOM     33  C   UNL     1      -5.480   5.625   9.077  0.00  0.00    +0.073 A 
ATOM     34  C   UNL     1      -5.713   6.881   9.622  0.00  0.00    -0.022 A 
ATOM     35  C   UNL     1      -6.784   7.768   9.042  0.00  0.00    +0.046 C 
ENDBRANCH  23  33
ENDBRANCH  22  24
ENDBRANCH  21  22
ENDBRANCH   1  21
TORSDOF 7
