REMARK  Name = ZINC21607603
REMARK  10 active torsions:
REMARK  status: ('A' for Active; 'I' for Inactive)
REMARK    1  A    between atoms: C_1  and  C_2
REMARK    2  A    between atoms: C_2  and  C_4
REMARK    3  A    between atoms: C_2  and  S_19
REMARK    4  A    between atoms: N_6  and  C_7
REMARK    5  A    between atoms: C_12  and  C_13
REMARK    6  A    between atoms: S_19  and  C_20
REMARK    7  A    between atoms: C_23  and  C_26
REMARK    8  A    between atoms: N_24  and  N_25
REMARK    9  A    between atoms: C_29  and  O_32
REMARK   10  A    between atoms: O_32  and  C_33
REMARK                            x       y       z     vdW  Elec       q    Type
REMARK                         _______ _______ _______ _____ _____    ______ ____
ROOT
ATOM      1  S   UNL     1      -2.681  -2.783   0.925  0.00  0.00    -0.072 S 
ENDROOT
BRANCH   1   2
ATOM      2  C   UNL     1      -2.324  -4.502   1.072  0.00  0.00    +0.209 A 
ATOM      3  N   UNL     1      -1.202  -5.097   0.733  0.00  0.00    -0.121 NA
ATOM      4  N   UNL     1      -1.280  -6.356   0.974  0.00  0.00    -0.127 NA
ATOM      5  C   UNL     1      -2.456  -6.644   1.483  0.00  0.00    +0.182 A 
ATOM      6  N   UNL     1      -3.159  -5.464   1.566  0.00  0.00    -0.224 N 
BRANCH   5   7
ATOM      7  C   UNL     1      -2.933  -7.981   1.894  0.00  0.00    +0.021 A 
ATOM      8  C   UNL     1      -4.292  -8.198   2.129  0.00  0.00    +0.015 A 
ATOM      9  C   UNL     1      -4.733  -9.448   2.508  0.00  0.00    +0.046 A 
ATOM     10  C   UNL     1      -3.827 -10.488   2.666  0.00  0.00    +0.127 A 
ATOM     11  C   UNL     1      -2.473 -10.275   2.438  0.00  0.00    +0.046 A 
ATOM     12  C   UNL     1      -2.025  -9.029   2.054  0.00  0.00    +0.015 A 
BRANCH  10  13
ATOM     13  O   UNL     1      -4.265 -11.717   3.045  0.00  0.00    -0.434 OA
BRANCH  13  14
ATOM     14  C   UNL     1      -5.669 -11.866   3.262  0.00  0.00    +0.541 C 
ATOM     15  F   UNL     1      -6.080 -10.992   4.274  0.00  0.00    -0.166 F 
ATOM     16  F   UNL     1      -6.358 -11.569   2.082  0.00  0.00    -0.166 F 
ENDBRANCH  13  14
ENDBRANCH  10  13
ENDBRANCH   5   7
BRANCH   6  17
ATOM     17  N   UNL     1      -4.428  -5.290   2.041  0.00  0.00    -0.295 N 
ATOM     18  H   UNL     1      -4.998  -6.154   2.413  0.00  0.00    +0.163 HD
ATOM     19  H   UNL     1      -4.879  -4.287   2.051  0.00  0.00    +0.163 HD
ENDBRANCH   6  17
ENDBRANCH   1   2
BRANCH   1  21
ATOM     20  C   UNL     1      -0.935  -2.803  -1.177  0.00  0.00    +0.029 C 
ATOM     21  C   UNL     1      -1.121  -2.197   0.216  0.00  0.00    +0.137 C 
BRANCH  21  22
ATOM     22  C   UNL     1      -1.150  -0.694   0.111  0.00  0.00    +0.230 C 
ATOM     23  O   UNL     1      -2.211  -0.106   0.124  0.00  0.00    -0.274 OA
ATOM     24  N   UNL     1       0.002  -0.004   0.002  0.00  0.00    -0.284 N 
ATOM     25  H   UNL     1       0.958  -0.541  -0.085  0.00  0.00    +0.155 HD
BRANCH  24  26
ATOM     26  C   UNL     1      -0.018   1.393  -0.000  0.00  0.00    +0.041 A 
ATOM     27  C   UNL     1      -1.073   2.074  -0.592  0.00  0.00    +0.024 A 
ATOM     28  C   UNL     1      -1.093   3.455  -0.589  0.00  0.00    +0.002 A 
ATOM     29  C   UNL     1      -0.059   4.168  -0.007  0.00  0.00    +0.001 A 
ATOM     30  C   UNL     1       1.000   3.504   0.580  0.00  0.00    +0.010 A 
ATOM     31  C   UNL     1       1.029   2.112   0.588  0.00  0.00    +0.003 A 
BRANCH  31  32
ATOM     32  C   UNL     1       2.163   1.394   1.218  0.00  0.00    -0.016 A 
ATOM     33  C   UNL     1       1.922   0.377   2.140  0.00  0.00    +0.008 A 
ATOM     34  C   UNL     1       2.982  -0.291   2.720  0.00  0.00    +0.001 A 
ATOM     35  C   UNL     1       4.281   0.055   2.395  0.00  0.00    +0.000 A 
ATOM     36  C   UNL     1       4.527   1.067   1.485  0.00  0.00    +0.001 A 
ATOM     37  C   UNL     1       3.475   1.738   0.895  0.00  0.00    +0.008 A 
ENDBRANCH  31  32
ENDBRANCH  24  26
ENDBRANCH  21  22
ENDBRANCH   1  21
TORSDOF 9
