REMARK  Name = ZINC16886269
REMARK  10 active torsions:
REMARK  status: ('A' for Active; 'I' for Inactive)
REMARK    1  A    between atoms: C_1  and  C_2
REMARK    2  A    between atoms: C_4  and  C_30
REMARK    3  A    between atoms: C_5  and  C_9
REMARK    4  A    between atoms: C_6  and  C_8
REMARK    5  A    between atoms: C_9  and  S_10
REMARK    6  A    between atoms: S_10  and  C_11
REMARK    7  A    between atoms: C_13  and  O_29
REMARK    8  A    between atoms: C_14  and  C_18
REMARK    9  A    between atoms: C_15  and  O_17
REMARK   10  A    between atoms: C_18  and  C_19
REMARK                            x       y       z     vdW  Elec       q    Type
REMARK                         _______ _______ _______ _____ _____    ______ ____
ROOT
ATOM      1  C   UNL     1      -3.570   5.090  -3.830  0.00  0.00    +0.195 A 
ATOM      2  N   UNL     1      -4.044   3.930  -3.398  0.00  0.00    -0.187 NA
ATOM      3  C   UNL     1      -3.763   3.494  -2.175  0.00  0.00    +0.223 A 
ATOM      4  C   UNL     1      -2.962   4.271  -1.346  0.00  0.00    +0.079 A 
ATOM      5  C   UNL     1      -2.487   5.485  -1.831  0.00  0.00    +0.223 A 
ATOM      6  N   UNL     1      -2.804   5.856  -3.067  0.00  0.00    -0.187 NA
ENDROOT
BRANCH   5   7
ATOM      7  O   UNL     1      -1.708   6.277  -1.055  0.00  0.00    -0.492 OA
ATOM      8  H   UNL     1      -0.759   6.154  -1.196  0.00  0.00    +0.294 HD
ENDBRANCH   5   7
BRANCH   3   9
ATOM      9  O   UNL     1      -4.252   2.307  -1.741  0.00  0.00    -0.492 OA
ATOM     10  H   UNL     1      -5.113   2.372  -1.304  0.00  0.00    +0.294 HD
ENDBRANCH   3   9
BRANCH   1  11
ATOM     11  S   UNL     1      -3.969   5.627  -5.460  0.00  0.00    -0.081 S 
BRANCH  11  12
ATOM     12  C   UNL     1      -3.085   7.206  -5.496  0.00  0.00    +0.113 C 
BRANCH  12  17
ATOM     13  C   UNL     1      -3.867   9.736 -10.632  0.00  0.00    +0.044 C 
ATOM     14  C   UNL     1      -3.663   9.077  -9.293  0.00  0.00    -0.050 A 
ATOM     15  C   UNL     1      -4.543   9.329  -8.257  0.00  0.00    +0.007 A 
ATOM     16  C   UNL     1      -4.356   8.723  -7.028  0.00  0.00    -0.046 A 
ATOM     17  C   UNL     1      -3.289   7.866  -6.835  0.00  0.00    -0.031 A 
ATOM     18  C   UNL     1      -2.406   7.618  -7.869  0.00  0.00    -0.046 A 
ATOM     19  C   UNL     1      -2.596   8.219  -9.100  0.00  0.00    +0.007 A 
ATOM     20  C   UNL     1      -1.239   6.689  -7.657  0.00  0.00    +0.044 C 
ATOM     21  C   UNL     1      -5.316   8.998  -5.899  0.00  0.00    +0.044 C 
ENDBRANCH  12  17
ENDBRANCH  11  12
ENDBRANCH   1  11
BRANCH   4  22
ATOM     22  C   UNL     1      -2.622   3.812   0.048  0.00  0.00    +0.081 C 
BRANCH  22  23
ATOM     23  C   UNL     1      -1.295   3.097   0.032  0.00  0.00    -0.035 A 
ATOM     24  C   UNL     1      -0.664   2.853  -1.150  0.00  0.00    +0.004 A 
ATOM     25  C   UNL     1       0.560   2.188  -1.185  0.00  0.00    +0.001 A 
ATOM     26  C   UNL     1       1.166   1.774  -0.039  0.00  0.00    +0.008 A 
ATOM     27  C   UNL     1       0.548   2.014   1.200  0.00  0.00    -0.018 A 
ATOM     28  C   UNL     1      -0.700   2.685   1.236  0.00  0.00    -0.014 A 
ATOM     29  C   UNL     1      -1.318   2.925   2.475  0.00  0.00    +0.009 A 
ATOM     30  C   UNL     1      -0.711   2.513   3.621  0.00  0.00    +0.001 A 
ATOM     31  C   UNL     1       0.516   1.853   3.586  0.00  0.00    +0.001 A 
ATOM     32  C   UNL     1       1.144   1.603   2.405  0.00  0.00    +0.008 A 
ENDBRANCH  22  23
ENDBRANCH   4  22
TORSDOF 7
