REMARK  Name = ZINC06490028
REMARK  8 active torsions:
REMARK  status: ('A' for Active; 'I' for Inactive)
REMARK    1  A    between atoms: C_1  and  C_2
REMARK    2  A    between atoms: C_2  and  N_3
REMARK    3  A    between atoms: C_4  and  C_35
REMARK    4  A    between atoms: C_5  and  C_8
REMARK    5  A    between atoms: C_19  and  O_34
REMARK    6  A    between atoms: C_23  and  C_33
REMARK    7  A    between atoms: C_28  and  C_32
REMARK    8  A    between atoms: C_29  and  O_31
REMARK                            x       y       z     vdW  Elec       q    Type
REMARK                         _______ _______ _______ _____ _____    ______ ____
ROOT
ATOM      1  C   UNL     1       0.434   4.566   2.454  0.00  0.00    +0.013 C 
ATOM      2  C   UNL     1       1.270   3.780   1.792  0.00  0.00    -0.040 C 
ATOM      3  C   UNL     1       1.304   3.563   0.287  0.00  0.00    +0.037 C 
ATOM      4  C   UNL     1       1.965   2.161   0.122  0.00  0.00    +0.005 C 
ATOM      5  C   UNL     1       0.880   1.132   0.456  0.00  0.00    +0.001 C 
ATOM      6  C   UNL     1      -0.025   0.991  -0.777  0.00  0.00    +0.031 C 
ATOM      7  C   UNL     1      -1.003  -0.125  -0.573  0.00  0.00    -0.027 C 
ATOM      8  C   UNL     1      -0.829  -1.085   0.279  0.00  0.00    -0.065 C 
ATOM      9  C   UNL     1      -1.910  -2.140   0.452  0.00  0.00    +0.062 C 
ATOM     10  C   UNL     1      -1.844  -2.614   1.911  0.00  0.00    +0.119 C 
ATOM     11  C   UNL     1      -1.480  -1.438   2.814  0.00  0.00    +0.032 C 
ATOM     12  C   UNL     1      -0.024  -1.021   2.615  0.00  0.00    +0.014 C 
ATOM     13  C   UNL     1       0.385  -1.216   1.157  0.00  0.00    -0.008 C 
ATOM     14  C   UNL     1       1.487  -0.235   0.768  0.00  0.00    +0.003 C 
ATOM     15  C   UNL     1       2.440  -0.094   1.964  0.00  0.00    +0.005 C 
ATOM     16  C   UNL     1       3.579   0.847   1.580  0.00  0.00    +0.010 C 
ATOM     17  C   UNL     1       3.047   2.213   1.213  0.00  0.00    +0.001 C 
ATOM     18  C   UNL     1       2.372   2.926   2.392  0.00  0.00    +0.147 C 
ATOM     19  C   UNL     1       4.202   3.078   0.703  0.00  0.00    +0.014 C 
ATOM     20  C   UNL     1       0.927  -2.637   0.996  0.00  0.00    +0.016 C 
ENDROOT
BRANCH   1  23
ATOM     21  N   UNL     1       0.106   5.156   6.018  0.00  0.00    -0.268 N 
ATOM     22  C   UNL     1      -0.392   5.211   4.766  0.00  0.00    +0.043 A 
ATOM     23  C   UNL     1       0.554   4.703   3.922  0.00  0.00    +0.015 A 
ATOM     24  C   UNL     1       1.669   4.339   4.705  0.00  0.00    +0.142 A 
ATOM     25  N   UNL     1       1.395   4.612   5.953  0.00  0.00    -0.179 NA
ATOM     26  C   UNL     1      -1.749   5.734   4.371  0.00  0.00    +0.066 C 
BRANCH  21  28
ATOM     27  C   UNL     1      -0.269   7.071   7.492  0.00  0.00    +0.029 C 
ATOM     28  C   UNL     1      -0.580   5.595   7.235  0.00  0.00    +0.140 C 
ENDBRANCH  21  28
ENDBRANCH   1  23
BRANCH  18  29
ATOM     29  O   UNL     1       1.816   1.967   3.294  0.00  0.00    -0.387 OA
ATOM     30  H   UNL     1       1.452   2.352   4.102  0.00  0.00    +0.210 HD
ENDBRANCH  18  29
BRANCH  10  31
ATOM     31  O   UNL     1      -3.116  -3.137   2.299  0.00  0.00    -0.391 OA
ATOM     32  H   UNL     1      -3.411  -3.889   1.766  0.00  0.00    +0.210 HD
ENDBRANCH  10  31
TORSDOF 4
