REMARK  Name = ZINC09501257
REMARK  9 active torsions:
REMARK  status: ('A' for Active; 'I' for Inactive)
REMARK    1  A    between atoms: C_1  and  C_2
REMARK    2  A    between atoms: C_3  and  C_33
REMARK    3  A    between atoms: N_4  and  C_26
REMARK    4  A    between atoms: C_5  and  N_9
REMARK    5  A    between atoms: C_6  and  C_7
REMARK    6  A    between atoms: C_10  and  C_12
REMARK    7  A    between atoms: C_12  and  N_61
REMARK    8  A    between atoms: C_21  and  C_23
REMARK    9  A    between atoms: C_26  and  C_27
REMARK                            x       y       z     vdW  Elec       q    Type
REMARK                         _______ _______ _______ _____ _____    ______ ____
ROOT
ATOM      1  N   UNL     1      -5.755   8.176   1.301  0.00  0.00    -0.272 N 
ATOM      2  C   UNL     1      -5.044   7.615   0.303  0.00  0.00    +0.202 C 
ATOM      3  O   UNL     1      -5.603   7.249  -0.709  0.00  0.00    -0.278 OA
ATOM      4  H   UNL     1      -5.303   8.505   2.094  0.00  0.00    +0.156 HD
ENDROOT
BRANCH   1   9
ATOM      5  C   UNL     1     -10.678   7.109   0.894  0.00  0.00    +0.047 C 
ATOM      6  C   UNL     1      -9.363   7.836   1.012  0.00  0.00    -0.011 A 
ATOM      7  C   UNL     1      -9.183   9.166   1.051  0.00  0.00    +0.022 A 
ATOM      8  N   UNL     1      -7.846   9.439   1.167  0.00  0.00    -0.329 N 
ATOM      9  C   UNL     1      -7.134   8.283   1.195  0.00  0.00    +0.123 A 
ATOM     10  C   UNL     1      -8.031   7.228   1.104  0.00  0.00    +0.095 A 
ATOM     11  C   UNL     1     -10.281  10.197   0.985  0.00  0.00    +0.064 C 
BRANCH  10  12
ATOM     12  C   UNL     1      -7.719   5.830   1.102  0.00  0.00    +0.103 C 
ATOM     13  N   UNL     1      -7.472   4.721   1.101  0.00  0.00    -0.191 NA
ENDBRANCH  10  12
BRANCH   8  14
ATOM     14  C   UNL     1      -7.268  10.783   1.246  0.00  0.00    +0.154 C 
BRANCH  14  15
ATOM     15  C   UNL     1      -7.072  11.337  -0.166  0.00  0.00    +0.138 C 
ATOM     16  C   UNL     1      -6.405  12.734  -0.108  0.00  0.00    +0.035 C 
ATOM     17  C   UNL     1      -5.735  12.800  -1.508  0.00  0.00    +0.031 C 
ATOM     18  C   UNL     1      -5.335  11.329  -1.749  0.00  0.00    +0.160 C 
ATOM     19  O   UNL     1      -6.152  10.513  -0.902  0.00  0.00    -0.375 OA
ENDBRANCH  14  15
ENDBRANCH   8  14
ENDBRANCH   1   9
BRANCH   2  20
ATOM     20  C   UNL     1      -3.554   7.442   0.445  0.00  0.00    +0.020 C 
BRANCH  20  30
ATOM     21  C   UNL     1      -3.765   5.376  -0.795  0.00  0.00    -0.041 C 
ATOM     22  C   UNL     1      -3.169   4.528  -1.888  0.00  0.00    -0.061 A 
ATOM     23  C   UNL     1      -3.922   3.479  -2.395  0.00  0.00    +0.002 A 
ATOM     24  C   UNL     1      -3.410   2.669  -3.389  0.00  0.00    +0.000 A 
ATOM     25  C   UNL     1      -2.146   2.912  -3.892  0.00  0.00    +0.000 A 
ATOM     26  C   UNL     1      -1.399   3.961  -3.395  0.00  0.00    +0.004 A 
ATOM     27  C   UNL     1      -1.909   4.771  -2.392  0.00  0.00    -0.047 A 
ATOM     28  C   UNL     1      -1.060   5.907  -1.883  0.00  0.00    +0.029 C 
ATOM     29  C   UNL     1      -1.599   6.402  -0.541  0.00  0.00    +0.024 C 
ATOM     30  N   UNL     1      -3.045   6.657  -0.702  0.00  0.00    +0.396 N 
ATOM     31  H   UNL     1      -3.197   7.191  -1.566  0.00  0.00    -0.080 HD
BRANCH  29  32
ATOM     32  C   UNL     1      -0.900   7.680  -0.154  0.00  0.00    +0.197 C 
ATOM     33  O   UNL     1      -1.299   8.743  -0.580  0.00  0.00    -0.278 OA
ATOM     34  N   UNL     1       0.169   7.641   0.666  0.00  0.00    -0.331 N 
ATOM     35  H   UNL     1       0.488   6.791   1.007  0.00  0.00    +0.145 HD
ATOM     36  H   UNL     1       0.619   8.463   0.915  0.00  0.00    +0.145 HD
ENDBRANCH  29  32
ENDBRANCH  20  30
ENDBRANCH   2  20
TORSDOF 7
