REMARK  Name = ZINC05941549
REMARK  6 active torsions:
REMARK  status: ('A' for Active; 'I' for Inactive)
REMARK    1  A    between atoms: C_1  and  C_2
REMARK    2  A    between atoms: C_3  and  N_12
REMARK    3  A    between atoms: C_13  and  C_15
REMARK    4  A    between atoms: C_15  and  S_16
REMARK    5  A    between atoms: S_16  and  C_17
REMARK    6  A    between atoms: C_29  and  C_33
REMARK                            x       y       z     vdW  Elec       q    Type
REMARK                         _______ _______ _______ _____ _____    ______ ____
ROOT
ATOM      1  S   UNL     1       0.960  -5.826  -3.733  0.00  0.00    -0.078 S 
ENDROOT
BRANCH   1   2
ATOM      2  C   UNL     1       0.900  -4.245  -2.958  0.00  0.00    +0.170 A 
ATOM      3  N   UNL     1       0.022  -4.052  -1.935  0.00  0.00    -0.301 N 
ATOM      4  H   UNL     1      -0.544  -4.792  -1.665  0.00  0.00    +0.171 HD
ATOM      5  C   UNL     1      -0.098  -2.874  -1.278  0.00  0.00    +0.261 A 
ATOM      6  O   UNL     1      -0.890  -2.720  -0.365  0.00  0.00    -0.267 OA
ATOM      7  C   UNL     1       0.765  -1.820  -1.722  0.00  0.00    +0.075 A 
ATOM      8  C   UNL     1       0.834  -0.470  -1.188  0.00  0.00    -0.023 A 
ATOM      9  C   UNL     1       1.729   0.366  -1.762  0.00  0.00    -0.004 A 
ATOM     10  S   UNL     1       2.514  -0.595  -3.032  0.00  0.00    -0.073 S 
ATOM     11  C   UNL     1       1.645  -2.112  -2.790  0.00  0.00    +0.117 A 
ATOM     12  N   UNL     1       1.713  -3.292  -3.393  0.00  0.00    -0.216 NA
ATOM     13  C   UNL     1       1.997   1.794  -1.403  0.00  0.00    +0.046 C 
ATOM     14  C   UNL     1       1.368   2.077  -0.031  0.00  0.00    -0.009 C 
ATOM     15  C   UNL     1      -0.065   1.538  -0.030  0.00  0.00    +0.008 C 
ATOM     16  C   UNL     1      -0.045   0.010  -0.036  0.00  0.00    +0.037 C 
ATOM     17  C   UNL     1       1.350   3.586   0.224  0.00  0.00    +0.008 C 
ENDBRANCH   1   2
BRANCH   1  18
ATOM     18  C   UNL     1       2.249  -5.522  -4.967  0.00  0.00    +0.173 C 
BRANCH  18  20
ATOM     19  N   UNL     1       3.398  -6.784  -6.758  0.00  0.00    -0.279 N 
ATOM     20  C   UNL     1       2.477  -6.775  -5.774  0.00  0.00    +0.228 C 
ATOM     21  O   UNL     1       1.832  -7.774  -5.538  0.00  0.00    -0.275 OA
ATOM     22  H   UNL     1       3.865  -5.967  -6.992  0.00  0.00    +0.155 HD
BRANCH  19  25
ATOM     23  C   UNL     1       6.040  -7.788  -6.697  0.00  0.00    +0.065 C 
ATOM     24  C   UNL     1       4.934  -8.492  -7.441  0.00  0.00    +0.044 A 
ATOM     25  C   UNL     1       3.682  -7.978  -7.444  0.00  0.00    +0.118 A 
ATOM     26  C   UNL     1       2.659  -8.660  -8.158  0.00  0.00    +0.276 A 
ATOM     27  O   UNL     1       1.526  -8.216  -8.181  0.00  0.00    -0.266 OA
ATOM     28  N   UNL     1       2.957  -9.802  -8.808  0.00  0.00    -0.274 N 
ATOM     29  H   UNL     1       2.242 -10.288  -9.312  0.00  0.00    +0.173 HD
ATOM     30  C   UNL     1       4.210 -10.293  -8.783  0.00  0.00    +0.327 A 
ATOM     31  O   UNL     1       4.460 -11.325  -9.377  0.00  0.00    -0.247 OA
ATOM     32  N   UNL     1       5.189  -9.660  -8.113  0.00  0.00    -0.310 N 
ATOM     33  H   UNL     1       6.112 -10.045  -8.105  0.00  0.00    +0.170 HD
ENDBRANCH  19  25
ENDBRANCH  18  20
ENDBRANCH   1  18
TORSDOF 4
