REMARK  Name = ZINC34988082
REMARK  5 active torsions:
REMARK  status: ('A' for Active; 'I' for Inactive)
REMARK    1  A    between atoms: C_8  and  N_25
REMARK    2  A    between atoms: C_9  and  C_12
REMARK    3  A    between atoms: N_16  and  C_20
REMARK    4  A    between atoms: C_20  and  C_21
REMARK    5  A    between atoms: C_21  and  C_22
REMARK                            x       y       z     vdW  Elec       q    Type
REMARK                         _______ _______ _______ _____ _____    ______ ____
ROOT
ATOM      1  C   UNL     1       0.081   1.408   0.573  0.00  0.00    +0.005 A 
ATOM      2  C   UNL     1       1.239   2.113   0.216  0.00  0.00    +0.018 A 
ATOM      3  C   UNL     1       2.369   1.443  -0.105  0.00  0.00    +0.096 A 
ATOM      4  N   UNL     1       2.401   0.081  -0.088  0.00  0.00    -0.268 N 
ATOM      5  C   UNL     1       1.288  -0.634   0.257  0.00  0.00    +0.142 A 
ATOM      6  C   UNL     1       0.103   0.045   0.594  0.00  0.00    +0.047 A 
ATOM      7  N   UNL     1       1.300  -1.967   0.280  0.00  0.00    -0.214 NA
ATOM      8  C   UNL     1       2.387  -2.659  -0.029  0.00  0.00    +0.136 A 
ATOM      9  C   UNL     1       3.570  -1.972  -0.394  0.00  0.00    +0.081 A 
ATOM     10  C   UNL     1       3.545  -0.557  -0.415  0.00  0.00    +0.267 A 
ATOM     11  O   UNL     1       4.541   0.075  -0.723  0.00  0.00    -0.267 OA
ENDROOT
BRANCH   8  12
ATOM     12  N   UNL     1       2.367  -4.036   0.006  0.00  0.00    -0.314 N 
ATOM     13  C   UNL     1       1.206  -4.780  -0.500  0.00  0.00    +0.112 C 
ATOM     14  C   UNL     1       0.716  -5.734   0.595  0.00  0.00    +0.084 C 
ATOM     15  C   UNL     1       1.879  -6.614   1.058  0.00  0.00    +0.173 C 
ATOM     16  C   UNL     1       2.995  -5.741   1.635  0.00  0.00    +0.084 C 
ATOM     17  C   UNL     1       3.509  -4.788   0.544  0.00  0.00    +0.112 C 
ATOM     18  O   UNL     1       1.419  -7.530   2.059  0.00  0.00    -0.346 OA
ATOM     19  C   UNL     1       1.657  -8.863   1.561  0.00  0.00    +0.191 C 
ATOM     20  C   UNL     1       2.760  -8.646   0.495  0.00  0.00    +0.191 C 
ATOM     21  O   UNL     1       2.386  -7.362  -0.059  0.00  0.00    -0.346 OA
ENDBRANCH   8  12
BRANCH   9  22
ATOM     22  C   UNL     1       4.746  -2.682  -0.729  0.00  0.00    +0.037 C 
ATOM     23  C   UNL     1       5.853  -2.581   0.064  0.00  0.00    +0.077 C 
ATOM     24  C   UNL     1       6.010  -1.933   1.322  0.00  0.00    +0.258 C 
ATOM     25  O   UNL     1       5.076  -1.357   1.851  0.00  0.00    -0.269 OA
ATOM     26  N   UNL     1       7.198  -1.975   1.900  0.00  0.00    -0.255 N 
ATOM     27  C   UNL     1       8.234  -2.615   1.313  0.00  0.00    +0.121 C 
ATOM     28  S   UNL     1       9.841  -2.795   1.874  0.00  0.00    -0.027 S 
ATOM     29  S   UNL     1       7.498  -3.233  -0.193  0.00  0.00    -0.061 S 
BRANCH  26  30
ATOM     30  C   UNL     1       7.395  -1.318   3.195  0.00  0.00    +0.126 C 
BRANCH  30  31
ATOM     31  C   UNL     1       7.092  -2.309   4.320  0.00  0.00    +0.144 C 
BRANCH  31  32
ATOM     32  C   UNL     1       7.294  -1.633   5.652  0.00  0.00    +0.358 C 
ATOM     33  O   UNL     1       7.648  -0.468   5.697  0.00  0.00    -0.246 OA
ATOM     34  O   UNL     1       7.104  -2.253   6.685  0.00  0.00    -0.246 OA
ENDBRANCH  31  32
ENDBRANCH  30  31
ENDBRANCH  26  30
ENDBRANCH   9  22
TORSDOF 5
