REMARK  Name = ZINC53659499
REMARK  7 active torsions:
REMARK  status: ('A' for Active; 'I' for Inactive)
REMARK    1  A    between atoms: C_1  and  C_2
REMARK    2  A    between atoms: C_5  and  C_7
REMARK    3  A    between atoms: C_7  and  N_8
REMARK    4  A    between atoms: C_9  and  C_11
REMARK    5  A    between atoms: C_11  and  N_12
REMARK    6  A    between atoms: C_15  and  C_19
REMARK    7  A    between atoms: C_15  and  C_20
REMARK                            x       y       z     vdW  Elec       q    Type
REMARK                         _______ _______ _______ _____ _____    ______ ____
ROOT
ATOM      1  N   UNL     1       2.373  -7.577  -3.102  0.00  0.00    -0.215 N 
ATOM      2  C   UNL     1       3.684  -7.889  -3.105  0.00  0.00    +0.252 C 
ATOM      3  O   UNL     1       4.620  -7.118  -3.099  0.00  0.00    -0.272 OA
ATOM      4  C   UNL     1       3.745  -9.403  -3.115  0.00  0.00    +0.141 C 
ATOM      5  N   UNL     1       2.329  -9.807  -3.118  0.00  0.00    -0.281 N 
ATOM      6  C   UNL     1       1.605  -8.673  -3.105  0.00  0.00    +0.310 C 
ATOM      7  O   UNL     1       0.390  -8.647  -3.099  0.00  0.00    -0.252 OA
ATOM      8  C   UNL     1       4.451  -9.922  -1.861  0.00  0.00    +0.047 C 
ATOM      9  H   UNL     1       1.985 -10.714  -3.125  0.00  0.00    +0.152 HD
ENDROOT
BRANCH   4  10
ATOM     10  C   UNL     1       4.440  -9.897  -4.359  0.00  0.00    +0.022 A 
ATOM     11  C   UNL     1       4.249 -11.052  -5.041  0.00  0.00    +0.014 A 
ATOM     12  C   UNL     1       5.009 -11.298  -6.170  0.00  0.00    +0.008 A 
ATOM     13  C   UNL     1       5.923 -10.376  -6.560  0.00  0.00    +0.045 A 
ATOM     14  S   UNL     1       5.722  -9.108  -5.319  0.00  0.00    -0.099 S 
ENDBRANCH   4  10
BRANCH   1  15
ATOM     15  C   UNL     1       1.852  -6.208  -3.092  0.00  0.00    +0.213 C 
BRANCH  15  17
ATOM     16  N   UNL     1       1.210  -4.510  -1.412  0.00  0.00    -0.309 N 
ATOM     17  C   UNL     1       1.680  -5.747  -1.667  0.00  0.00    +0.231 C 
ATOM     18  O   UNL     1       1.964  -6.489  -0.751  0.00  0.00    -0.274 OA
ATOM     19  H   UNL     1       0.983  -3.917  -2.144  0.00  0.00    +0.149 HD
BRANCH  16  20
ATOM     20  C   UNL     1       1.043  -4.062  -0.027  0.00  0.00    +0.146 C 
BRANCH  20  25
ATOM     21  C   UNL     1      -0.018   1.503   0.010  0.00  0.00    +0.051 C 
ATOM     22  C   UNL     1       0.002  -0.004   0.002  0.00  0.00    -0.013 A 
ATOM     23  C   UNL     1      -1.039  -0.872   0.002  0.00  0.00    +0.011 A 
ATOM     24  C   UNL     1      -0.780  -2.230  -0.007  0.00  0.00    +0.013 A 
ATOM     25  C   UNL     1       0.507  -2.653  -0.016  0.00  0.00    +0.007 A 
ATOM     26  S   UNL     1       1.404  -1.109  -0.018  0.00  0.00    -0.097 S 
ENDBRANCH  20  25
ENDBRANCH  16  20
ENDBRANCH  15  17
ENDBRANCH   1  15
TORSDOF 5
