REMARK  Name = ZINC03077458
REMARK  8 active torsions:
REMARK  status: ('A' for Active; 'I' for Inactive)
REMARK    1  A    between atoms: C_2  and  C_3
REMARK    2  A    between atoms: C_3  and  C_4
REMARK    3  A    between atoms: C_8  and  C_11
REMARK    4  A    between atoms: C_9  and  O_10
REMARK    5  A    between atoms: N_12  and  N_13
REMARK    6  A    between atoms: C_14  and  C_16
REMARK    7  A    between atoms: C_16  and  N_17
REMARK    8  A    between atoms: N_17  and  C_18
REMARK                            x       y       z     vdW  Elec       q    Type
REMARK                         _______ _______ _______ _____ _____    ______ ____
ROOT
ATOM      1  N   UNL     1      -0.225  -6.873   0.833  0.00  0.00    -0.206 N 
ATOM      2  C   UNL     1       1.054  -7.217   1.077  0.00  0.00    +0.249 C 
ATOM      3  O   UNL     1       1.946  -6.419   0.877  0.00  0.00    -0.272 OA
ATOM      4  H   UNL     1      -0.938  -7.511   0.993  0.00  0.00    +0.177 HD
ENDROOT
BRANCH   1   6
ATOM      5  C   UNL     1      -1.759  -5.261   0.112  0.00  0.00    +0.142 C 
ATOM      6  N   UNL     1      -0.526  -5.593   0.348  0.00  0.00    -0.188 NA
BRANCH   5  11
ATOM      7  C   UNL     1      -1.356  -1.728  -1.110  0.00  0.00    -0.002 A 
ATOM      8  C   UNL     1      -2.671  -1.383  -1.358  0.00  0.00    +0.007 A 
ATOM      9  C   UNL     1      -3.689  -2.293  -1.130  0.00  0.00    +0.001 A 
ATOM     10  C   UNL     1      -3.400  -3.554  -0.652  0.00  0.00    +0.013 A 
ATOM     11  C   UNL     1      -2.075  -3.916  -0.398  0.00  0.00    +0.036 A 
ATOM     12  C   UNL     1      -1.047  -2.992  -0.636  0.00  0.00    +0.129 A 
BRANCH  12  13
ATOM     13  O   UNL     1       0.245  -3.334  -0.397  0.00  0.00    -0.506 OA
ATOM     14  H   UNL     1       0.544  -3.140   0.502  0.00  0.00    +0.292 HD
ENDBRANCH  12  13
BRANCH   7  15
ATOM     15  C   UNL     1      -0.256  -0.730  -1.361  0.00  0.00    +0.065 C 
BRANCH  15  17
ATOM     16  C   UNL     1       0.362   0.041  -3.594  0.00  0.00    +0.004 C 
ATOM     17  C   UNL     1       0.317  -0.949  -2.738  0.00  0.00    -0.030 C 
ENDBRANCH  15  17
ENDBRANCH   7  15
ENDBRANCH   5  11
ENDBRANCH   1   6
BRANCH   2  18
ATOM     18  C   UNL     1       1.378  -8.594   1.599  0.00  0.00    +0.199 C 
BRANCH  18  19
ATOM     19  N   UNL     1       2.826  -8.719   1.781  0.00  0.00    -0.334 N 
ATOM     20  H   UNL     1       3.401  -7.950   1.640  0.00  0.00    +0.147 HD
BRANCH  19  21
ATOM     21  C   UNL     1       3.380  -9.946   2.159  0.00  0.00    +0.056 A 
ATOM     22  C   UNL     1       3.773 -10.860   1.189  0.00  0.00    +0.041 A 
ATOM     23  C   UNL     1       4.321 -12.072   1.566  0.00  0.00    +0.032 A 
ATOM     24  C   UNL     1       4.476 -12.376   2.906  0.00  0.00    +0.020 A 
ATOM     25  C   UNL     1       4.084 -11.468   3.874  0.00  0.00    +0.032 A 
ATOM     26  C   UNL     1       3.542 -10.252   3.504  0.00  0.00    +0.041 A 
ATOM     27 BR   UNL     1       3.014  -9.009   4.828  0.00  0.00    -0.048 Br
ATOM     28 BR   UNL     1       5.225 -14.036   3.417  0.00  0.00    -0.050 Br
ATOM     29 BR   UNL     1       3.561 -10.446  -0.644  0.00  0.00    -0.048 Br
ENDBRANCH  19  21
ENDBRANCH  18  19
ENDBRANCH   2  18
TORSDOF 8
