REMARK  Name = ZINC49044964
REMARK  8 active torsions:
REMARK  status: ('A' for Active; 'I' for Inactive)
REMARK    1  A    between atoms: C_1  and  C_2
REMARK    2  A    between atoms: C_2  and  C_3
REMARK    3  A    between atoms: C_6  and  S_8
REMARK    4  A    between atoms: S_8  and  N_11
REMARK    5  A    between atoms: N_11  and  C_12
REMARK    6  A    between atoms: C_15  and  C_18
REMARK    7  A    between atoms: C_19  and  C_20
REMARK    8  A    between atoms: C_20  and  N_21
REMARK                            x       y       z     vdW  Elec       q    Type
REMARK                         _______ _______ _______ _____ _____    ______ ____
ROOT
ATOM      1  C   UNL     1       4.264  -3.979   2.604  0.00  0.00    +0.048 A 
ATOM      2  C   UNL     1       3.843  -3.318   1.455  0.00  0.00    +0.026 A 
ATOM      3  C   UNL     1       4.260  -3.754   0.216  0.00  0.00    +0.018 A 
ATOM      4  C   UNL     1       5.106  -4.860   0.115  0.00  0.00    +0.025 A 
ATOM      5  C   UNL     1       5.527  -5.521   1.270  0.00  0.00    +0.018 A 
ATOM      6  C   UNL     1       5.111  -5.078   2.506  0.00  0.00    +0.026 A 
ENDROOT
BRANCH   1   7
ATOM      7  N   UNL     1       3.841  -3.536   3.857  0.00  0.00    -0.216 N 
ATOM      8  H   UNL     1       3.163  -4.031   4.343  0.00  0.00    +0.174 HD
BRANCH   7   9
ATOM      9  S   UNL     1       4.495  -2.164   4.515  0.00  0.00    +0.079 S 
ATOM     10  O   UNL     1       3.904  -2.006   5.797  0.00  0.00    -0.149 OA
ATOM     11  O   UNL     1       4.423  -1.159   3.513  0.00  0.00    -0.149 OA
BRANCH   9  15
ATOM     12  C   UNL     1       8.694  -3.088   5.636  0.00  0.00    -0.009 A 
ATOM     13  C   UNL     1       8.521  -2.662   4.361  0.00  0.00    +0.013 A 
ATOM     14  C   UNL     1       7.246  -2.351   3.925  0.00  0.00    +0.037 A 
ATOM     15  C   UNL     1       6.207  -2.482   4.786  0.00  0.00    +0.146 A 
ATOM     16  S   UNL     1       7.022  -3.067   6.262  0.00  0.00    -0.073 S 
BRANCH  12  18
ATOM     17  C   UNL     1      10.579  -2.256   7.015  0.00  0.00    +0.009 C 
ATOM     18  C   UNL     1       9.966  -3.484   6.339  0.00  0.00    +0.039 C 
ENDBRANCH  12  18
ENDBRANCH   9  15
ENDBRANCH   7   9
ENDBRANCH   1   7
BRANCH   4  19
ATOM     19  C   UNL     1       5.540  -5.315  -1.172  0.00  0.00    -0.068 C 
ATOM     20  C   UNL     1       5.897  -5.688  -2.226  0.00  0.00    -0.117 C 
BRANCH  20  21
ATOM     21  C   UNL     1       6.343  -6.156  -3.549  0.00  0.00    +0.005 C 
BRANCH  21  22
ATOM     22  N   UNL     1       7.218  -7.324  -3.385  0.00  0.00    +0.385 N 
ATOM     23  H   UNL     1       8.021  -7.068  -2.830  0.00  0.00    -0.089 HD
ATOM     24  H   UNL     1       6.710  -8.062  -2.921  0.00  0.00    -0.089 HD
ATOM     25  H   UNL     1       7.524  -7.645  -4.291  0.00  0.00    -0.089 HD
ENDBRANCH  21  22
ENDBRANCH  20  21
ENDBRANCH   4  19
TORSDOF 7
