REMARK  Name = ZINC32102138
REMARK  9 active torsions:
REMARK  status: ('A' for Active; 'I' for Inactive)
REMARK    1  A    between atoms: C_1  and  C_2
REMARK    2  A    between atoms: C_2  and  C_3
REMARK    3  A    between atoms: C_2  and  C_4
REMARK    4  A    between atoms: C_4  and  N_5
REMARK    5  A    between atoms: C_16  and  O_27
REMARK    6  A    between atoms: N_22  and  C_23
REMARK    7  A    between atoms: C_23  and  C_24
REMARK    8  A    between atoms: C_23  and  C_25
REMARK    9  A    between atoms: C_23  and  C_26
REMARK                            x       y       z     vdW  Elec       q    Type
REMARK                         _______ _______ _______ _____ _____    ______ ____
ROOT
ATOM      1  N   UNL     1      -2.105  -0.148  -1.230  0.00  0.00    -0.270 N 
ATOM      2  C   UNL     1      -2.811   1.031  -1.395  0.00  0.00    +0.041 A 
ATOM      3  C   UNL     1      -3.039   2.062  -0.483  0.00  0.00    +0.024 A 
ATOM      4  C   UNL     1      -3.791   3.141  -0.921  0.00  0.00    +0.002 A 
ATOM      5  C   UNL     1      -4.300   3.205  -2.202  0.00  0.00    +0.000 A 
ATOM      6  C   UNL     1      -4.080   2.185  -3.120  0.00  0.00    +0.007 A 
ATOM      7  C   UNL     1      -3.333   1.109  -2.693  0.00  0.00    -0.006 A 
ATOM      8  C   UNL     1      -2.907  -0.144  -3.388  0.00  0.00    +0.112 C 
ATOM      9  C   UNL     1      -2.105  -0.899  -2.353  0.00  0.00    +0.235 C 
ATOM     10  O   UNL     1      -1.565  -1.975  -2.501  0.00  0.00    -0.274 OA
ATOM     11  C   UNL     1      -2.037   0.165  -4.606  0.00  0.00    +0.121 C 
ATOM     12  C   UNL     1      -2.872   0.524  -5.801  0.00  0.00    +0.191 C 
ATOM     13  N   UNL     1      -4.052   0.028  -6.027  0.00  0.00    -0.198 NA
ATOM     14  C   UNL     1      -4.604  -0.830  -5.122  0.00  0.00    +0.159 A 
ATOM     15  C   UNL     1      -4.092  -0.952  -3.835  0.00  0.00    +0.036 A 
ATOM     16  C   UNL     1      -4.856  -1.887  -3.163  0.00  0.00    +0.141 A 
ATOM     17  N   UNL     1      -5.797  -2.315  -3.973  0.00  0.00    -0.177 NA
ATOM     18  N   UNL     1      -5.667  -1.658  -5.207  0.00  0.00    -0.241 N 
ENDROOT
BRANCH  18  19
ATOM     19  C   UNL     1      -6.530  -1.838  -6.377  0.00  0.00    +0.057 C 
ATOM     20  C   UNL     1      -5.692  -2.333  -7.557  0.00  0.00    +0.036 C 
ATOM     21  C   UNL     1      -7.616  -2.866  -6.055  0.00  0.00    +0.036 C 
ATOM     22  C   UNL     1      -7.183  -0.503  -6.739  0.00  0.00    +0.036 C 
ENDBRANCH  18  19
BRANCH  12  23
ATOM     23  O   UNL     1      -2.372   1.409  -6.687  0.00  0.00    -0.495 OA
ATOM     24  H   UNL     1      -2.960   1.595  -7.432  0.00  0.00    +0.293 HD
ENDBRANCH  12  23
BRANCH   1  25
ATOM     25  C   UNL     1      -1.433  -0.534   0.013  0.00  0.00    +0.116 C 
BRANCH  25  27
ATOM     26  C   UNL     1      -0.019   1.526   0.010  0.00  0.00    +0.009 C 
ATOM     27  C   UNL     1       0.002  -0.004   0.002  0.00  0.00    +0.001 C 
ATOM     28  C   UNL     1       0.742  -0.511   1.242  0.00  0.00    +0.009 C 
ENDBRANCH  25  27
ENDBRANCH   1  25
TORSDOF 4
