REMARK  Name = ZINC40115402
REMARK  7 active torsions:
REMARK  status: ('A' for Active; 'I' for Inactive)
REMARK    1  A    between atoms: C_1  and  C_2
REMARK    2  A    between atoms: C_2  and  C_4
REMARK    3  A    between atoms: C_2  and  N_11
REMARK    4  A    between atoms: C_12  and  C_14
REMARK    5  A    between atoms: C_16  and  S_20
REMARK    6  A    between atoms: S_20  and  N_23
REMARK    7  A    between atoms: N_23  and  C_24
REMARK                            x       y       z     vdW  Elec       q    Type
REMARK                         _______ _______ _______ _____ _____    ______ ____
ROOT
ATOM      1  C   UNL     1       2.718  -1.412   2.485  0.00  0.00    +0.104 A 
ATOM      2  C   UNL     1       4.091  -1.489   2.581  0.00  0.00    +0.061 A 
ATOM      3  C   UNL     1       4.389  -1.902   3.883  0.00  0.00    +0.126 A 
ATOM      4  C   UNL     1       3.219  -2.067   4.546  0.00  0.00    +0.112 A 
ATOM      5  N   UNL     1       2.196  -1.767   3.709  0.00  0.00    -0.355 N 
ATOM      6  H   UNL     1       1.253  -1.798   3.934  0.00  0.00    +0.166 HD
ENDROOT
BRANCH   1   8
ATOM      7  N   UNL     1       0.606  -0.980   1.346  0.00  0.00    -0.304 N 
ATOM      8  C   UNL     1       1.952  -1.018   1.298  0.00  0.00    +0.261 C 
ATOM      9  O   UNL     1       2.533  -0.725   0.269  0.00  0.00    -0.269 OA
ATOM     10  H   UNL     1       0.143  -1.214   2.166  0.00  0.00    +0.150 HD
BRANCH   7  12
ATOM     11  C   UNL     1      -0.264   0.939   0.104  0.00  0.00    +0.033 C 
ATOM     12  C   UNL     1      -0.159  -0.587   0.160  0.00  0.00    +0.100 C 
BRANCH  12  13
ATOM     13  C   UNL     1      -1.541  -1.183   0.232  0.00  0.00    -0.027 A 
ATOM     14  C   UNL     1      -2.217  -1.215   1.437  0.00  0.00    +0.007 A 
ATOM     15  C   UNL     1      -3.485  -1.762   1.504  0.00  0.00    +0.020 A 
ATOM     16  C   UNL     1      -4.076  -2.278   0.365  0.00  0.00    +0.041 A 
ATOM     17  C   UNL     1      -3.398  -2.246  -0.841  0.00  0.00    +0.020 A 
ATOM     18  C   UNL     1      -2.133  -1.694  -0.908  0.00  0.00    +0.007 A 
ATOM     19 CL   UNL     1      -5.668  -2.966   0.448  0.00  0.00    -0.084 Cl
ENDBRANCH  12  13
ENDBRANCH   7  12
ENDBRANCH   1   8
BRANCH   3  20
ATOM     20  S   UNL     1       6.001  -2.163   4.545  0.00  0.00    +0.074 S 
ATOM     21  O   UNL     1       5.854  -3.070   5.629  0.00  0.00    -0.150 OA
ATOM     22  O   UNL     1       6.856  -2.429   3.441  0.00  0.00    -0.150 OA
BRANCH  20  23
ATOM     23  N   UNL     1       6.502  -0.725   5.196  0.00  0.00    -0.213 N 
ATOM     24  H   UNL     1       7.301  -0.292   4.857  0.00  0.00    +0.174 HD
BRANCH  23  25
ATOM     25  C   UNL     1       5.773  -0.136   6.234  0.00  0.00    +0.083 A 
ATOM     26  C   UNL     1       5.161  -0.931   7.193  0.00  0.00    +0.027 A 
ATOM     27  C   UNL     1       4.442  -0.346   8.217  0.00  0.00    +0.002 A 
ATOM     28  C   UNL     1       4.330   1.031   8.288  0.00  0.00    +0.003 A 
ATOM     29  C   UNL     1       4.939   1.827   7.335  0.00  0.00    +0.040 A 
ATOM     30  C   UNL     1       5.665   1.249   6.311  0.00  0.00    +0.146 A 
ATOM     31  F   UNL     1       6.264   2.027   5.383  0.00  0.00    -0.204 F 
ENDBRANCH  23  25
ENDBRANCH  20  23
ENDBRANCH   3  20
TORSDOF 6
