REMARK  Name = ZINC45900310
REMARK  7 active torsions:
REMARK  status: ('A' for Active; 'I' for Inactive)
REMARK    1  A    between atoms: C_1  and  C_2
REMARK    2  A    between atoms: C_2  and  C_4
REMARK    3  A    between atoms: C_2  and  S_18
REMARK    4  A    between atoms: N_9  and  C_10
REMARK    5  A    between atoms: C_13  and  C_16
REMARK    6  A    between atoms: S_18  and  C_19
REMARK    7  A    between atoms: C_19  and  N_21
REMARK                            x       y       z     vdW  Elec       q    Type
REMARK                         _______ _______ _______ _____ _____    ______ ____
ROOT
ATOM      1  C   UNL     1       0.706  -0.493  -1.237  0.00  0.00    +0.233 C 
ATOM      2  O   UNL     1       1.865  -0.843  -1.177  0.00  0.00    -0.274 OA
ATOM      3  N   UNL     1       0.051  -0.531  -2.414  0.00  0.00    -0.239 N 
ATOM      4  C   UNL     1       0.684  -0.958  -3.525  0.00  0.00    +0.310 C 
ATOM      5  O   UNL     1       1.846  -1.309  -3.464  0.00  0.00    -0.252 OA
ATOM      6  N   UNL     1       0.029  -0.997  -4.702  0.00  0.00    -0.269 N 
ATOM      7  H   UNL     1      -0.877  -0.251  -2.462  0.00  0.00    +0.159 HD
ATOM      8  H   UNL     1      -0.916  -0.781  -4.738  0.00  0.00    +0.156 HD
ENDROOT
BRANCH   6   9
ATOM      9  C   UNL     1       0.710  -1.347  -5.868  0.00  0.00    +0.035 A 
ATOM     10  C   UNL     1       1.720  -2.302  -5.822  0.00  0.00    +0.024 A 
ATOM     11  C   UNL     1       2.394  -2.650  -6.971  0.00  0.00    +0.020 A 
ATOM     12  C   UNL     1       2.062  -2.042  -8.185  0.00  0.00    +0.052 A 
ATOM     13  C   UNL     1       1.047  -1.082  -8.228  0.00  0.00    +0.020 A 
ATOM     14  C   UNL     1       0.373  -0.743  -7.076  0.00  0.00    +0.024 A 
BRANCH  12  15
ATOM     15  C   UNL     1       2.762  -2.400  -9.382  0.00  0.00    +0.099 C 
ATOM     16  N   UNL     1       3.317  -2.684 -10.332  0.00  0.00    -0.191 NA
ENDBRANCH  12  15
ENDBRANCH   6   9
BRANCH   1  18
ATOM     17  C   UNL     1      -0.035   1.514   0.016  0.00  0.00    +0.029 C 
ATOM     18  C   UNL     1      -0.002  -0.015   0.004  0.00  0.00    +0.136 C 
BRANCH  18  19
ATOM     19  S   UNL     1       0.881  -0.613   1.472  0.00  0.00    -0.090 S 
BRANCH  19  20
ATOM     20  C   UNL     1      -0.137  -0.106   2.818  0.00  0.00    +0.110 C 
ATOM     21  S   UNL     1      -1.589   0.750   2.518  0.00  0.00    -0.028 S 
BRANCH  20  22
ATOM     22  N   UNL     1       0.227  -0.392   4.083  0.00  0.00    -0.319 N 
ATOM     23  C   UNL     1       1.446  -1.112   4.482  0.00  0.00    +0.106 C 
ATOM     24  C   UNL     1       1.427  -1.226   6.021  0.00  0.00    +0.020 C 
ATOM     25  C   UNL     1      -0.078  -1.063   6.364  0.00  0.00    +0.020 C 
ATOM     26  C   UNL     1      -0.527  -0.030   5.297  0.00  0.00    +0.106 C 
ENDBRANCH  20  22
ENDBRANCH  19  20
ENDBRANCH  18  19
ENDBRANCH   1  18
TORSDOF 6
