REMARK  Name = ZINC59890899
REMARK  8 active torsions:
REMARK  status: ('A' for Active; 'I' for Inactive)
REMARK    1  A    between atoms: C_1  and  C_2
REMARK    2  A    between atoms: C_7  and  C_9
REMARK    3  A    between atoms: C_7  and  N_26
REMARK    4  A    between atoms: C_9  and  N_10
REMARK    5  A    between atoms: C_11  and  C_13
REMARK    6  A    between atoms: C_16  and  N_19
REMARK    7  A    between atoms: N_26  and  C_27
REMARK    8  A    between atoms: N_26  and  C_28
REMARK                            x       y       z     vdW  Elec       q    Type
REMARK                         _______ _______ _______ _____ _____    ______ ____
ROOT
ATOM      1  N   UNL     1       1.867  -4.013   0.111  0.00  0.00    -0.313 N 
ATOM      2  C   UNL     1       2.682  -4.581  -0.799  0.00  0.00    +0.244 C 
ATOM      3  O   UNL     1       3.384  -3.884  -1.507  0.00  0.00    -0.270 OA
ATOM      4  H   UNL     1       1.308  -4.569   0.676  0.00  0.00    +0.149 HD
ENDROOT
BRANCH   2   5
ATOM      5  C   UNL     1       2.724  -6.049  -0.938  0.00  0.00    +0.037 A 
ATOM      6  C   UNL     1       1.914  -6.852  -0.129  0.00  0.00    +0.015 A 
ATOM      7  C   UNL     1       1.954  -8.221  -0.261  0.00  0.00    +0.025 A 
ATOM      8  C   UNL     1       2.801  -8.807  -1.198  0.00  0.00    +0.051 A 
ATOM      9  C   UNL     1       3.609  -8.010  -2.005  0.00  0.00    +0.025 A 
ATOM     10  C   UNL     1       3.568  -6.640  -1.882  0.00  0.00    +0.015 A 
BRANCH   8  11
ATOM     11  N   UNL     1       2.840 -10.191  -1.329  0.00  0.00    -0.207 N 
ATOM     12  C   UNL     1       2.489 -11.190  -0.304  0.00  0.00    +0.133 C 
ATOM     13  C   UNL     1       1.963 -12.482  -0.956  0.00  0.00    +0.045 C 
ATOM     14  C   UNL     1       2.956 -12.782  -2.118  0.00  0.00    +0.190 C 
ATOM     15  S   UNL     1       3.288 -11.065  -2.687  0.00  0.00    +0.046 S 
ATOM     16  O   UNL     1       2.371 -10.684  -3.704  0.00  0.00    -0.155 OA
ATOM     17  O   UNL     1       4.684 -10.847  -2.835  0.00  0.00    -0.155 OA
ENDBRANCH   8  11
ENDBRANCH   2   5
BRANCH   1  18
ATOM     18  C   UNL     1       1.826  -2.555   0.249  0.00  0.00    +0.092 C 
BRANCH  18  24
ATOM     19  C   UNL     1       3.110  -2.682   4.380  0.00  0.00    +0.007 C 
ATOM     20  C   UNL     1       2.646  -2.132   3.030  0.00  0.00    -0.015 C 
ATOM     21  C   UNL     1       2.536  -0.608   3.111  0.00  0.00    +0.003 C 
ATOM     22  C   UNL     1       2.072  -0.058   1.761  0.00  0.00    -0.001 C 
ATOM     23  C   UNL     1       0.705  -0.649   1.412  0.00  0.00    -0.010 C 
ATOM     24  C   UNL     1       0.814  -2.173   1.331  0.00  0.00    -0.050 C 
ATOM     25  C   UNL     1       1.279  -2.724   2.681  0.00  0.00    -0.007 C 
BRANCH  24  26
ATOM     26  N   UNL     1      -0.498  -2.741   0.996  0.00  0.00    +0.381 N 
ATOM     27  C   UNL     1      -1.487  -2.311   1.994  0.00  0.00    -0.096 C 
ATOM     28  C   UNL     1      -0.910  -2.273  -0.334  0.00  0.00    -0.096 C 
ATOM     29  H   UNL     1      -0.439  -3.748   0.995  0.00  0.00    -0.082 HD
ENDBRANCH  24  26
ENDBRANCH  18  24
ENDBRANCH   1  18
TORSDOF 5
