REMARK  Name = ZINC39618016
REMARK  7 active torsions:
REMARK  status: ('A' for Active; 'I' for Inactive)
REMARK    1  A    between atoms: C_1  and  O_2
REMARK    2  A    between atoms: O_2  and  C_3
REMARK    3  A    between atoms: C_8  and  C_9
REMARK    4  A    between atoms: C_12  and  S_15
REMARK    5  A    between atoms: N_13  and  N_14
REMARK    6  A    between atoms: S_15  and  C_16
REMARK    7  A    between atoms: C_18  and  C_28
REMARK                            x       y       z     vdW  Elec       q    Type
REMARK                         _______ _______ _______ _____ _____    ______ ____
ROOT
ATOM      1  C   UNL     1      -1.881  -5.800  -3.364  0.00  0.00    +0.171 C 
ATOM      2  C   UNL     1      -2.034  -7.130  -4.076  0.00  0.00    -0.009 C 
ATOM      3  C   UNL     1      -3.337  -7.555  -4.353  0.00  0.00    +0.001 A 
ATOM      4  C   UNL     1      -3.570  -8.781  -5.012  0.00  0.00    +0.010 A 
ATOM      5  C   UNL     1      -4.847  -9.171  -5.269  0.00  0.00    +0.001 A 
ATOM      6  C   UNL     1      -5.934  -8.385  -4.894  0.00  0.00    +0.002 A 
ATOM      7  C   UNL     1      -5.773  -7.193  -4.255  0.00  0.00    +0.024 A 
ATOM      8  C   UNL     1      -4.480  -6.726  -3.958  0.00  0.00    +0.041 A 
ATOM      9  N   UNL     1      -4.323  -5.555  -3.330  0.00  0.00    -0.284 N 
ATOM     10  C   UNL     1      -3.147  -5.050  -3.015  0.00  0.00    +0.235 C 
ATOM     11  O   UNL     1      -3.081  -3.979  -2.442  0.00  0.00    -0.274 OA
ATOM     12  H   UNL     1      -5.117  -5.051  -3.094  0.00  0.00    +0.155 HD
ENDROOT
BRANCH   2  13
ATOM     13  C   UNL     1      -0.907  -7.907  -4.445  0.00  0.00    -0.020 A 
ATOM     14  C   UNL     1      -0.703  -9.172  -3.872  0.00  0.00    +0.008 A 
ATOM     15  C   UNL     1       0.396  -9.919  -4.237  0.00  0.00    +0.001 A 
ATOM     16  C   UNL     1       1.297  -9.425  -5.166  0.00  0.00    +0.000 A 
ATOM     17  C   UNL     1       1.105  -8.177  -5.737  0.00  0.00    +0.001 A 
ATOM     18  C   UNL     1       0.010  -7.418  -5.390  0.00  0.00    +0.008 A 
ENDBRANCH   2  13
BRANCH   1  19
ATOM     19  S   UNL     1      -0.967  -6.094  -1.826  0.00  0.00    -0.067 S 
BRANCH  19  23
ATOM     20  C   UNL     1       0.077  -2.793  -0.013  0.00  0.00    +0.185 A 
ATOM     21  N   UNL     1      -0.557  -2.352  -1.075  0.00  0.00    -0.127 NA
ATOM     22  N   UNL     1      -0.968  -3.341  -1.784  0.00  0.00    -0.121 NA
ATOM     23  C   UNL     1      -0.622  -4.476  -1.219  0.00  0.00    +0.210 A 
ATOM     24  N   UNL     1       0.060  -4.167  -0.076  0.00  0.00    -0.224 N 
BRANCH  20  30
ATOM     25  C   UNL     1       0.636  -0.572   0.977  0.00  0.00    +0.131 A 
ATOM     26  C   UNL     1       1.216   0.191   1.977  0.00  0.00    +0.046 A 
ATOM     27  C   UNL     1       1.857  -0.425   3.035  0.00  0.00    +0.004 A 
ATOM     28  C   UNL     1       1.925  -1.806   3.103  0.00  0.00    +0.001 A 
ATOM     29  C   UNL     1       1.353  -2.580   2.115  0.00  0.00    +0.015 A 
ATOM     30  C   UNL     1       0.698  -1.969   1.045  0.00  0.00    +0.062 A 
BRANCH  25  32
ATOM     31  C   UNL     1      -0.017   1.461  -0.067  0.00  0.00    +0.277 C 
ATOM     32  O   UNL     1       0.005   0.032  -0.064  0.00  0.00    -0.494 OA
ENDBRANCH  25  32
ENDBRANCH  20  30
BRANCH  24  33
ATOM     33  N   UNL     1       0.609  -5.041   0.820  0.00  0.00    -0.295 N 
ATOM     34  H   UNL     1      -0.054  -5.285   1.540  0.00  0.00    +0.163 HD
ATOM     35  H   UNL     1       0.956  -5.866   0.354  0.00  0.00    +0.163 HD
ENDBRANCH  24  33
ENDBRANCH  19  23
ENDBRANCH   1  19
TORSDOF 6
