REMARK  Name = ZINC23894730
REMARK  8 active torsions:
REMARK  status: ('A' for Active; 'I' for Inactive)
REMARK    1  A    between atoms: C_1  and  C_2
REMARK    2  A    between atoms: C_6  and  N_8
REMARK    3  A    between atoms: C_9  and  S_13
REMARK    4  A    between atoms: S_13  and  C_14
REMARK    5  A    between atoms: C_14  and  C_16
REMARK    6  A    between atoms: C_14  and  C_17
REMARK    7  A    between atoms: C_17  and  C_19
REMARK    8  A    between atoms: C_19  and  C_29
REMARK                            x       y       z     vdW  Elec       q    Type
REMARK                         _______ _______ _______ _____ _____    ______ ____
ROOT
ATOM      1  C   UNL     1       2.844   7.233   2.063  0.00  0.00    +0.123 C 
ATOM      2  C   UNL     1       1.828   7.941   2.961  0.00  0.00    +0.028 C 
ENDROOT
BRANCH   1   3
ATOM      3  C   UNL     1       4.146   7.074   2.805  0.00  0.00    +0.189 C 
ATOM      4  O   UNL     1       4.385   6.040   3.398  0.00  0.00    -0.290 OA
BRANCH   3   5
ATOM      5  C   UNL     1       5.083   8.120   2.812  0.00  0.00    +0.123 C 
ATOM      6  C   UNL     1       6.298   7.972   3.505  0.00  0.00    +0.091 C 
ATOM      7  N   UNL     1       6.735   6.904   4.222  0.00  0.00    -0.307 N 
ATOM      8  C   UNL     1       7.972   6.939   4.836  0.00  0.00    +0.046 A 
ATOM      9  C   UNL     1       8.590   5.942   5.607  0.00  0.00    +0.024 A 
ATOM     10  C   UNL     1       9.834   6.147   6.155  0.00  0.00    +0.002 A 
ATOM     11  C   UNL     1      10.515   7.338   5.964  0.00  0.00    +0.001 A 
ATOM     12  C   UNL     1       9.929   8.338   5.209  0.00  0.00    +0.017 A 
ATOM     13  C   UNL     1       8.685   8.134   4.661  0.00  0.00    +0.035 A 
ATOM     14  S   UNL     1       7.596   9.112   3.656  0.00  0.00    -0.071 S 
ATOM     15  H   UNL     1       6.102   6.009   4.315  0.00  0.00    +0.153 HD
BRANCH   5  16
ATOM     16  C   UNL     1       4.801   9.338   2.113  0.00  0.00    +0.105 C 
ATOM     17  N   UNL     1       4.577  10.304   1.558  0.00  0.00    -0.191 NA
ENDBRANCH   5  16
ENDBRANCH   3   5
ENDBRANCH   1   3
BRANCH   1  18
ATOM     18  S   UNL     1       2.209   5.601   1.603  0.00  0.00    -0.073 S 
BRANCH  18  20
ATOM     19  N   UNL     1      -0.069   5.244   0.031  0.00  0.00    -0.187 N 
ATOM     20  C   UNL     1       0.808   6.077   0.646  0.00  0.00    +0.215 A 
ATOM     21  N   UNL     1       0.414   7.307   0.394  0.00  0.00    -0.101 NA
ATOM     22  N   UNL     1      -0.644   7.300  -0.334  0.00  0.00    -0.022 NA
ATOM     23  N   UNL     1      -0.998   6.090  -0.602  0.00  0.00    -0.038 NA
BRANCH  19  29
ATOM     24  C   UNL     1      -2.514   0.976   0.019  0.00  0.00    +0.044 C 
ATOM     25  C   UNL     1      -1.220   1.750   0.017  0.00  0.00    -0.048 A 
ATOM     26  C   UNL     1      -0.013   1.076   0.008  0.00  0.00    +0.003 A 
ATOM     27  C   UNL     1       1.176   1.782   0.000  0.00  0.00    +0.002 A 
ATOM     28  C   UNL     1       1.161   3.163   0.008  0.00  0.00    +0.028 A 
ATOM     29  C   UNL     1      -0.050   3.842   0.023  0.00  0.00    +0.070 A 
ATOM     30  C   UNL     1      -1.242   3.130   0.030  0.00  0.00    +0.031 A 
ENDBRANCH  19  29
ENDBRANCH  18  20
ENDBRANCH   1  18
TORSDOF 6
