REMARK  Name = ZINC63666819
REMARK  7 active torsions:
REMARK  status: ('A' for Active; 'I' for Inactive)
REMARK    1  A    between atoms: C_1  and  C_2
REMARK    2  A    between atoms: C_7  and  C_12
REMARK    3  A    between atoms: C_12  and  C_13
REMARK    4  A    between atoms: C_13  and  N_14
REMARK    5  A    between atoms: C_15  and  C_17
REMARK    6  A    between atoms: N_22  and  C_23
REMARK    7  A    between atoms: C_27  and  N_30
REMARK                            x       y       z     vdW  Elec       q    Type
REMARK                         _______ _______ _______ _____ _____    ______ ____
ROOT
ATOM      1  N   UNL     1       3.650  -7.413  -0.507  0.00  0.00    -0.314 N 
ATOM      2  C   UNL     1       3.285  -8.277   0.461  0.00  0.00    +0.230 C 
ATOM      3  O   UNL     1       2.117  -8.391   0.764  0.00  0.00    -0.274 OA
ATOM      4  H   UNL     1       4.585  -7.322  -0.749  0.00  0.00    +0.149 HD
ENDROOT
BRANCH   2   5
ATOM      5  C   UNL     1       4.331  -9.103   1.166  0.00  0.00    +0.145 C 
ATOM      6  C   UNL     1       4.340  -8.763   2.671  0.00  0.00    +0.029 C 
ATOM      7  C   UNL     1       4.579 -10.143   3.339  0.00  0.00    +0.017 C 
ATOM      8  C   UNL     1       3.790 -11.087   2.398  0.00  0.00    +0.088 C 
ATOM      9  N   UNL     1       4.007 -10.536   1.040  0.00  0.00    -0.260 NA
BRANCH   9  10
ATOM     10  C   UNL     1       2.822 -10.735   0.194  0.00  0.00    +0.261 C 
ATOM     11  N   UNL     1       1.571 -10.538   0.962  0.00  0.00    -0.159 NA
ATOM     12  N   UNL     1       0.672 -11.353   0.904  0.00  0.00    -0.156 NA
ATOM     13  C   UNL     1       0.804 -12.566   0.064  0.00  0.00    +0.279 C 
ATOM     14  S   UNL     1       2.622 -12.512  -0.276  0.00  0.00    -0.069 S 
BRANCH  13  15
ATOM     15  N   UNL     1       0.434 -13.773   0.807  0.00  0.00    -0.270 N 
ATOM     16  C   UNL     1      -0.947 -14.176   1.096  0.00  0.00    +0.111 C 
ATOM     17  C   UNL     1      -0.868 -15.668   1.487  0.00  0.00    +0.028 C 
ATOM     18  C   UNL     1       0.585 -15.781   2.006  0.00  0.00    +0.097 C 
ATOM     19  C   UNL     1       1.315 -14.656   1.306  0.00  0.00    +0.218 C 
ATOM     20  O   UNL     1       2.521 -14.564   1.211  0.00  0.00    -0.276 OA
ENDBRANCH  13  15
ENDBRANCH   9  10
ENDBRANCH   2   5
BRANCH   1  21
ATOM     21  C   UNL     1       2.634  -6.610  -1.192  0.00  0.00    +0.108 C 
BRANCH  21  22
ATOM     22  C   UNL     1       3.308  -5.718  -2.237  0.00  0.00    +0.065 C 
BRANCH  22  29
ATOM     23  C   UNL     1       2.128  -3.981  -8.920  0.00  0.00    +0.044 C 
ATOM     24  C   UNL     1       1.886  -4.477  -7.518  0.00  0.00    -0.048 A 
ATOM     25  C   UNL     1       0.943  -5.500  -7.317  0.00  0.00    +0.005 A 
ATOM     26  C   UNL     1       0.664  -6.002  -6.098  0.00  0.00    +0.027 A 
ATOM     27  C   UNL     1       1.362  -5.472  -4.918  0.00  0.00    +0.060 A 
ATOM     28  N   UNL     1       1.297  -5.757  -3.650  0.00  0.00    -0.363 N 
ATOM     29  C   UNL     1       2.247  -4.880  -2.953  0.00  0.00    +0.175 C 
ATOM     30  N   UNL     1       2.874  -4.045  -3.985  0.00  0.00    -0.363 N 
ATOM     31  C   UNL     1       2.360  -4.389  -5.131  0.00  0.00    +0.060 A 
ATOM     32  C   UNL     1       2.585  -3.924  -6.506  0.00  0.00    +0.030 A 
ATOM     33  H   UNL     1       0.726  -6.425  -3.240  0.00  0.00    +0.162 HD
ATOM     34  H   UNL     1       3.548  -3.363  -3.840  0.00  0.00    +0.162 HD
ENDBRANCH  22  29
ENDBRANCH  21  22
ENDBRANCH   1  21
TORSDOF 6
