REMARK  Name = ZINC35863332
REMARK  10 active torsions:
REMARK  status: ('A' for Active; 'I' for Inactive)
REMARK    1  A    between atoms: C_1  and  C_2
REMARK    2  A    between atoms: C_2  and  C_3
REMARK    3  A    between atoms: C_2  and  C_4
REMARK    4  A    between atoms: C_2  and  C_5
REMARK    5  A    between atoms: C_13  and  O_25
REMARK    6  A    between atoms: C_16  and  C_18
REMARK    7  A    between atoms: O_25  and  C_26
REMARK    8  A    between atoms: C_26  and  C_27
REMARK    9  A    between atoms: C_29  and  C_32
REMARK   10  A    between atoms: N_37  and  C_40
REMARK                            x       y       z     vdW  Elec       q    Type
REMARK                         _______ _______ _______ _____ _____    ______ ____
ROOT
ATOM      1  C   UNL     1       1.125  -0.439  -1.613  0.00  0.00    +0.222 C 
ATOM      2  O   UNL     1       1.573   0.391  -2.377  0.00  0.00    -0.275 OA
ATOM      3  N   UNL     1       1.207  -1.749  -1.918  0.00  0.00    -0.290 N 
ATOM      4  C   UNL     1       0.763  -2.784  -0.970  0.00  0.00    +0.113 C 
ATOM      5  C   UNL     1      -0.421  -3.518  -1.596  0.00  0.00    +0.054 C 
ATOM      6  C   UNL     1      -0.122  -3.900  -3.022  0.00  0.00    -0.040 A 
ATOM      7  C   UNL     1      -0.883  -4.916  -3.589  0.00  0.00    +0.007 A 
ATOM      8  C   UNL     1      -0.670  -5.311  -4.892  0.00  0.00    +0.046 A 
ATOM      9  C   UNL     1       0.312  -4.688  -5.648  0.00  0.00    +0.122 A 
ATOM     10  C   UNL     1       1.073  -3.678  -5.083  0.00  0.00    +0.051 A 
ATOM     11  C   UNL     1       0.859  -3.288  -3.769  0.00  0.00    -0.016 A 
ATOM     12  C   UNL     1       1.735  -2.200  -3.210  0.00  0.00    +0.137 C 
ENDROOT
BRANCH  12  13
ATOM     13  C   UNL     1       3.131  -2.735  -3.021  0.00  0.00    -0.020 A 
ATOM     14  C   UNL     1       3.340  -3.872  -2.263  0.00  0.00    +0.006 A 
ATOM     15  C   UNL     1       4.620  -4.363  -2.090  0.00  0.00    +0.003 A 
ATOM     16  C   UNL     1       5.694  -3.717  -2.674  0.00  0.00    +0.038 A 
ATOM     17  C   UNL     1       5.486  -2.578  -3.433  0.00  0.00    +0.124 A 
ATOM     18  C   UNL     1       4.202  -2.091  -3.611  0.00  0.00    +0.044 A 
ATOM     19  F   UNL     1       6.535  -1.946  -4.004  0.00  0.00    -0.205 F 
ENDBRANCH  12  13
BRANCH   1  21
ATOM     20  C   UNL     1       0.390   1.524  -0.287  0.00  0.00    +0.020 C 
ATOM     21  C   UNL     1       0.479  -0.004  -0.323  0.00  0.00    +0.039 C 
ATOM     22  C   UNL     1       1.319  -0.493   0.859  0.00  0.00    +0.020 C 
ATOM     23  C   UNL     1      -0.927  -0.599  -0.231  0.00  0.00    +0.020 C 
ENDBRANCH   1  21
BRANCH   9  24
ATOM     24  O   UNL     1       0.527  -5.067  -6.935  0.00  0.00    -0.483 OA
BRANCH  24  25
ATOM     25  C   UNL     1      -0.296  -6.116  -7.449  0.00  0.00    +0.324 C 
BRANCH  25  26
ATOM     26  C   UNL     1       0.084  -6.399  -8.880  0.00  0.00    +0.234 A 
ATOM     27  N   UNL     1       0.978  -7.260  -9.265  0.00  0.00    -0.206 NA
ATOM     28  C   UNL     1       1.043  -7.235 -10.624  0.00  0.00    +0.164 A 
ATOM     29  C   UNL     1       0.139  -6.311 -11.051  0.00  0.00    +0.230 A 
ATOM     30  O   UNL     1      -0.451  -5.805  -9.956  0.00  0.00    -0.444 OA
BRANCH  28  31
ATOM     31  C   UNL     1       1.926  -8.055 -11.473  0.00  0.00    +0.268 C 
ATOM     32  O   UNL     1       1.966  -7.861 -12.673  0.00  0.00    -0.268 OA
ATOM     33  N   UNL     1       2.689  -9.018 -10.920  0.00  0.00    -0.300 N 
ATOM     34  C   UNL     1       2.550  -9.370  -9.498  0.00  0.00    +0.089 C 
ATOM     35  C   UNL     1       2.393 -10.890  -9.387  0.00  0.00    -0.060 C 
ATOM     36  N   UNL     1       3.515 -11.548 -10.068  0.00  0.00    +0.380 N 
ATOM     37  C   UNL     1       3.473 -11.251 -11.505  0.00  0.00    -0.060 C 
ATOM     38  C   UNL     1       3.679  -9.752 -11.722  0.00  0.00    +0.089 C 
ATOM     39  C   UNL     1       3.424 -13.001  -9.867  0.00  0.00    -0.096 C 
ATOM     40  H   UNL     1       4.385 -11.212  -9.682  0.00  0.00    -0.082 HD
ENDBRANCH  28  31
ENDBRANCH  25  26
ENDBRANCH  24  25
ENDBRANCH   9  24
TORSDOF 6
