REMARK  Name = ZINC48867344
REMARK  4 active torsions:
REMARK  status: ('A' for Active; 'I' for Inactive)
REMARK    1  A    between atoms: C_5  and  C_7
REMARK    2  A    between atoms: C_7  and  N_8
REMARK    3  A    between atoms: C_9  and  C_13
REMARK    4  A    between atoms: C_18  and  N_19
REMARK                            x       y       z     vdW  Elec       q    Type
REMARK                         _______ _______ _______ _____ _____    ______ ____
ROOT
ATOM      1  N   UNL     1       1.374  -2.587   1.380  0.00  0.00    -0.221 N 
ATOM      2  C   UNL     1       2.525  -2.698   2.090  0.00  0.00    +0.184 A 
ATOM      3  N   UNL     1       2.189  -3.031   3.319  0.00  0.00    -0.108 NA
ATOM      4  N   UNL     1       0.914  -3.135   3.424  0.00  0.00    -0.023 NA
ATOM      5  N   UNL     1       0.347  -2.877   2.295  0.00  0.00    -0.043 NA
ENDROOT
BRANCH   2   6
ATOM      6  C   UNL     1       3.896  -2.485   1.580  0.00  0.00    +0.043 A 
ATOM      7  C   UNL     1       4.096  -2.004   0.286  0.00  0.00    +0.033 A 
ATOM      8  C   UNL     1       5.378  -1.807  -0.185  0.00  0.00    +0.042 A 
ATOM      9  C   UNL     1       6.470  -2.085   0.623  0.00  0.00    +0.022 A 
ATOM     10  C   UNL     1       6.285  -2.562   1.905  0.00  0.00    +0.025 A 
ATOM     11  C   UNL     1       5.002  -2.760   2.396  0.00  0.00    +0.035 A 
ATOM     12 CL   UNL     1       5.625  -1.208  -1.796  0.00  0.00    -0.084 Cl
BRANCH  11  13
ATOM     13  N   UNL     1       4.813  -3.235   3.692  0.00  0.00    -0.357 N 
ATOM     14  H   UNL     1       3.916  -3.376   4.032  0.00  0.00    +0.142 HD
ATOM     15  H   UNL     1       5.580  -3.425   4.255  0.00  0.00    +0.142 HD
ENDBRANCH  11  13
ENDBRANCH   2   6
BRANCH   1  16
ATOM     16  C   UNL     1       1.232  -2.236  -0.035  0.00  0.00    +0.183 C 
BRANCH  16  21
ATOM     17  C   UNL     1      -2.022  -3.542  -1.435  0.00  0.00    +0.000 A 
ATOM     18  C   UNL     1      -2.882  -2.494  -1.161  0.00  0.00    +0.001 A 
ATOM     19  C   UNL     1      -2.411  -1.363  -0.521  0.00  0.00    +0.015 A 
ATOM     20  C   UNL     1      -1.079  -1.279  -0.157  0.00  0.00    +0.023 A 
ATOM     21  C   UNL     1      -0.220  -2.327  -0.432  0.00  0.00    -0.012 A 
ATOM     22  C   UNL     1      -0.692  -3.458  -1.071  0.00  0.00    +0.006 A 
ATOM     23 BR   UNL     1      -0.433   0.269   0.718  0.00  0.00    -0.050 Br
ENDBRANCH  16  21
ENDBRANCH   1  16
TORSDOF 4
