REMARK  Name = ZINC00666759
REMARK  13 active torsions:
REMARK  status: ('A' for Active; 'I' for Inactive)
REMARK    1  A    between atoms: C_1  and  C_2
REMARK    2  A    between atoms: C_3  and  C_26
REMARK    3  A    between atoms: C_4  and  C_16
REMARK    4  A    between atoms: C_10  and  C_14
REMARK    5  A    between atoms: C_10  and  C_15
REMARK    6  A    between atoms: C_18  and  O_24
REMARK    7  A    between atoms: C_19  and  O_23
REMARK    8  A    between atoms: O_24  and  C_25
REMARK    9  A    between atoms: C_26  and  O_28
REMARK   10  A    between atoms: O_28  and  C_29
REMARK   11  A    between atoms: C_29  and  C_30
REMARK   12  A    between atoms: C_33  and  O_36
REMARK   13  A    between atoms: O_36  and  C_37
REMARK                            x       y       z     vdW  Elec       q    Type
REMARK                         _______ _______ _______ _____ _____    ______ ____
ROOT
ATOM      1  C   UNL     1      -2.457   0.907   0.457  0.00  0.00    +0.061 C 
ATOM      2  C   UNL     1      -1.208   1.627   0.017  0.00  0.00    +0.016 C 
ATOM      3  C   UNL     1      -1.279   2.914  -0.359  0.00  0.00    +0.065 C 
ATOM      4  C   UNL     1      -0.060   3.659  -0.817  0.00  0.00    +0.092 C 
ATOM      5  C   UNL     1       1.200   2.954  -0.385  0.00  0.00    +0.024 C 
ATOM      6  C   UNL     1       1.169   1.660  -0.000  0.00  0.00    +0.016 C 
ATOM      7  N   UNL     1      -0.011   0.966   0.007  0.00  0.00    -0.321 N 
ATOM      8  C   UNL     1       2.426   0.948   0.433  0.00  0.00    +0.058 C 
ATOM      9  C   UNL     1       3.630   1.533  -0.308  0.00  0.00    -0.023 C 
ATOM     10  C   UNL     1       3.706   3.033  -0.004  0.00  0.00    +0.086 C 
ATOM     11  C   UNL     1       2.405   3.678  -0.397  0.00  0.00    +0.162 C 
ATOM     12  O   UNL     1       2.396   4.846  -0.731  0.00  0.00    -0.292 OA
ATOM     13  C   UNL     1       3.459   1.321  -1.813  0.00  0.00    +0.011 C 
ATOM     14  C   UNL     1       4.913   0.847   0.165  0.00  0.00    +0.011 C 
ATOM     15  H   UNL     1       0.010  -0.134   0.006  0.00  0.00    +0.152 HD
ENDROOT
BRANCH   4  16
ATOM     16  C   UNL     1      -0.080   3.761  -2.321  0.00  0.00    -0.030 A 
ATOM     17  C   UNL     1      -0.124   5.003  -2.927  0.00  0.00    +0.054 A 
ATOM     18  C   UNL     1      -0.142   5.098  -4.309  0.00  0.00    +0.163 A 
ATOM     19  C   UNL     1      -0.115   3.943  -5.085  0.00  0.00    +0.177 A 
ATOM     20  C   UNL     1      -0.070   2.701  -4.470  0.00  0.00    +0.086 A 
ATOM     21  C   UNL     1      -0.047   2.613  -3.090  0.00  0.00    +0.028 A 
ATOM     22 CL   UNL     1      -0.036   1.257  -5.433  0.00  0.00    -0.080 Cl
BRANCH  19  23
ATOM     23  O   UNL     1      -0.132   4.032  -6.442  0.00  0.00    -0.502 OA
ATOM     24  H   UNL     1      -0.111   3.118  -7.053  0.00  0.00    +0.292 HD
ENDBRANCH  19  23
BRANCH  18  25
ATOM     25  O   UNL     1      -0.186   6.319  -4.907  0.00  0.00    -0.491 OA
ATOM     26  C   UNL     1      -0.213   7.461  -4.049  0.00  0.00    +0.277 C 
ENDBRANCH  18  25
ENDBRANCH   4  16
BRANCH   3  27
ATOM     27  C   UNL     1      -2.528   3.578  -0.328  0.00  0.00    +0.338 C 
ATOM     28  O   UNL     1      -3.524   2.984   0.041  0.00  0.00    -0.245 OA
BRANCH  27  29
ATOM     29  O   UNL     1      -2.615   4.870  -0.708  0.00  0.00    -0.457 OA
BRANCH  29  30
ATOM     30  C   UNL     1      -3.907   5.477  -0.652  0.00  0.00    +0.268 C 
BRANCH  30  31
ATOM     31  C   UNL     1      -3.809   6.910  -1.109  0.00  0.00    -0.010 A 
ATOM     32  C   UNL     1      -3.558   7.912  -0.191  0.00  0.00    +0.010 A 
ATOM     33  C   UNL     1      -3.462   9.225  -0.609  0.00  0.00    +0.046 A 
ATOM     34  C   UNL     1      -3.628   9.539  -1.950  0.00  0.00    +0.120 A 
ATOM     35  C   UNL     1      -3.886   8.532  -2.869  0.00  0.00    +0.046 A 
ATOM     36  C   UNL     1      -3.976   7.220  -2.446  0.00  0.00    +0.010 A 
BRANCH  34  37
ATOM     37  O   UNL     1      -3.540  10.831  -2.363  0.00  0.00    -0.495 OA
ATOM     38  C   UNL     1      -3.273  11.815  -1.362  0.00  0.00    +0.277 C 
ENDBRANCH  34  37
ENDBRANCH  30  31
ENDBRANCH  29  30
ENDBRANCH  27  29
ENDBRANCH   3  27
TORSDOF 8
