REMARK  Name = ZINC59021232
REMARK  9 active torsions:
REMARK  status: ('A' for Active; 'I' for Inactive)
REMARK    1  A    between atoms: C_1  and  C_2
REMARK    2  A    between atoms: C_5  and  C_8
REMARK    3  A    between atoms: C_8  and  C_29
REMARK    4  A    between atoms: N_9  and  N_10
REMARK    5  A    between atoms: C_13  and  S_16
REMARK    6  A    between atoms: S_16  and  C_17
REMARK    7  A    between atoms: C_17  and  C_18
REMARK    8  A    between atoms: N_20  and  C_21
REMARK    9  A    between atoms: C_24  and  C_28
REMARK                            x       y       z     vdW  Elec       q    Type
REMARK                         _______ _______ _______ _____ _____    ______ ____
ROOT
ATOM      1  N   UNL     1      -0.253  -4.170  -2.334  0.00  0.00    -0.205 N 
ATOM      2  C   UNL     1      -0.427  -4.848  -3.526  0.00  0.00    +0.232 A 
ATOM      3  N   UNL     1      -0.595  -6.147  -3.660  0.00  0.00    -0.186 NA
ATOM      4  C   UNL     1      -0.732  -6.452  -4.955  0.00  0.00    +0.211 A 
ATOM      5  N   UNL     1      -0.652  -5.351  -5.662  0.00  0.00    -0.144 NA
ATOM      6  N   UNL     1      -0.460  -4.295  -4.757  0.00  0.00    -0.245 N 
ATOM      7  H   UNL     1      -0.140  -3.206  -2.336  0.00  0.00    +0.177 HD
ATOM      8  H   UNL     1      -0.368  -3.354  -4.973  0.00  0.00    +0.192 HD
ENDROOT
BRANCH   1  10
ATOM      9  C   UNL     1      -0.169  -4.229   0.002  0.00  0.00    +0.063 C 
ATOM     10  N   UNL     1      -0.238  -4.874  -1.123  0.00  0.00    -0.184 NA
ATOM     11  C   UNL     1      -0.058  -4.987   1.300  0.00  0.00    +0.068 C 
BRANCH   9  16
ATOM     12  C   UNL     1      -0.289   1.521   0.034  0.00  0.00    +0.044 C 
ATOM     13  C   UNL     1      -0.258   0.014   0.025  0.00  0.00    -0.050 A 
ATOM     14  C   UNL     1      -1.260  -0.699   0.660  0.00  0.00    +0.004 A 
ATOM     15  C   UNL     1      -1.238  -2.078   0.656  0.00  0.00    +0.010 A 
ATOM     16  C   UNL     1      -0.200  -2.755   0.010  0.00  0.00    -0.003 A 
ATOM     17  C   UNL     1       0.808  -2.028  -0.628  0.00  0.00    +0.010 A 
ATOM     18  C   UNL     1       0.770  -0.650  -0.621  0.00  0.00    +0.004 A 
ENDBRANCH   9  16
ENDBRANCH   1  10
BRANCH   4  19
ATOM     19  S   UNL     1      -0.979  -8.071  -5.604  0.00  0.00    -0.075 S 
BRANCH  19  20
ATOM     20  C   UNL     1      -1.085  -7.813  -7.397  0.00  0.00    +0.173 C 
BRANCH  20  21
ATOM     21  C   UNL     1      -1.299  -9.137  -8.083  0.00  0.00    +0.228 C 
ATOM     22  O   UNL     1      -1.372 -10.155  -7.428  0.00  0.00    -0.275 OA
ATOM     23  N   UNL     1      -1.409  -9.191  -9.426  0.00  0.00    -0.284 N 
ATOM     24  H   UNL     1      -1.399  -8.372  -9.946  0.00  0.00    +0.155 HD
BRANCH  23  25
ATOM     25  C   UNL     1      -1.537 -10.427 -10.069  0.00  0.00    +0.047 A 
ATOM     26  C   UNL     1      -2.229 -11.463  -9.454  0.00  0.00    +0.024 A 
ATOM     27  C   UNL     1      -2.355 -12.681 -10.092  0.00  0.00    +0.005 A 
ATOM     28  C   UNL     1      -1.792 -12.872 -11.340  0.00  0.00    -0.049 A 
ATOM     29  C   UNL     1      -1.101 -11.844 -11.955  0.00  0.00    +0.020 A 
ATOM     30  C   UNL     1      -0.977 -10.620 -11.325  0.00  0.00    +0.039 A 
ATOM     31 BR   UNL     1      -0.040  -9.212 -12.170  0.00  0.00    -0.048 Br
ATOM     32  C   UNL     1      -1.930 -14.204 -12.032  0.00  0.00    +0.044 C 
ENDBRANCH  23  25
ENDBRANCH  20  21
ENDBRANCH  19  20
ENDBRANCH   4  19
TORSDOF 6
