REMARK  Name = ZINC35705948
REMARK  15 active torsions:
REMARK  status: ('A' for Active; 'I' for Inactive)
REMARK    1  A    between atoms: C_1  and  C_2
REMARK    2  A    between atoms: C_2  and  O_3
REMARK    3  A    between atoms: O_3  and  C_4
REMARK    4  A    between atoms: C_4  and  C_6
REMARK    5  A    between atoms: C_13  and  C_15
REMARK    6  A    between atoms: C_18  and  C_20
REMARK    7  A    between atoms: C_20  and  N_21
REMARK    8  A    between atoms: N_21  and  C_22
REMARK    9  A    between atoms: N_21  and  C_33
REMARK   10  A    between atoms: C_22  and  C_23
REMARK   11  A    between atoms: C_26  and  C_29
REMARK   12  A    between atoms: C_29  and  C_30
REMARK   13  A    between atoms: C_29  and  C_31
REMARK   14  A    between atoms: C_29  and  C_32
REMARK   15  A    between atoms: C_33  and  C_34
REMARK                            x       y       z     vdW  Elec       q    Type
REMARK                         _______ _______ _______ _____ _____    ______ ____
ROOT
ATOM      1  N   UNL     1       8.602  -5.994   7.218  0.00  0.00    +0.391 N 
ATOM      2  H   UNL     1       9.291  -5.923   6.485  0.00  0.00    -0.080 HD
ENDROOT
BRANCH   1   3
ATOM      3  C   UNL     1       7.273  -5.685   6.674  0.00  0.00    +0.020 C 
BRANCH   3   7
ATOM      4  C   UNL     1       7.518  -2.779   4.524  0.00  0.00    +0.164 A 
ATOM      5  C   UNL     1       7.172  -2.186   5.700  0.00  0.00    +0.230 A 
ATOM      6  O   UNL     1       7.044  -3.165   6.609  0.00  0.00    -0.449 OA
ATOM      7  C   UNL     1       7.305  -4.334   6.007  0.00  0.00    +0.179 A 
ATOM      8  N   UNL     1       7.585  -4.118   4.757  0.00  0.00    -0.210 NA
BRANCH   4  15
ATOM      9  C   UNL     1       7.096  -2.774  -0.160  0.00  0.00    +0.115 C 
ATOM     10  C   UNL     1       7.286  -4.292  -0.200  0.00  0.00    +0.018 C 
ATOM     11  C   UNL     1       7.028  -4.877   1.191  0.00  0.00    +0.020 C 
ATOM     12  C   UNL     1       8.038  -4.290   2.182  0.00  0.00    +0.108 C 
ATOM     13  N   UNL     1       7.963  -2.824   2.121  0.00  0.00    -0.295 N 
ATOM     14  C   UNL     1       8.106  -2.163   0.817  0.00  0.00    +0.122 C 
ATOM     15  C   UNL     1       7.766  -2.099   3.240  0.00  0.00    +0.268 C 
ATOM     16  O   UNL     1       7.793  -0.885   3.191  0.00  0.00    -0.268 OA
BRANCH   9  17
ATOM     17  C   UNL     1       7.319  -2.203  -1.536  0.00  0.00    +0.312 C 
ATOM     18  O   UNL     1       7.598  -2.935  -2.456  0.00  0.00    -0.250 OA
BRANCH  17  19
ATOM     19  O   UNL     1       7.206  -0.881  -1.741  0.00  0.00    -0.465 OA
BRANCH  19  21
ATOM     20  C   UNL     1       7.258   1.111  -3.108  0.00  0.00    +0.048 C 
ATOM     21  C   UNL     1       7.430  -0.409  -3.071  0.00  0.00    +0.229 C 
ENDBRANCH  19  21
ENDBRANCH  17  19
ENDBRANCH   9  17
ENDBRANCH   4  15
ENDBRANCH   3   7
ENDBRANCH   1   3
BRANCH   1  22
ATOM     22  C   UNL     1       8.604  -7.358   7.762  0.00  0.00    -0.042 C 
BRANCH  22  23
ATOM     23  C   UNL     1       8.401  -8.345   6.641  0.00  0.00    -0.064 A 
ATOM     24  C   UNL     1       7.135  -8.826   6.364  0.00  0.00    +0.002 A 
ATOM     25  C   UNL     1       6.950  -9.732   5.336  0.00  0.00    +0.004 A 
ATOM     26  C   UNL     1       8.030 -10.156   4.585  0.00  0.00    -0.042 A 
ATOM     27  C   UNL     1       9.296  -9.675   4.862  0.00  0.00    +0.004 A 
ATOM     28  C   UNL     1       9.481  -8.766   5.888  0.00  0.00    +0.002 A 
BRANCH  26  29
ATOM     29  C   UNL     1       7.828 -11.144   3.466  0.00  0.00    -0.013 C 
ATOM     30  C   UNL     1       6.938 -10.519   2.389  0.00  0.00    +0.015 C 
ATOM     31  C   UNL     1       9.183 -11.511   2.858  0.00  0.00    +0.015 C 
ATOM     32  C   UNL     1       7.156 -12.405   4.013  0.00  0.00    +0.015 C 
ENDBRANCH  26  29
ENDBRANCH  22  23
ENDBRANCH   1  22
BRANCH   1  33
ATOM     33  C   UNL     1       8.926  -5.040   8.288  0.00  0.00    -0.042 C 
BRANCH  33  34
ATOM     34  C   UNL     1      10.345  -5.261   8.745  0.00  0.00    -0.064 A 
ATOM     35  C   UNL     1      10.600  -6.058   9.846  0.00  0.00    +0.004 A 
ATOM     36  C   UNL     1      11.901  -6.261  10.266  0.00  0.00    +0.038 A 
ATOM     37  C   UNL     1      12.949  -5.668   9.583  0.00  0.00    +0.123 A 
ATOM     38  C   UNL     1      12.693  -4.871   8.480  0.00  0.00    +0.038 A 
ATOM     39  C   UNL     1      11.391  -4.673   8.059  0.00  0.00    +0.004 A 
ATOM     40  F   UNL     1      14.221  -5.866   9.993  0.00  0.00    -0.205 F 
ENDBRANCH  33  34
ENDBRANCH   1  33
TORSDOF 11
