REMARK  Name = ZINC06244830
REMARK  8 active torsions:
REMARK  status: ('A' for Active; 'I' for Inactive)
REMARK    1  A    between atoms: C_1  and  C_2
REMARK    2  A    between atoms: C_5  and  C_40
REMARK    3  A    between atoms: C_9  and  C_14
REMARK    4  A    between atoms: C_14  and  C_16
REMARK    5  A    between atoms: C_14  and  N_70
REMARK    6  A    between atoms: N_20  and  C_21
REMARK    7  A    between atoms: C_21  and  C_22
REMARK    8  A    between atoms: N_30  and  C_33
REMARK                            x       y       z     vdW  Elec       q    Type
REMARK                         _______ _______ _______ _____ _____    ______ ____
ROOT
ATOM      1  C   UNL     1       2.774   3.611  -0.304  0.00  0.00    +0.039 C 
ENDROOT
BRANCH   1  10
ATOM      2  C   UNL     1      -0.059   0.448   2.711  0.00  0.00    +0.044 C 
ATOM      3  C   UNL     1      -0.347   0.079   1.279  0.00  0.00    -0.041 A 
ATOM      4  C   UNL     1      -1.222  -0.931   0.994  0.00  0.00    +0.004 A 
ATOM      5  C   UNL     1      -1.495  -1.279  -0.322  0.00  0.00    +0.005 A 
ATOM      6  C   UNL     1      -0.889  -0.614  -1.366  0.00  0.00    -0.026 A 
ATOM      7  C   UNL     1       0.001   0.421  -1.100  0.00  0.00    +0.052 A 
ATOM      8  C   UNL     1       0.279   0.768   0.236  0.00  0.00    +0.002 A 
ATOM      9  C   UNL     1       1.222   1.855   0.505  0.00  0.00    +0.018 A 
ATOM     10  C   UNL     1       1.799   2.488  -0.547  0.00  0.00    +0.011 A 
ATOM     11  C   UNL     1       1.490   2.098  -1.868  0.00  0.00    +0.251 A 
ATOM     12  O   UNL     1       2.020   2.680  -2.798  0.00  0.00    -0.268 OA
ATOM     13  N   UNL     1       0.626   1.100  -2.125  0.00  0.00    -0.322 N 
ATOM     14  H   UNL     1       0.435   0.858  -3.045  0.00  0.00    +0.169 HD
ATOM     15  C   UNL     1      -1.195  -1.002  -2.789  0.00  0.00    +0.046 C 
ENDBRANCH   1  10
BRANCH   1  21
ATOM     16  C   UNL     1       4.609   2.035  -0.413  0.00  0.00    -0.058 C 
ATOM     17  C   UNL     1       5.904   1.697  -1.156  0.00  0.00    +0.086 C 
ATOM     18  N   UNL     1       6.862   2.799  -0.993  0.00  0.00    -0.331 N 
ATOM     19  C   UNL     1       6.311   4.055  -1.521  0.00  0.00    +0.086 C 
ATOM     20  C   UNL     1       5.016   4.393  -0.778  0.00  0.00    -0.058 C 
ATOM     21  N   UNL     1       4.054   3.288  -0.969  0.00  0.00    +0.391 N 
ATOM     22  H   UNL     1       3.886   3.161  -1.974  0.00  0.00    -0.080 HD
BRANCH  18  23
ATOM     23  C   UNL     1       8.085   2.495  -1.599  0.00  0.00    +0.065 A 
ATOM     24  C   UNL     1       8.153   2.311  -2.973  0.00  0.00    +0.026 A 
ATOM     25  C   UNL     1       9.363   2.010  -3.569  0.00  0.00    +0.002 A 
ATOM     26  C   UNL     1      10.505   1.891  -2.799  0.00  0.00    +0.003 A 
ATOM     27  C   UNL     1      10.442   2.073  -1.430  0.00  0.00    +0.040 A 
ATOM     28  C   UNL     1       9.236   2.380  -0.827  0.00  0.00    +0.144 A 
ATOM     29  F   UNL     1       9.175   2.564   0.510  0.00  0.00    -0.204 F 
ENDBRANCH  18  23
ENDBRANCH   1  21
BRANCH   1  30
ATOM     30  C   UNL     1       2.978   3.788   1.178  0.00  0.00    +0.143 A 
ATOM     31  N   UNL     1       3.594   2.961   1.987  0.00  0.00    -0.115 NA
ATOM     32  N   UNL     1       3.560   3.465   3.173  0.00  0.00    -0.023 NA
ATOM     33  N   UNL     1       2.939   4.592   3.140  0.00  0.00    -0.044 NA
ATOM     34  N   UNL     1       2.569   4.829   1.927  0.00  0.00    -0.228 N 
BRANCH  34  35
ATOM     35  C   UNL     1       1.839   6.007   1.455  0.00  0.00    +0.178 C 
BRANCH  35  36
ATOM     36  C   UNL     1       0.338   5.793   1.661  0.00  0.00    +0.140 C 
ATOM     37  C   UNL     1      -0.455   7.026   1.158  0.00  0.00    +0.035 C 
ATOM     38  C   UNL     1      -1.835   6.384   0.851  0.00  0.00    +0.031 C 
ATOM     39  C   UNL     1      -1.439   4.975   0.358  0.00  0.00    +0.160 C 
ATOM     40  O   UNL     1      -0.125   4.697   0.857  0.00  0.00    -0.375 OA
ENDBRANCH  35  36
ENDBRANCH  34  35
ENDBRANCH   1  30
TORSDOF 6
