REMARK  Name = ZINC09691341
REMARK  4 active torsions:
REMARK  status: ('A' for Active; 'I' for Inactive)
REMARK    1  A    between atoms: C_8  and  C_10
REMARK    2  A    between atoms: C_16  and  C_18
REMARK    3  A    between atoms: C_21  and  S_24
REMARK    4  A    between atoms: S_24  and  N_27
REMARK                            x       y       z     vdW  Elec       q    Type
REMARK                         _______ _______ _______ _____ _____    ______ ____
ROOT
ATOM      1  C   UNL     1       2.379   2.594   0.303  0.00  0.00    +0.078 C 
ATOM      2  C   UNL     1       3.194   2.902  -0.955  0.00  0.00    +0.032 C 
ATOM      3  C   UNL     1       3.229   4.417  -1.178  0.00  0.00    +0.109 C 
ATOM      4  N   UNL     1       3.734   5.063   0.041  0.00  0.00    -0.297 N 
ATOM      5  C   UNL     1       3.079   4.765   1.322  0.00  0.00    +0.109 C 
ATOM      6  C   UNL     1       3.046   3.246   1.517  0.00  0.00    +0.032 C 
ATOM      7  C   UNL     1       4.779   5.913  -0.014  0.00  0.00    +0.247 C 
ATOM      8  O   UNL     1       5.144   6.493   0.989  0.00  0.00    -0.270 OA
ENDROOT
BRANCH   1  16
ATOM      9  C   UNL     1       2.819  -3.325   1.153  0.00  0.00    +0.002 A 
ATOM     10  C   UNL     1       1.436  -3.284   1.065  0.00  0.00    +0.004 A 
ATOM     11  C   UNL     1       0.783  -2.086   0.858  0.00  0.00    +0.048 A 
ATOM     12  C   UNL     1       1.513  -0.913   0.739  0.00  0.00    +0.155 A 
ATOM     13  C   UNL     1       2.913  -0.951   0.828  0.00  0.00    +0.110 A 
ATOM     14  C   UNL     1       3.560  -2.170   1.037  0.00  0.00    +0.031 A 
ATOM     15  N   UNL     1       3.345   0.331   0.676  0.00  0.00    -0.213 NA
ATOM     16  C   UNL     1       2.314   1.103   0.507  0.00  0.00    +0.200 A 
ATOM     17  O   UNL     1       1.182   0.381   0.539  0.00  0.00    -0.439 OA
ENDBRANCH   1  16
BRANCH   7  18
ATOM     18  C   UNL     1       5.481   6.138  -1.296  0.00  0.00    +0.037 A 
ATOM     19  C   UNL     1       6.871   6.035  -1.361  0.00  0.00    +0.015 A 
ATOM     20  C   UNL     1       7.519   6.242  -2.561  0.00  0.00    +0.029 A 
ATOM     21  C   UNL     1       6.795   6.562  -3.696  0.00  0.00    +0.105 A 
ATOM     22  C   UNL     1       5.417   6.671  -3.637  0.00  0.00    +0.029 A 
ATOM     23  C   UNL     1       4.756   6.461  -2.444  0.00  0.00    +0.015 A 
BRANCH  21  24
ATOM     24  S   UNL     1       7.632   6.830  -5.223  0.00  0.00    +0.056 S 
ATOM     25  O   UNL     1       8.868   6.135  -5.137  0.00  0.00    -0.153 OA
ATOM     26  O   UNL     1       6.686   6.579  -6.254  0.00  0.00    -0.153 OA
BRANCH  24  27
ATOM     27  N   UNL     1       8.001   8.443  -5.302  0.00  0.00    -0.204 NA
ATOM     28  H   UNL     1       8.789   8.737  -5.786  0.00  0.00    +0.144 HD
ATOM     29  H   UNL     1       7.430   9.093  -4.864  0.00  0.00    +0.144 HD
ENDBRANCH  24  27
ENDBRANCH  21  24
ENDBRANCH   7  18
TORSDOF 4
