REMARK  Name = ZINC39711242
REMARK  14 active torsions:
REMARK  status: ('A' for Active; 'I' for Inactive)
REMARK    1  A    between atoms: C_1  and  C_2
REMARK    2  A    between atoms: C_2  and  C_3
REMARK    3  A    between atoms: C_3  and  C_4
REMARK    4  A    between atoms: C_3  and  C_5
REMARK    5  A    between atoms: C_3  and  N_6
REMARK    6  A    between atoms: C_7  and  C_12
REMARK    7  A    between atoms: C_12  and  C_14
REMARK    8  A    between atoms: C_12  and  N_28
REMARK    9  A    between atoms: C_19  and  C_27
REMARK   10  A    between atoms: C_20  and  C_26
REMARK   11  A    between atoms: N_28  and  C_29
REMARK   12  A    between atoms: N_28  and  C_36
REMARK   13  A    between atoms: C_29  and  C_30
REMARK   14  A    between atoms: C_36  and  C_37
REMARK                            x       y       z     vdW  Elec       q    Type
REMARK                         _______ _______ _______ _____ _____    ______ ____
ROOT
ATOM      1  C   UNL     1       0.929  -2.027  -2.568  0.00  0.00    -0.008 C 
ENDROOT
BRANCH   1   2
ATOM      2  C   UNL     1      -0.411  -1.448  -3.028  0.00  0.00    +0.088 C 
ATOM      3  C   UNL     1      -1.404  -2.591  -3.119  0.00  0.00    -0.006 C 
ATOM      4  C   UNL     1      -1.999  -2.806  -4.326  0.00  0.00    -0.007 A 
ATOM      5  C   UNL     1      -2.969  -3.888  -4.503  0.00  0.00    +0.013 A 
ATOM      6  C   UNL     1      -3.537  -4.065  -5.724  0.00  0.00    -0.047 A 
ATOM      7  C   UNL     1      -3.213  -3.241  -6.802  0.00  0.00    -0.046 A 
ATOM      8  C   UNL     1      -2.321  -2.222  -6.704  0.00  0.00    +0.027 A 
ATOM      9  C   UNL     1      -1.676  -1.952  -5.482  0.00  0.00    +0.041 A 
ATOM     10  N   UNL     1      -0.803  -0.948  -5.397  0.00  0.00    -0.285 N 
ATOM     11  C   UNL     1      -0.162  -0.643  -4.283  0.00  0.00    +0.223 C 
ATOM     12  O   UNL     1       0.625   0.285  -4.266  0.00  0.00    -0.275 OA
ATOM     13  C   UNL     1      -3.880  -3.493  -8.130  0.00  0.00    +0.044 C 
ATOM     14  C   UNL     1      -4.537  -5.176  -5.918  0.00  0.00    +0.044 C 
ATOM     15  H   UNL     1      -0.630  -0.418  -6.191  0.00  0.00    +0.155 HD
ENDBRANCH   1   2
BRANCH   1  17
ATOM     16  N   UNL     1       0.935  -0.561  -0.579  0.00  0.00    -0.182 NA
ATOM     17  C   UNL     1       1.698  -0.966  -1.778  0.00  0.00    +0.205 C 
ATOM     18  N   UNL     1       2.949  -1.525  -1.247  0.00  0.00    -0.152 NA
ATOM     19  N   UNL     1       2.923  -1.462  -0.016  0.00  0.00    -0.070 NA
ATOM     20  N   UNL     1       1.747  -0.894   0.473  0.00  0.00    -0.179 N 
ATOM     21  H   UNL     1       1.537  -0.757   1.410  0.00  0.00    +0.191 HD
BRANCH  16  22
ATOM     22  C   UNL     1       0.658   0.882  -0.594  0.00  0.00    +0.037 C 
ATOM     23  C   UNL     1      -0.414   1.185  -1.643  0.00  0.00    +0.029 C 
ATOM     24  C   UNL     1       1.939   1.643  -0.939  0.00  0.00    +0.029 C 
BRANCH  22  26
ATOM     25  C   UNL     1      -0.129   2.822   0.770  0.00  0.00    +0.006 C 
ATOM     26  C   UNL     1       0.160   1.319   0.785  0.00  0.00    +0.020 C 
ENDBRANCH  22  26
ENDBRANCH  16  22
ENDBRANCH   1  17
BRANCH   1  27
ATOM     27  N   UNL     1       1.716  -2.431  -3.740  0.00  0.00    +0.392 N 
ATOM     28  H   UNL     1       1.825  -1.643  -4.360  0.00  0.00    -0.080 HD
BRANCH  27  29
ATOM     29  C   UNL     1       1.022  -3.517  -4.446  0.00  0.00    -0.042 C 
BRANCH  29  30
ATOM     30  C   UNL     1       1.751  -3.830  -5.727  0.00  0.00    -0.064 A 
ATOM     31  C   UNL     1       2.026  -2.821  -6.630  0.00  0.00    +0.002 A 
ATOM     32  C   UNL     1       2.695  -3.108  -7.805  0.00  0.00    +0.000 A 
ATOM     33  C   UNL     1       3.088  -4.406  -8.077  0.00  0.00    +0.000 A 
ATOM     34  C   UNL     1       2.813  -5.415  -7.173  0.00  0.00    +0.000 A 
ATOM     35  C   UNL     1       2.149  -5.126  -5.996  0.00  0.00    +0.002 A 
ENDBRANCH  29  30
ENDBRANCH  27  29
BRANCH  27  36
ATOM     36  C   UNL     1       3.039  -2.898  -3.305  0.00  0.00    -0.002 C 
BRANCH  36  37
ATOM     37  C   UNL     1       2.875  -4.043  -2.338  0.00  0.00    +0.089 A 
ATOM     38  C   UNL     1       3.550  -5.205  -2.374  0.00  0.00    +0.042 A 
ATOM     39  C   UNL     1       3.084  -5.983  -1.289  0.00  0.00    +0.041 A 
ATOM     40  C   UNL     1       2.152  -5.249  -0.656  0.00  0.00    +0.195 A 
ATOM     41  O   UNL     1       2.033  -4.072  -1.292  0.00  0.00    -0.470 OA
ENDBRANCH  36  37
ENDBRANCH  27  36
ENDBRANCH   1  27
TORSDOF 9
