REMARK  Name = ZINC44894984
REMARK  8 active torsions:
REMARK  status: ('A' for Active; 'I' for Inactive)
REMARK    1  A    between atoms: C_1  and  C_2
REMARK    2  A    between atoms: C_4  and  C_32
REMARK    3  A    between atoms: C_7  and  C_14
REMARK    4  A    between atoms: C_18  and  O_30
REMARK    5  A    between atoms: C_19  and  O_28
REMARK    6  A    between atoms: C_25  and  C_27
REMARK    7  A    between atoms: O_28  and  C_29
REMARK    8  A    between atoms: O_30  and  C_31
REMARK                            x       y       z     vdW  Elec       q    Type
REMARK                         _______ _______ _______ _____ _____    ______ ____
ROOT
ATOM      1  C   UNL     1       0.096  -6.383   1.200  0.00  0.00    +0.142 C 
ATOM      2  C   UNL     1       1.442  -6.854   1.690  0.00  0.00    -0.016 A 
ATOM      3  C   UNL     1       2.528  -6.707   0.837  0.00  0.00    +0.055 A 
ATOM      4  C   UNL     1       3.791  -7.109   1.231  0.00  0.00    +0.162 A 
ATOM      5  C   UNL     1       3.972  -7.664   2.495  0.00  0.00    +0.162 A 
ATOM      6  C   UNL     1       2.887  -7.812   3.339  0.00  0.00    +0.053 A 
ATOM      7  C   UNL     1       1.618  -7.412   2.937  0.00  0.00    -0.037 A 
ATOM      8  C   UNL     1       0.481  -7.631   3.901  0.00  0.00    +0.054 C 
ATOM      9  C   UNL     1      -0.709  -6.740   3.551  0.00  0.00    +0.113 C 
ATOM     10  N   UNL     1      -0.954  -6.862   2.105  0.00  0.00    -0.290 N 
ATOM     11  C   UNL     1      -2.100  -7.392   1.632  0.00  0.00    +0.213 C 
ATOM     12  O   UNL     1      -2.278  -7.481   0.436  0.00  0.00    -0.276 OA
ATOM     13  C   UNL     1      -3.159  -7.875   2.590  0.00  0.00    +0.109 C 
ENDROOT
BRANCH   1  20
ATOM     14  C   UNL     1       0.885   1.552   1.376  0.00  0.00    +0.044 C 
ATOM     15  C   UNL     1       0.950   0.047   1.435  0.00  0.00    -0.048 A 
ATOM     16  C   UNL     1       2.086  -0.572   1.940  0.00  0.00    +0.007 A 
ATOM     17  C   UNL     1       2.165  -1.934   2.003  0.00  0.00    -0.041 A 
ATOM     18  C   UNL     1       1.093  -2.712   1.554  0.00  0.00    +0.002 A 
ATOM     19  C   UNL     1       1.145  -4.175   1.608  0.00  0.00    +0.021 A 
ATOM     20  C   UNL     1       0.075  -4.877   1.159  0.00  0.00    +0.042 A 
ATOM     21  C   UNL     1      -1.058  -4.203   0.655  0.00  0.00    +0.254 A 
ATOM     22  O   UNL     1      -2.009  -4.854   0.258  0.00  0.00    -0.268 OA
ATOM     23  N   UNL     1      -1.114  -2.861   0.602  0.00  0.00    -0.322 N 
ATOM     24  H   UNL     1      -1.908  -2.429   0.250  0.00  0.00    +0.169 HD
ATOM     25  C   UNL     1      -0.060  -2.089   1.042  0.00  0.00    +0.050 A 
ATOM     26  C   UNL     1      -0.121  -0.700   0.994  0.00  0.00    +0.029 A 
ATOM     27  C   UNL     1       3.403  -2.595   2.552  0.00  0.00    +0.044 C 
ENDBRANCH   1  20
BRANCH   5  28
ATOM     28  O   UNL     1       5.209  -8.059   2.897  0.00  0.00    -0.491 OA
ATOM     29  C   UNL     1       5.318  -8.619   4.207  0.00  0.00    +0.277 C 
ENDBRANCH   5  28
BRANCH   4  30
ATOM     30  O   UNL     1       4.849  -6.963   0.390  0.00  0.00    -0.491 OA
ATOM     31  C   UNL     1       4.585  -6.386  -0.891  0.00  0.00    +0.277 C 
ENDBRANCH   4  30
TORSDOF 3
