REMARK  Name = ZINC01900102
REMARK  6 active torsions:
REMARK  status: ('A' for Active; 'I' for Inactive)
REMARK    1  A    between atoms: C_1  and  C_2
REMARK    2  A    between atoms: C_2  and  C_4
REMARK    3  A    between atoms: C_2  and  N_10
REMARK    4  A    between atoms: N_21  and  C_24
REMARK    5  A    between atoms: C_24  and  C_25
REMARK    6  A    between atoms: N_27  and  C_28
REMARK                            x       y       z     vdW  Elec       q    Type
REMARK                         _______ _______ _______ _____ _____    ______ ____
ROOT
ATOM      1  N   UNL     1      -1.025   5.884  -0.919  0.00  0.00    -0.248 N 
ATOM      2  C   UNL     1      -0.627   6.588  -1.965  0.00  0.00    +0.260 C 
ATOM      3  O   UNL     1       0.538   6.893  -2.128  0.00  0.00    -0.269 OA
ATOM      4  C   UNL     1      -1.685   6.983  -2.935  0.00  0.00    +0.089 C 
ATOM      5  C   UNL     1      -1.580   7.706  -4.107  0.00  0.00    +0.065 C 
ATOM      6  C   UNL     1      -0.342   8.134  -4.793  0.00  0.00    +0.010 A 
ATOM      7  C   UNL     1       1.011   7.966  -4.510  0.00  0.00    +0.010 A 
ATOM      8  C   UNL     1       1.958   8.495  -5.363  0.00  0.00    +0.001 A 
ATOM      9  C   UNL     1       1.563   9.191  -6.494  0.00  0.00    +0.002 A 
ATOM     10  C   UNL     1       0.225   9.363  -6.783  0.00  0.00    +0.024 A 
ATOM     11  C   UNL     1      -0.745   8.837  -5.937  0.00  0.00    +0.045 A 
ATOM     12  N   UNL     1      -2.134   8.866  -5.993  0.00  0.00    -0.258 N 
ATOM     13  C   UNL     1      -2.680   8.214  -4.952  0.00  0.00    +0.253 C 
ATOM     14  O   UNL     1      -3.870   8.071  -4.741  0.00  0.00    -0.270 OA
ATOM     15  S   UNL     1      -3.130   6.268  -2.162  0.00  0.00    -0.060 S 
ATOM     16  C   UNL     1      -2.320   5.553  -0.740  0.00  0.00    +0.121 C 
ATOM     17  S   UNL     1      -3.019   4.661   0.542  0.00  0.00    -0.027 S 
ENDROOT
BRANCH   1  19
ATOM     18  C   UNL     1      -0.370   6.085   1.429  0.00  0.00    +0.033 C 
ATOM     19  C   UNL     1      -0.035   5.458   0.074  0.00  0.00    +0.110 C 
BRANCH  19  20
ATOM     20  C   UNL     1      -0.060   3.956   0.196  0.00  0.00    -0.027 A 
ATOM     21  C   UNL     1      -0.391   3.179  -0.899  0.00  0.00    +0.005 A 
ATOM     22  C   UNL     1      -0.414   1.802  -0.787  0.00  0.00    +0.000 A 
ATOM     23  C   UNL     1      -0.105   1.201   0.419  0.00  0.00    +0.000 A 
ATOM     24  C   UNL     1       0.221   1.978   1.515  0.00  0.00    +0.000 A 
ATOM     25  C   UNL     1       0.248   3.355   1.402  0.00  0.00    +0.005 A 
ENDBRANCH  19  20
ENDBRANCH   1  19
BRANCH  12  26
ATOM     26  C   UNL     1      -2.905   9.517  -7.056  0.00  0.00    +0.210 C 
BRANCH  26  27
ATOM     27  C   UNL     1      -3.163   8.530  -8.165  0.00  0.00    +0.235 C 
ATOM     28  O   UNL     1      -2.745   7.395  -8.077  0.00  0.00    -0.274 OA
ATOM     29  N   UNL     1      -3.859   8.910  -9.255  0.00  0.00    -0.284 N 
ATOM     30  H   UNL     1      -4.258   9.793  -9.293  0.00  0.00    +0.155 HD
BRANCH  29  31
ATOM     31  C   UNL     1      -4.006   8.029 -10.334  0.00  0.00    +0.034 A 
ATOM     32  C   UNL     1      -4.027   8.518 -11.633  0.00  0.00    +0.026 A 
ATOM     33  C   UNL     1      -4.165   7.647 -12.696  0.00  0.00    +0.040 A 
ATOM     34  C   UNL     1      -4.295   6.287 -12.466  0.00  0.00    +0.124 A 
ATOM     35  C   UNL     1      -4.280   5.798 -11.171  0.00  0.00    +0.040 A 
ATOM     36  C   UNL     1      -4.135   6.665 -10.105  0.00  0.00    +0.026 A 
ATOM     37  F   UNL     1      -4.436   5.438 -13.506  0.00  0.00    -0.205 F 
ENDBRANCH  29  31
ENDBRANCH  26  27
ENDBRANCH  12  26
TORSDOF 5
