REMARK  Name = ZINC57641470
REMARK  11 active torsions:
REMARK  status: ('A' for Active; 'I' for Inactive)
REMARK    1  A    between atoms: C_1  and  C_2
REMARK    2  A    between atoms: C_2  and  C_3
REMARK    3  A    between atoms: C_3  and  C_5
REMARK    4  A    between atoms: C_3  and  N_16
REMARK    5  A    between atoms: N_9  and  C_10
REMARK    6  A    between atoms: N_16  and  C_17
REMARK    7  A    between atoms: N_16  and  C_27
REMARK    8  A    between atoms: C_17  and  C_18
REMARK    9  A    between atoms: C_27  and  C_28
REMARK   10  A    between atoms: C_32  and  C_41
REMARK   11  A    between atoms: C_33  and  C_40
REMARK                            x       y       z     vdW  Elec       q    Type
REMARK                         _______ _______ _______ _____ _____    ______ ____
ROOT
ATOM      1  N   UNL     1      -2.232  -0.404   1.643  0.00  0.00    -0.284 NA
ENDROOT
BRANCH   1   2
ATOM      2  C   UNL     1      -1.812  -1.287   0.547  0.00  0.00    +0.127 C 
BRANCH   2   3
ATOM      3  C   UNL     1      -2.086  -2.720   0.924  0.00  0.00    +0.169 A 
ATOM      4  N   UNL     1      -1.828  -3.289   2.076  0.00  0.00    -0.112 NA
ATOM      5  N   UNL     1      -2.206  -4.519   2.007  0.00  0.00    -0.023 NA
ATOM      6  N   UNL     1      -2.699  -4.749   0.840  0.00  0.00    -0.044 NA
ATOM      7  N   UNL     1      -2.647  -3.663   0.145  0.00  0.00    -0.225 N 
BRANCH   7   8
ATOM      8  C   UNL     1      -3.110  -3.490  -1.234  0.00  0.00    +0.111 C 
ATOM      9  C   UNL     1      -4.607  -3.794  -1.312  0.00  0.00    +0.027 C 
ATOM     10  C   UNL     1      -5.090  -3.613  -2.753  0.00  0.00    +0.002 C 
ATOM     11  C   UNL     1      -4.327  -4.570  -3.671  0.00  0.00    +0.000 C 
ATOM     12  C   UNL     1      -2.829  -4.266  -3.593  0.00  0.00    +0.002 C 
ATOM     13  C   UNL     1      -2.346  -4.447  -2.152  0.00  0.00    +0.027 C 
ENDBRANCH   7   8
ENDBRANCH   2   3
BRANCH   2  15
ATOM     14  C   UNL     1      -0.046   0.337  -0.151  0.00  0.00    +0.006 C 
ATOM     15  C   UNL     1      -0.315  -1.104   0.290  0.00  0.00    +0.023 C 
ENDBRANCH   2  15
ENDBRANCH   1   2
BRANCH   1  16
ATOM     16  C   UNL     1      -1.223  -0.371   2.710  0.00  0.00    +0.120 C 
BRANCH  16  17
ATOM     17  C   UNL     1      -1.838   0.185   3.968  0.00  0.00    -0.030 A 
ATOM     18  C   UNL     1      -1.693   1.525   4.273  0.00  0.00    +0.009 A 
ATOM     19  C   UNL     1      -2.256   2.040   5.426  0.00  0.00    +0.050 A 
ATOM     20  C   UNL     1      -2.968   1.212   6.278  0.00  0.00    +0.166 A 
ATOM     21  C   UNL     1      -3.115  -0.138   5.971  0.00  0.00    +0.167 A 
ATOM     22  C   UNL     1      -2.553  -0.646   4.811  0.00  0.00    +0.054 A 
ATOM     23  O   UNL     1      -3.850  -0.732   6.956  0.00  0.00    -0.453 OA
ATOM     24  C   UNL     1      -3.803   0.177   8.072  0.00  0.00    +0.466 C 
ATOM     25  O   UNL     1      -3.611   1.464   7.456  0.00  0.00    -0.453 OA
ENDBRANCH  16  17
ENDBRANCH   1  16
BRANCH   1  26
ATOM     26  C   UNL     1      -2.519   0.950   1.148  0.00  0.00    +0.126 C 
BRANCH  26  27
ATOM     27  C   UNL     1      -3.864   0.962   0.469  0.00  0.00    +0.031 A 
ATOM     28  C   UNL     1      -4.975   1.285   1.175  0.00  0.00    +0.020 A 
ATOM     29  C   UNL     1      -6.266   1.288   0.485  0.00  0.00    -0.001 A 
ATOM     30  C   UNL     1      -7.447   1.614   1.161  0.00  0.00    +0.013 A 
ATOM     31  C   UNL     1      -8.636   1.608   0.488  0.00  0.00    -0.047 A 
ATOM     32  C   UNL     1      -8.683   1.281  -0.861  0.00  0.00    -0.046 A 
ATOM     33  C   UNL     1      -7.532   0.956  -1.546  0.00  0.00    +0.030 A 
ATOM     34  C   UNL     1      -6.310   0.957  -0.882  0.00  0.00    +0.049 A 
ATOM     35  N   UNL     1      -5.143   0.637  -1.544  0.00  0.00    -0.322 N 
ATOM     36  H   UNL     1      -5.175   0.409  -2.486  0.00  0.00    +0.169 HD
ATOM     37  C   UNL     1      -3.961   0.642  -0.903  0.00  0.00    +0.254 A 
ATOM     38  O   UNL     1      -2.949   0.359  -1.520  0.00  0.00    -0.268 OA
ATOM     39  C   UNL     1     -10.006   1.280  -1.582  0.00  0.00    +0.044 C 
ATOM     40  C   UNL     1      -9.908   1.959   1.216  0.00  0.00    +0.044 C 
ENDBRANCH  26  27
ENDBRANCH   1  26
TORSDOF 8
