REMARK  Name = ZINC39666397
REMARK  9 active torsions:
REMARK  status: ('A' for Active; 'I' for Inactive)
REMARK    1  A    between atoms: C_1  and  C_2
REMARK    2  A    between atoms: C_2  and  C_4
REMARK    3  A    between atoms: C_2  and  O_29
REMARK    4  A    between atoms: C_4  and  N_5
REMARK    5  A    between atoms: C_6  and  C_8
REMARK    6  A    between atoms: C_19  and  C_21
REMARK    7  A    between atoms: C_26  and  O_27
REMARK    8  A    between atoms: O_27  and  C_28
REMARK    9  A    between atoms: O_29  and  C_30
REMARK                            x       y       z     vdW  Elec       q    Type
REMARK                         _______ _______ _______ _____ _____    ______ ____
ROOT
ATOM      1  C   UNL     1       0.831  -4.046  -2.266  0.00  0.00    +0.100 C 
ATOM      2  C   UNL     1       1.548  -4.325  -0.926  0.00  0.00    +0.121 C 
ATOM      3  N   UNL     1       2.349  -5.547  -1.177  0.00  0.00    -0.296 N 
ATOM      4  C   UNL     1       2.872  -5.368  -2.553  0.00  0.00    +0.115 C 
ATOM      5  C   UNL     1       1.704  -4.731  -3.331  0.00  0.00    -0.004 C 
ATOM      6  C   UNL     1       2.232  -3.700  -4.325  0.00  0.00    -0.010 C 
ATOM      7  C   UNL     1       3.048  -4.413  -5.407  0.00  0.00    -0.082 C 
ATOM      8  N   UNL     1       2.201  -5.395  -6.094  0.00  0.00    +0.379 N 
ATOM      9  C   UNL     1       1.774  -6.435  -5.150  0.00  0.00    -0.082 C 
ATOM     10  C   UNL     1       0.903  -5.808  -4.057  0.00  0.00    -0.010 C 
ATOM     11  C   UNL     1       2.554  -6.586  -0.344  0.00  0.00    +0.250 C 
ATOM     12  O   UNL     1       1.982  -6.628   0.728  0.00  0.00    -0.270 OA
ATOM     13  H   UNL     1       1.388  -4.931  -6.472  0.00  0.00    -0.086 HD
ATOM     14  H   UNL     1       2.723  -5.820  -6.846  0.00  0.00    -0.086 HD
ENDROOT
BRANCH  11  15
ATOM     15  C   UNL     1       3.474  -7.672  -0.732  0.00  0.00    +0.078 A 
ATOM     16  C   UNL     1       4.620  -7.389  -1.480  0.00  0.00    +0.017 A 
ATOM     17  C   UNL     1       5.475  -8.408  -1.839  0.00  0.00    +0.001 A 
ATOM     18  C   UNL     1       5.205  -9.713  -1.461  0.00  0.00    +0.004 A 
ATOM     19  C   UNL     1       4.077 -10.007  -0.722  0.00  0.00    +0.046 A 
ATOM     20  C   UNL     1       3.207  -8.993  -0.347  0.00  0.00    +0.132 A 
BRANCH  20  21
ATOM     21  O   UNL     1       2.101  -9.279   0.383  0.00  0.00    -0.494 OA
ATOM     22  C   UNL     1       1.894 -10.648   0.739  0.00  0.00    +0.277 C 
ENDBRANCH  20  21
ENDBRANCH  11  15
BRANCH   1  24
ATOM     23  N   UNL     1      -0.265  -2.053  -3.237  0.00  0.00    -0.312 N 
ATOM     24  C   UNL     1       0.758  -2.563  -2.523  0.00  0.00    +0.218 C 
ATOM     25  O   UNL     1       1.618  -1.829  -2.086  0.00  0.00    -0.275 OA
ATOM     26  H   UNL     1      -0.953  -2.640  -3.586  0.00  0.00    +0.149 HD
BRANCH  23  27
ATOM     27  C   UNL     1      -0.336  -0.611  -3.487  0.00  0.00    +0.148 C 
BRANCH  27  29
ATOM     28  C   UNL     1      -1.594   1.188  -4.681  0.00  0.00    +0.053 C 
ATOM     29  C   UNL     1      -1.584  -0.298  -4.315  0.00  0.00    +0.187 C 
BRANCH  29  30
ATOM     30  O   UNL     1      -2.752  -0.608  -3.552  0.00  0.00    -0.486 OA
BRANCH  30  31
ATOM     31  C   UNL     1      -3.891  -0.870  -4.247  0.00  0.00    +0.139 A 
ATOM     32  C   UNL     1      -3.873  -0.876  -5.634  0.00  0.00    +0.047 A 
ATOM     33  C   UNL     1      -5.032  -1.143  -6.337  0.00  0.00    +0.004 A 
ATOM     34  C   UNL     1      -6.209  -1.403  -5.660  0.00  0.00    +0.002 A 
ATOM     35  C   UNL     1      -6.230  -1.398  -4.278  0.00  0.00    +0.023 A 
ATOM     36  C   UNL     1      -5.072  -1.137  -3.569  0.00  0.00    +0.083 A 
ATOM     37 CL   UNL     1      -5.098  -1.138  -1.833  0.00  0.00    -0.080 Cl
ENDBRANCH  30  31
ENDBRANCH  29  30
ENDBRANCH  27  29
ENDBRANCH  23  27
ENDBRANCH   1  24
TORSDOF 7
