REMARK  Name = ZINC21082297
REMARK  8 active torsions:
REMARK  status: ('A' for Active; 'I' for Inactive)
REMARK    1  A    between atoms: C_1  and  C_2
REMARK    2  A    between atoms: C_2  and  C_26
REMARK    3  A    between atoms: N_3  and  N_4
REMARK    4  A    between atoms: C_7  and  S_10
REMARK    5  A    between atoms: S_10  and  C_11
REMARK    6  A    between atoms: C_11  and  C_12
REMARK    7  A    between atoms: C_12  and  C_13
REMARK    8  A    between atoms: N_15  and  C_16
REMARK                            x       y       z     vdW  Elec       q    Type
REMARK                         _______ _______ _______ _____ _____    ______ ____
ROOT
ATOM      1  N   UNL     1       1.757  -1.721  -0.075  0.00  0.00    -0.205 N 
ATOM      2  C   UNL     1       1.310  -0.408  -0.055  0.00  0.00    +0.232 A 
ATOM      3  N   UNL     1       0.004  -0.003  -0.042  0.00  0.00    -0.186 NA
ATOM      4  C   UNL     1      -0.015   1.363  -0.025  0.00  0.00    +0.210 A 
ATOM      5  N   UNL     1       1.227   1.785  -0.029  0.00  0.00    -0.144 NA
ATOM      6  N   UNL     1       2.066   0.663  -0.048  0.00  0.00    -0.245 N 
ATOM      7  H   UNL     1       1.032  -2.548  -0.080  0.00  0.00    +0.177 HD
ATOM      8  H   UNL     1       3.162   0.564  -0.056  0.00  0.00    +0.192 HD
ENDROOT
BRANCH   1  11
ATOM      9  C   UNL     1       2.556  -4.357  -0.113  0.00  0.00    +0.068 C 
ATOM     10  C   UNL     1       3.549  -3.223  -0.105  0.00  0.00    +0.063 C 
ATOM     11  N   UNL     1       3.131  -1.993  -0.087  0.00  0.00    -0.184 NA
BRANCH  10  12
ATOM     12  C   UNL     1       4.995  -3.509  -0.118  0.00  0.00    -0.002 A 
ATOM     13  C   UNL     1       5.443  -4.844  -0.138  0.00  0.00    +0.010 A 
ATOM     14  C   UNL     1       6.768  -5.133  -0.151  0.00  0.00    +0.009 A 
ATOM     15  C   UNL     1       7.716  -4.092  -0.145  0.00  0.00    -0.018 A 
ATOM     16  C   UNL     1       9.093  -4.367  -0.159  0.00  0.00    +0.008 A 
ATOM     17  C   UNL     1       9.987  -3.340  -0.153  0.00  0.00    +0.001 A 
ATOM     18  C   UNL     1       9.557  -2.014  -0.133  0.00  0.00    +0.001 A 
ATOM     19  C   UNL     1       8.231  -1.709  -0.119  0.00  0.00    +0.008 A 
ATOM     20  C   UNL     1       7.278  -2.743  -0.125  0.00  0.00    -0.017 A 
ATOM     21  C   UNL     1       5.904  -2.463  -0.117  0.00  0.00    +0.018 A 
ENDBRANCH  10  12
ENDBRANCH   1  11
BRANCH   4  22
ATOM     22  S   UNL     1      -1.454   2.378  -0.010  0.00  0.00    -0.084 S 
BRANCH  22  23
ATOM     23  C   UNL     1      -0.798   4.069   0.009  0.00  0.00    +0.086 C 
BRANCH  23  24
ATOM     24  C   UNL     1      -1.959   5.066   0.024  0.00  0.00    +0.107 C 
BRANCH  24  25
ATOM     25  C   UNL     1      -1.414   6.471   0.040  0.00  0.00    +0.218 C 
ATOM     26  O   UNL     1      -0.215   6.657   0.039  0.00  0.00    -0.275 OA
ATOM     27  N   UNL     1      -2.258   7.522   0.054  0.00  0.00    -0.285 N 
ATOM     28  H   UNL     1      -3.343   7.356  -0.021  0.00  0.00    +0.155 HD
BRANCH  27  29
ATOM     29  C   UNL     1      -1.756   8.820   0.164  0.00  0.00    +0.041 A 
ATOM     30  C   UNL     1      -0.555   9.153  -0.425  0.00  0.00    +0.024 A 
ATOM     31  C   UNL     1      -0.046  10.444  -0.322  0.00  0.00    +0.002 A 
ATOM     32  C   UNL     1      -0.717  11.412   0.362  0.00  0.00    +0.008 A 
ATOM     33  C   UNL     1      -1.944  11.113   0.977  0.00  0.00    -0.016 A 
ATOM     34  C   UNL     1      -2.475   9.804   0.874  0.00  0.00    +0.003 A 
ATOM     35  C   UNL     1      -3.700   9.506   1.493  0.00  0.00    +0.010 A 
ATOM     36  C   UNL     1      -4.365  10.479   2.175  0.00  0.00    +0.001 A 
ATOM     37  C   UNL     1      -3.845  11.768   2.273  0.00  0.00    +0.001 A 
ATOM     38  C   UNL     1      -2.659  12.092   1.689  0.00  0.00    +0.008 A 
ENDBRANCH  27  29
ENDBRANCH  24  25
ENDBRANCH  23  24
ENDBRANCH  22  23
ENDBRANCH   4  22
TORSDOF 7
