REMARK  Name = ZINC08893424
REMARK  8 active torsions:
REMARK  status: ('A' for Active; 'I' for Inactive)
REMARK    1  A    between atoms: C_1  and  O_2
REMARK    2  A    between atoms: O_2  and  C_3
REMARK    3  A    between atoms: C_6  and  C_10
REMARK    4  A    between atoms: N_12  and  C_13
REMARK    5  A    between atoms: C_13  and  N_15
REMARK    6  A    between atoms: N_15  and  C_16
REMARK    7  A    between atoms: C_16  and  C_17
REMARK    8  A    between atoms: C_20  and  C_23
REMARK                            x       y       z     vdW  Elec       q    Type
REMARK                         _______ _______ _______ _____ _____    ______ ____
ROOT
ATOM      1  N   UNL     1      -6.010   1.641   0.040  0.00  0.00    -0.322 N 
ATOM      2  H   UNL     1      -6.021   2.611   0.045  0.00  0.00    +0.148 HD
ENDROOT
BRANCH   1   3
ATOM      3  C   UNL     1      -4.835   0.980   0.031  0.00  0.00    +0.137 C 
ATOM      4  S   UNL     1      -4.816  -0.732   0.022  0.00  0.00    -0.018 S 
BRANCH   3   7
ATOM      5  C   UNL     1      -2.501   1.007   0.020  0.00  0.00    +0.250 C 
ATOM      6  O   UNL     1      -2.487  -0.208   0.014  0.00  0.00    -0.270 OA
ATOM      7  N   UNL     1      -3.676   1.667   0.029  0.00  0.00    -0.264 N 
ATOM      8  H   UNL     1      -3.687   2.637   0.034  0.00  0.00    +0.157 HD
BRANCH   5  12
ATOM      9  C   UNL     1       1.153   3.172   0.008  0.00  0.00    +0.157 A 
ATOM     10  C   UNL     1       1.171   1.782   0.000  0.00  0.00    +0.085 A 
ATOM     11  C   UNL     1      -0.013   1.076   0.008  0.00  0.00    +0.036 A 
ATOM     12  C   UNL     1      -1.232   1.759   0.017  0.00  0.00    +0.040 A 
ATOM     13  C   UNL     1      -1.246   3.157   0.030  0.00  0.00    +0.036 A 
ATOM     14  C   UNL     1      -0.058   3.856   0.022  0.00  0.00    +0.085 A 
ATOM     15 CL   UNL     1      -0.074   5.592   0.032  0.00  0.00    -0.080 Cl
ATOM     16 CL   UNL     1       2.686   0.934  -0.017  0.00  0.00    -0.080 Cl
BRANCH   9  18
ATOM     17  C   UNL     1       2.868   4.202  -1.276  0.00  0.00    +0.277 C 
ATOM     18  O   UNL     1       2.321   3.865   0.001  0.00  0.00    -0.492 OA
ENDBRANCH   9  18
ENDBRANCH   5  12
ENDBRANCH   3   7
ENDBRANCH   1   3
BRANCH   1  19
ATOM     19  C   UNL     1      -7.270   0.894   0.043  0.00  0.00    +0.138 C 
BRANCH  19  20
ATOM     20  C   UNL     1      -8.427   1.860   0.053  0.00  0.00    -0.030 A 
ATOM     21  C   UNL     1      -8.953   2.291   1.258  0.00  0.00    +0.006 A 
ATOM     22  C   UNL     1     -10.009   3.179   1.275  0.00  0.00    +0.013 A 
ATOM     23  C   UNL     1     -10.552   3.635   0.073  0.00  0.00    +0.037 A 
ATOM     24  C   UNL     1     -10.020   3.192  -1.139  0.00  0.00    +0.013 A 
ATOM     25  C   UNL     1      -8.961   2.308  -1.142  0.00  0.00    +0.006 A 
BRANCH  23  26
ATOM     26  C   UNL     1     -11.686   4.583   0.083  0.00  0.00    +0.228 A 
ATOM     27  N   UNL     1     -12.257   5.059   1.161  0.00  0.00    -0.209 NA
ATOM     28  C   UNL     1     -13.259   5.897   0.791  0.00  0.00    +0.110 A 
ATOM     29  C   UNL     1     -14.183   6.668   1.500  0.00  0.00    +0.031 A 
ATOM     30  C   UNL     1     -15.099   7.436   0.817  0.00  0.00    +0.002 A 
ATOM     31  C   UNL     1     -15.110   7.448  -0.570  0.00  0.00    +0.004 A 
ATOM     32  C   UNL     1     -14.204   6.691  -1.284  0.00  0.00    +0.048 A 
ATOM     33  C   UNL     1     -13.274   5.912  -0.614  0.00  0.00    +0.156 A 
ATOM     34  O   UNL     1     -12.280   5.089  -1.015  0.00  0.00    -0.435 OA
ENDBRANCH  23  26
ENDBRANCH  19  20
ENDBRANCH   1  19
TORSDOF 7
