REMARK  Name = ZINC41583656
REMARK  11 active torsions:
REMARK  status: ('A' for Active; 'I' for Inactive)
REMARK    1  A    between atoms: C_1  and  C_2
REMARK    2  A    between atoms: C_4  and  O_34
REMARK    3  A    between atoms: C_5  and  C_23
REMARK    4  A    between atoms: C_11  and  C_12
REMARK    5  A    between atoms: C_15  and  C_18
REMARK    6  A    between atoms: C_18  and  C_19
REMARK    7  A    between atoms: C_18  and  C_20
REMARK    8  A    between atoms: C_18  and  C_21
REMARK    9  A    between atoms: C_23  and  N_24
REMARK   10  A    between atoms: C_26  and  C_33
REMARK   11  A    between atoms: C_29  and  C_32
REMARK                            x       y       z     vdW  Elec       q    Type
REMARK                         _______ _______ _______ _____ _____    ______ ____
ROOT
ATOM      1  C   UNL     1      -1.606   1.436   0.269  0.00  0.00    +0.045 C 
ATOM      2  C   UNL     1      -1.288  -0.035   0.189  0.00  0.00    -0.033 A 
ATOM      3  C   UNL     1      -1.391  -0.694  -1.004  0.00  0.00    +0.050 A 
ATOM      4  C   UNL     1      -1.098  -2.052  -1.080  0.00  0.00    +0.122 A 
ATOM      5  C   UNL     1      -0.700  -2.752   0.048  0.00  0.00    +0.020 A 
ATOM      6  C   UNL     1      -0.590  -2.098   1.268  0.00  0.00    +0.145 A 
ATOM      7  C   UNL     1      -0.883  -0.726   1.332  0.00  0.00    +0.071 A 
ATOM      8  C   UNL     1      -0.672  -0.320   2.733  0.00  0.00    +0.232 C 
ATOM      9  O   UNL     1      -0.820   0.788   3.220  0.00  0.00    -0.283 OA
ATOM     10  C   UNL     1      -0.243  -1.553   3.414  0.00  0.00    +0.176 C 
ATOM     11  C   UNL     1       0.069  -1.676   4.727  0.00  0.00    +0.058 C 
ATOM     12  O   UNL     1      -0.229  -2.544   2.491  0.00  0.00    -0.451 OA
ENDROOT
BRANCH  11  13
ATOM     13  C   UNL     1       0.171  -0.479   5.574  0.00  0.00    -0.021 A 
ATOM     14  C   UNL     1      -0.315  -0.501   6.886  0.00  0.00    +0.008 A 
ATOM     15  C   UNL     1      -0.215   0.626   7.673  0.00  0.00    +0.005 A 
ATOM     16  C   UNL     1       0.364   1.778   7.170  0.00  0.00    -0.042 A 
ATOM     17  C   UNL     1       0.847   1.808   5.873  0.00  0.00    +0.005 A 
ATOM     18  C   UNL     1       0.761   0.688   5.074  0.00  0.00    +0.008 A 
BRANCH  16  19
ATOM     19  C   UNL     1       0.469   3.005   8.038  0.00  0.00    -0.013 C 
ATOM     20  C   UNL     1       1.302   2.682   9.280  0.00  0.00    +0.015 C 
ATOM     21  C   UNL     1       1.143   4.131   7.250  0.00  0.00    +0.015 C 
ATOM     22  C   UNL     1      -0.932   3.449   8.465  0.00  0.00    +0.015 C 
ENDBRANCH  16  19
ENDBRANCH  11  13
BRANCH   4  23
ATOM     23  O   UNL     1      -1.204  -2.698  -2.269  0.00  0.00    -0.506 OA
ATOM     24  H   UNL     1      -0.392  -2.693  -2.793  0.00  0.00    +0.292 HD
ENDBRANCH   4  23
BRANCH   5  25
ATOM     25  C   UNL     1      -0.387  -4.223  -0.049  0.00  0.00    -0.036 C 
BRANCH  25  26
ATOM     26  N   UNL     1       1.038  -4.400  -0.362  0.00  0.00    +0.383 N 
ATOM     27  C   UNL     1       1.318  -3.846  -1.692  0.00  0.00    -0.075 C 
ATOM     28  C   UNL     1       2.815  -3.955  -1.988  0.00  0.00    -0.031 C 
ATOM     29  C   UNL     1       3.232  -5.428  -1.949  0.00  0.00    +0.003 C 
ATOM     30  C   UNL     1       2.867  -6.016  -0.583  0.00  0.00    -0.031 C 
ATOM     31  C   UNL     1       1.368  -5.830  -0.338  0.00  0.00    -0.075 C 
ATOM     32  C   UNL     1       3.657  -5.295   0.511  0.00  0.00    +0.005 C 
ATOM     33  C   UNL     1       3.104  -3.378  -3.376  0.00  0.00    +0.005 C 
ATOM     34  H   UNL     1       1.595  -3.916   0.327  0.00  0.00    -0.081 HD
ENDBRANCH  25  26
ENDBRANCH   5  25
TORSDOF 5
