REMARK  Name = ZINC00521350
REMARK  4 active torsions:
REMARK  status: ('A' for Active; 'I' for Inactive)
REMARK    1  A    between atoms: C_1  and  C_2
REMARK    2  A    between atoms: C_2  and  C_23
REMARK    3  A    between atoms: N_11  and  N_14
REMARK    4  A    between atoms: N_14  and  C_15
REMARK                            x       y       z     vdW  Elec       q    Type
REMARK                         _______ _______ _______ _____ _____    ______ ____
ROOT
ATOM      1  C   UNL     1      -4.972  -2.173   4.769  0.00  0.00    +0.041 C 
ATOM      2  C   UNL     1      -3.965  -3.313   4.605  0.00  0.00    +0.068 C 
ATOM      3  C   UNL     1      -2.858  -2.878   3.639  0.00  0.00    +0.071 C 
ATOM      4  C   UNL     1      -3.462  -2.785   2.240  0.00  0.00    -0.018 A 
ATOM      5  C   UNL     1      -4.638  -3.399   1.979  0.00  0.00    +0.021 A 
ATOM      6  S   UNL     1      -4.971  -3.046   0.277  0.00  0.00    -0.071 S 
ATOM      7  C   UNL     1      -3.528  -2.074  -0.080  0.00  0.00    +0.116 A 
ATOM      8  C   UNL     1      -2.834  -2.057   1.142  0.00  0.00    +0.077 A 
ATOM      9  C   UNL     1      -1.599  -1.330   1.142  0.00  0.00    +0.279 A 
ATOM     10  O   UNL     1      -0.921  -1.261   2.153  0.00  0.00    -0.265 OA
ATOM     11  N   UNL     1      -1.202  -0.721   0.010  0.00  0.00    -0.215 N 
ATOM     12  C   UNL     1      -1.941  -0.792  -1.127  0.00  0.00    +0.223 A 
ATOM     13  N   UNL     1      -3.068  -1.451  -1.161  0.00  0.00    -0.228 NA
ATOM     14  C   UNL     1      -5.454  -4.197   2.947  0.00  0.00    +0.203 C 
ATOM     15  O   UNL     1      -4.636  -4.469   4.096  0.00  0.00    -0.368 OA
ATOM     16  C   UNL     1      -3.346  -3.643   5.965  0.00  0.00    +0.041 C 
ENDROOT
BRANCH  11  17
ATOM     17  N   UNL     1       0.002  -0.004   0.002  0.00  0.00    -0.249 N 
ATOM     18  H   UNL     1       0.849  -0.478  -0.009  0.00  0.00    +0.173 HD
BRANCH  17  19
ATOM     19  C   UNL     1      -0.017   1.393   0.010  0.00  0.00    +0.047 A 
ATOM     20  C   UNL     1      -1.228   2.072   0.019  0.00  0.00    +0.024 A 
ATOM     21  C   UNL     1      -1.243   3.453   0.032  0.00  0.00    +0.002 A 
ATOM     22  C   UNL     1      -0.054   4.159   0.025  0.00  0.00    +0.000 A 
ATOM     23  C   UNL     1       1.153   3.486   0.010  0.00  0.00    +0.002 A 
ATOM     24  C   UNL     1       1.176   2.105   0.002  0.00  0.00    +0.024 A 
ENDBRANCH  17  19
ENDBRANCH  11  17
TORSDOF 2
