REMARK  Name = ZINC00844387
REMARK  13 active torsions:
REMARK  status: ('A' for Active; 'I' for Inactive)
REMARK    1  A    between atoms: C_1  and  C_2
REMARK    2  A    between atoms: C_3  and  C_20
REMARK    3  A    between atoms: C_4  and  C_10
REMARK    4  A    between atoms: C_12  and  O_18
REMARK    5  A    between atoms: C_13  and  O_17
REMARK    6  A    between atoms: O_18  and  C_19
REMARK    7  A    between atoms: C_20  and  O_22
REMARK    8  A    between atoms: O_22  and  C_23
REMARK    9  A    between atoms: C_23  and  C_25
REMARK   10  A    between atoms: C_23  and  C_26
REMARK   11  A    between atoms: C_26  and  C_27
REMARK   12  A    between atoms: C_26  and  C_28
REMARK   13  A    between atoms: C_26  and  C_29
REMARK                            x       y       z     vdW  Elec       q    Type
REMARK                         _______ _______ _______ _____ _____    ______ ____
ROOT
ATOM      1  C   UNL     1      -2.839   1.290  -0.024  0.00  0.00    +0.061 C 
ATOM      2  C   UNL     1      -2.587   2.718  -0.433  0.00  0.00    +0.021 C 
ATOM      3  C   UNL     1      -1.320   3.187  -0.461  0.00  0.00    +0.078 C 
ATOM      4  C   UNL     1      -1.111   4.626  -0.884  0.00  0.00    +0.144 C 
ATOM      5  N   UNL     1      -2.314   5.403  -1.226  0.00  0.00    -0.288 N 
ATOM      6  C   UNL     1      -3.514   4.796  -1.145  0.00  0.00    +0.304 C 
ATOM      7  O   UNL     1      -4.514   5.429  -1.425  0.00  0.00    -0.252 OA
ATOM      8  N   UNL     1      -3.642   3.518  -0.765  0.00  0.00    -0.273 N 
ATOM      9  H   UNL     1      -2.244   6.330  -1.504  0.00  0.00    +0.151 HD
ATOM     10  H   UNL     1      -4.534   3.139  -0.726  0.00  0.00    +0.156 HD
ENDROOT
BRANCH   4  11
ATOM     11  C   UNL     1      -0.400   5.341   0.236  0.00  0.00    -0.018 A 
ATOM     12  C   UNL     1       0.940   5.661   0.111  0.00  0.00    +0.055 A 
ATOM     13  C   UNL     1       1.593   6.323   1.137  0.00  0.00    +0.163 A 
ATOM     14  C   UNL     1       0.903   6.654   2.299  0.00  0.00    +0.173 A 
ATOM     15  C   UNL     1      -0.438   6.326   2.421  0.00  0.00    +0.063 A 
ATOM     16  C   UNL     1      -1.087   5.670   1.390  0.00  0.00    +0.025 A 
ATOM     17 BR   UNL     1      -1.382   6.775   3.997  0.00  0.00    -0.046 Br
BRANCH  14  18
ATOM     18  O   UNL     1       1.542   7.300   3.311  0.00  0.00    -0.503 OA
ATOM     19  H   UNL     1       1.949   6.709   3.959  0.00  0.00    +0.292 HD
ENDBRANCH  14  18
BRANCH  13  20
ATOM     20  O   UNL     1       2.909   6.643   1.012  0.00  0.00    -0.491 OA
ATOM     21  C   UNL     1       3.531   6.353  -0.241  0.00  0.00    +0.277 C 
ENDBRANCH  13  20
ENDBRANCH   4  11
BRANCH   3  22
ATOM     22  C   UNL     1      -0.227   2.360  -0.113  0.00  0.00    +0.339 C 
ATOM     23  O   UNL     1       0.471   1.875  -0.985  0.00  0.00    -0.245 OA
BRANCH  22  24
ATOM     24  O   UNL     1       0.047   2.114   1.185  0.00  0.00    -0.458 OA
BRANCH  24  25
ATOM     25  C   UNL     1       1.093   1.180   1.462  0.00  0.00    +0.179 C 
ATOM     26  C   UNL     1       0.524  -0.241   1.449  0.00  0.00    +0.052 C 
BRANCH  25  27
ATOM     27  C   UNL     1       1.691   1.477   2.838  0.00  0.00    -0.001 C 
ATOM     28  C   UNL     1       0.610   1.320   3.909  0.00  0.00    +0.014 C 
ATOM     29  C   UNL     1       2.834   0.499   3.119  0.00  0.00    +0.014 C 
ATOM     30  C   UNL     1       2.228   2.909   2.862  0.00  0.00    +0.014 C 
ENDBRANCH  25  27
ENDBRANCH  24  25
ENDBRANCH  22  24
ENDBRANCH   3  22
TORSDOF 7
