REMARK  Name = ZINC39736417
REMARK  14 active torsions:
REMARK  status: ('A' for Active; 'I' for Inactive)
REMARK    1  A    between atoms: C_1  and  C_2
REMARK    2  A    between atoms: C_2  and  N_3
REMARK    3  A    between atoms: N_3  and  C_4
REMARK    4  A    between atoms: N_3  and  C_6
REMARK    5  A    between atoms: C_4  and  C_5
REMARK    6  A    between atoms: C_6  and  C_7
REMARK    7  A    between atoms: C_7  and  N_8
REMARK    8  A    between atoms: C_19  and  C_21
REMARK    9  A    between atoms: C_24  and  S_27
REMARK   10  A    between atoms: S_27  and  N_30
REMARK   11  A    between atoms: N_30  and  C_31
REMARK   12  A    between atoms: N_30  and  C_32
REMARK   13  A    between atoms: C_32  and  C_33
REMARK   14  A    between atoms: C_32  and  C_34
REMARK                            x       y       z     vdW  Elec       q    Type
REMARK                         _______ _______ _______ _____ _____    ______ ____
ROOT
ATOM      1  N   UNL     1      -3.038  -4.552   0.652  0.00  0.00    -0.248 N 
ATOM      2  C   UNL     1      -3.428  -5.201   1.812  0.00  0.00    +0.168 A 
ATOM      3  N   UNL     1      -4.188  -4.759   2.786  0.00  0.00    -0.224 NA
ATOM      4  C   UNL     1      -4.489  -5.509   3.869  0.00  0.00    +0.080 A 
ATOM      5  C   UNL     1      -5.290  -5.156   4.980  0.00  0.00    +0.030 A 
ATOM      6  C   UNL     1      -5.497  -6.043   6.004  0.00  0.00    +0.022 A 
ATOM      7  C   UNL     1      -4.933  -7.312   5.990  0.00  0.00    +0.042 A 
ATOM      8  C   UNL     1      -4.144  -7.690   4.918  0.00  0.00    +0.037 A 
ATOM      9  C   UNL     1      -3.932  -6.808   3.888  0.00  0.00    +0.042 A 
ATOM     10  S   UNL     1      -3.030  -6.856   2.357  0.00  0.00    -0.052 S 
ATOM     11 CL   UNL     1      -5.214  -8.411   7.303  0.00  0.00    -0.084 Cl
ATOM     12  C   UNL     1      -2.250  -5.183  -0.241  0.00  0.00    +0.252 C 
ATOM     13  O   UNL     1      -1.927  -6.340  -0.055  0.00  0.00    -0.270 OA
ENDROOT
BRANCH  12  14
ATOM     14  C   UNL     1      -1.780  -4.468  -1.446  0.00  0.00    +0.037 A 
ATOM     15  C   UNL     1      -1.583  -3.086  -1.409  0.00  0.00    +0.015 A 
ATOM     16  C   UNL     1      -1.144  -2.425  -2.538  0.00  0.00    +0.029 A 
ATOM     17  C   UNL     1      -0.898  -3.129  -3.704  0.00  0.00    +0.106 A 
ATOM     18  C   UNL     1      -1.091  -4.498  -3.747  0.00  0.00    +0.029 A 
ATOM     19  C   UNL     1      -1.524  -5.172  -2.624  0.00  0.00    +0.015 A 
BRANCH  17  20
ATOM     20  S   UNL     1      -0.339  -2.276  -5.141  0.00  0.00    +0.061 S 
ATOM     21  O   UNL     1      -0.812  -3.013  -6.260  0.00  0.00    -0.153 OA
ATOM     22  O   UNL     1      -0.650  -0.904  -4.946  0.00  0.00    -0.153 OA
BRANCH  20  23
ATOM     23  N   UNL     1       1.313  -2.389  -5.164  0.00  0.00    -0.177 NA
ATOM     24  C   UNL     1       1.965  -3.449  -5.938  0.00  0.00    +0.132 C 
BRANCH  23  25
ATOM     25  C   UNL     1       2.123  -1.428  -4.411  0.00  0.00    +0.073 C 
ATOM     26  C   UNL     1       3.051  -2.181  -3.456  0.00  0.00    +0.025 C 
ATOM     27  C   UNL     1       2.960  -0.594  -5.384  0.00  0.00    +0.025 C 
ENDBRANCH  23  25
ENDBRANCH  20  23
ENDBRANCH  17  20
ENDBRANCH  12  14
BRANCH   1  28
ATOM     28  C   UNL     1      -3.481  -3.179   0.397  0.00  0.00    +0.097 C 
BRANCH  28  29
ATOM     29  C   UNL     1      -2.648  -2.209   1.236  0.00  0.00    -0.059 C 
BRANCH  29  30
ATOM     30  N   UNL     1      -3.007  -0.828   0.889  0.00  0.00    +0.380 N 
ATOM     31  H   UNL     1      -2.889  -0.689  -0.103  0.00  0.00    -0.082 HD
BRANCH  30  33
ATOM     32  C   UNL     1      -4.819   0.817   0.781  0.00  0.00    -0.017 C 
ATOM     33  C   UNL     1      -4.408  -0.579   1.255  0.00  0.00    -0.082 C 
ENDBRANCH  30  33
BRANCH  30  34
ATOM     34  C   UNL     1      -2.137   0.103   1.621  0.00  0.00    -0.082 C 
ATOM     35  C   UNL     1      -0.700  -0.037   1.115  0.00  0.00    -0.017 C 
ENDBRANCH  30  34
ENDBRANCH  29  30
ENDBRANCH  28  29
ENDBRANCH   1  28
TORSDOF 9
