REMARK  Name = ZINC17180891
REMARK  9 active torsions:
REMARK  status: ('A' for Active; 'I' for Inactive)
REMARK    1  A    between atoms: C_1  and  C_2
REMARK    2  A    between atoms: C_2  and  C_4
REMARK    3  A    between atoms: C_4  and  O_41
REMARK    4  A    between atoms: C_9  and  C_40
REMARK    5  A    between atoms: N_21  and  O_22
REMARK    6  A    between atoms: O_22  and  C_23
REMARK    7  A    between atoms: C_23  and  C_24
REMARK    8  A    between atoms: N_26  and  C_27
REMARK    9  A    between atoms: C_38  and  C_39
REMARK                            x       y       z     vdW  Elec       q    Type
REMARK                         _______ _______ _______ _____ _____    ______ ____
ROOT
ATOM      1  C   UNL     1      -8.421   6.397 -12.252  0.00  0.00    +0.129 C 
ATOM      2  C   UNL     1      -7.096   5.925 -12.901  0.00  0.00    +0.043 C 
ATOM      3  C   UNL     1      -6.314   5.159 -11.798  0.00  0.00    +0.008 C 
ATOM      4  C   UNL     1      -7.436   4.755 -10.830  0.00  0.00    +0.002 C 
ATOM      5  C   UNL     1      -8.274   6.045 -10.760  0.00  0.00    +0.007 C 
ATOM      6  C   UNL     1      -9.573   5.826 -10.020  0.00  0.00    +0.010 C 
ATOM      7  C   UNL     1      -9.445   4.611  -9.077  0.00  0.00    +0.005 C 
ATOM      8  C   UNL     1      -8.065   4.657  -8.437  0.00  0.00    +0.002 C 
ATOM      9  C   UNL     1      -7.029   4.232  -9.488  0.00  0.00    -0.003 C 
ATOM     10  C   UNL     1      -5.630   4.567  -9.005  0.00  0.00    +0.008 C 
ATOM     11  C   UNL     1      -5.359   3.707  -7.753  0.00  0.00    +0.031 C 
ATOM     12  C   UNL     1      -6.456   3.997  -6.741  0.00  0.00    -0.062 C 
ATOM     13  C   UNL     1      -6.086   4.389  -5.529  0.00  0.00    +0.026 C 
ATOM     14  C   UNL     1      -7.127   4.711  -4.534  0.00  0.00    +0.080 C 
ATOM     15  N   UNL     1      -6.943   4.571  -3.262  0.00  0.00    -0.089 NA
ATOM     16  C   UNL     1      -8.431   5.227  -5.117  0.00  0.00    +0.059 C 
ATOM     17  C   UNL     1      -8.918   4.181  -6.117  0.00  0.00    +0.017 C 
ATOM     18  C   UNL     1      -7.890   3.837  -7.170  0.00  0.00    -0.007 C 
ATOM     19  C   UNL     1      -8.113   2.361  -7.497  0.00  0.00    +0.016 C 
ATOM     20  C   UNL     1      -7.489   7.193 -10.112  0.00  0.00    +0.015 C 
ENDROOT
BRANCH   1  22
ATOM     21  C   UNL     1      -9.959   8.500 -12.381  0.00  0.00    +0.089 C 
ATOM     22  C   UNL     1      -8.584   7.884 -12.414  0.00  0.00    +0.162 C 
ATOM     23  O   UNL     1      -7.613   8.584 -12.571  0.00  0.00    -0.295 OA
ENDBRANCH   1  22
BRANCH   1  24
ATOM     24  O   UNL     1      -9.526   5.701 -12.821  0.00  0.00    -0.381 OA
ATOM     25  H   UNL     1      -9.636   5.847 -13.771  0.00  0.00    +0.211 HD
ENDBRANCH   1  24
BRANCH  15  26
ATOM     26  O   UNL     1      -5.704   4.090  -2.774  0.00  0.00    -0.384 OA
BRANCH  26  27
ATOM     27  C   UNL     1      -5.641   3.985  -1.351  0.00  0.00    +0.358 C 
BRANCH  27  28
ATOM     28  C   UNL     1      -4.285   3.467  -0.945  0.00  0.00    +0.254 C 
ATOM     29  O   UNL     1      -3.454   3.213  -1.791  0.00  0.00    -0.272 OA
ATOM     30  N   UNL     1      -3.995   3.286   0.359  0.00  0.00    -0.301 N 
ATOM     31  H   UNL     1      -4.659   3.490   1.036  0.00  0.00    +0.150 HD
BRANCH  30  32
ATOM     32  C   UNL     1      -2.677   2.783   0.753  0.00  0.00    +0.159 C 
ATOM     33  C   UNL     1      -2.360   3.235   2.181  0.00  0.00    +0.032 C 
ATOM     34  C   UNL     1      -0.860   3.283   2.410  0.00  0.00    +0.004 C 
ATOM     35  C   UNL     1      -0.191   1.921   2.376  0.00  0.00    +0.019 C 
ATOM     36  C   UNL     1      -0.252   1.318   0.972  0.00  0.00    +0.104 C 
ATOM     37  N   UNL     1      -1.527   0.597   0.824  0.00  0.00    -0.314 N 
ATOM     38  C   UNL     1      -2.674   1.269   0.712  0.00  0.00    +0.233 C 
ATOM     39  O   UNL     1      -3.717   0.666   0.580  0.00  0.00    -0.274 OA
ATOM     40  H   UNL     1      -1.533  -0.372   0.804  0.00  0.00    +0.149 HD
ENDBRANCH  30  32
ENDBRANCH  27  28
ENDBRANCH  26  27
ENDBRANCH  15  26
TORSDOF 6
