REMARK  Name = ZINC21336405
REMARK  6 active torsions:
REMARK  status: ('A' for Active; 'I' for Inactive)
REMARK    1  A    between atoms: C_1  and  C_2
REMARK    2  A    between atoms: C_2  and  C_3
REMARK    3  A    between atoms: C_13  and  C_15
REMARK    4  A    between atoms: C_15  and  N_16
REMARK    5  A    between atoms: C_19  and  C_23
REMARK    6  A    between atoms: C_19  and  C_24
REMARK                            x       y       z     vdW  Elec       q    Type
REMARK                         _______ _______ _______ _____ _____    ______ ____
ROOT
ATOM      1  N   UNL     1      -0.450  10.751   0.060  0.00  0.00    -0.215 N 
ATOM      2  C   UNL     1      -1.105  11.154  -1.047  0.00  0.00    +0.251 C 
ATOM      3  O   UNL     1      -0.781  10.963  -2.200  0.00  0.00    -0.272 OA
ATOM      4  C   UNL     1      -2.332  11.894  -0.551  0.00  0.00    +0.135 C 
ATOM      5  N   UNL     1      -2.210  11.822   0.915  0.00  0.00    -0.281 N 
ATOM      6  C   UNL     1      -1.082  11.136   1.174  0.00  0.00    +0.310 C 
ATOM      7  O   UNL     1      -0.682  10.894   2.296  0.00  0.00    -0.252 OA
ATOM      8  C   UNL     1      -3.613  11.202  -1.020  0.00  0.00    +0.047 C 
ATOM      9  H   UNL     1      -2.975  12.287   1.554  0.00  0.00    +0.152 HD
ENDROOT
BRANCH   4  10
ATOM     10  C   UNL     1      -2.304  13.328  -1.015  0.00  0.00    -0.015 A 
ATOM     11  C   UNL     1      -1.755  13.637  -2.258  0.00  0.00    +0.007 A 
ATOM     12  C   UNL     1      -1.720  14.920  -2.709  0.00  0.00    +0.009 A 
ATOM     13  C   UNL     1      -2.234  15.953  -1.907  0.00  0.00    -0.018 A 
ATOM     14  C   UNL     1      -2.210  17.291  -2.337  0.00  0.00    +0.008 A 
ATOM     15  C   UNL     1      -2.718  18.265  -1.534  0.00  0.00    +0.001 A 
ATOM     16  C   UNL     1      -3.262  17.957  -0.288  0.00  0.00    +0.001 A 
ATOM     17  C   UNL     1      -3.303  16.673   0.160  0.00  0.00    +0.008 A 
ATOM     18  C   UNL     1      -2.788  15.640  -0.641  0.00  0.00    -0.018 A 
ATOM     19  C   UNL     1      -2.812  14.302  -0.212  0.00  0.00    +0.014 A 
ENDBRANCH   4  10
BRANCH   1  20
ATOM     20  C   UNL     1       0.802   9.991   0.044  0.00  0.00    +0.214 C 
BRANCH  20  31
ATOM     21  C   UNL     1      -0.018   1.503   0.010  0.00  0.00    -0.046 A 
ATOM     22  C   UNL     1      -1.225   2.187   0.020  0.00  0.00    +0.006 A 
ATOM     23  C   UNL     1      -1.272   3.557   0.032  0.00  0.00    +0.029 A 
ATOM     24  C   UNL     1      -0.081   4.320   0.025  0.00  0.00    +0.080 A 
ATOM     25  C   UNL     1       1.129   3.589   0.010  0.00  0.00    +0.041 A 
ATOM     26  C   UNL     1       1.165   2.217   0.003  0.00  0.00    +0.021 A 
ATOM     27  S   UNL     1       2.350   4.880   0.005  0.00  0.00    -0.052 S 
ATOM     28  C   UNL     1       1.216   6.262   0.022  0.00  0.00    +0.165 A 
ATOM     29  N   UNL     1       0.047   5.665   0.030  0.00  0.00    -0.225 NA
ATOM     30  N   UNL     1       1.499   7.618   0.026  0.00  0.00    -0.263 N 
ATOM     31  C   UNL     1       0.494   8.516   0.040  0.00  0.00    +0.237 C 
ATOM     32  O   UNL     1      -0.658   8.137   0.049  0.00  0.00    -0.274 OA
ATOM     33  H   UNL     1       2.544   7.962   0.018  0.00  0.00    +0.157 HD
BRANCH  21  35
ATOM     34  C   UNL     1       0.023  -0.522   1.442  0.00  0.00    +0.009 C 
ATOM     35  C   UNL     1       0.002  -0.004   0.002  0.00  0.00    +0.032 C 
ENDBRANCH  21  35
ENDBRANCH  20  31
ENDBRANCH   1  20
TORSDOF 4
