REMARK  Name = ZINC09828952
REMARK  10 active torsions:
REMARK  status: ('A' for Active; 'I' for Inactive)
REMARK    1  A    between atoms: C_1  and  O_2
REMARK    2  A    between atoms: O_2  and  C_3
REMARK    3  A    between atoms: C_6  and  N_9
REMARK    4  A    between atoms: C_14  and  C_16
REMARK    5  A    between atoms: C_14  and  C_31
REMARK    6  A    between atoms: C_14  and  N_64
REMARK    7  A    between atoms: C_16  and  N_17
REMARK    8  A    between atoms: C_18  and  C_20
REMARK    9  A    between atoms: N_22  and  C_23
REMARK   10  A    between atoms: C_23  and  C_24
REMARK                            x       y       z     vdW  Elec       q    Type
REMARK                         _______ _______ _______ _____ _____    ______ ____
ROOT
ATOM      1  C   UNL     1      -1.036   3.567   0.026  0.00  0.00    +0.017 C 
ENDROOT
BRANCH   1   7
ATOM      2  N   UNL     1       1.035   5.884   2.888  0.00  0.00    -0.333 N 
ATOM      3  C   UNL     1       1.527   5.899   1.503  0.00  0.00    +0.086 C 
ATOM      4  C   UNL     1       0.412   5.432   0.564  0.00  0.00    -0.059 C 
ATOM      5  C   UNL     1      -0.510   4.067   2.337  0.00  0.00    -0.059 C 
ATOM      6  C   UNL     1       0.605   4.534   3.276  0.00  0.00    +0.086 C 
ATOM      7  N   UNL     1       0.005   4.065   0.951  0.00  0.00    +0.389 N 
ATOM      8  H   UNL     1       0.822   3.446   0.899  0.00  0.00    -0.081 HD
BRANCH   2  12
ATOM      9  C   UNL     1       3.923   7.345   5.515  0.00  0.00    +0.120 A 
ATOM     10  C   UNL     1       2.692   6.928   6.000  0.00  0.00    +0.047 A 
ATOM     11  C   UNL     1       1.735   6.444   5.130  0.00  0.00    +0.027 A 
ATOM     12  C   UNL     1       2.004   6.375   3.770  0.00  0.00    +0.030 A 
ATOM     13  C   UNL     1       3.239   6.788   3.285  0.00  0.00    +0.027 A 
ATOM     14  C   UNL     1       4.193   7.277   4.156  0.00  0.00    +0.047 A 
BRANCH   9  16
ATOM     15  C   UNL     1       6.110   8.233   5.803  0.00  0.00    +0.277 C 
ATOM     16  O   UNL     1       4.865   7.821   6.372  0.00  0.00    -0.495 OA
ENDBRANCH   9  16
ENDBRANCH   2  12
ENDBRANCH   1   7
BRANCH   1  17
ATOM     17  C   UNL     1      -2.236   4.477   0.043  0.00  0.00    +0.093 A 
ATOM     18  C   UNL     1      -2.870   4.963  -1.039  0.00  0.00    +0.043 A 
ATOM     19  C   UNL     1      -3.933   5.766  -0.566  0.00  0.00    +0.041 A 
ATOM     20  C   UNL     1      -3.885   5.723   0.778  0.00  0.00    +0.195 A 
ATOM     21  O   UNL     1      -2.859   4.936   1.141  0.00  0.00    -0.469 OA
ENDBRANCH   1  17
BRANCH   1  22
ATOM     22  C   UNL     1      -1.455   2.161   0.460  0.00  0.00    +0.097 C 
BRANCH  22  23
ATOM     23  N   UNL     1      -0.270   1.306   0.559  0.00  0.00    -0.309 N 
ATOM     24  C   UNL     1      -0.398   0.016   0.928  0.00  0.00    +0.299 C 
ATOM     25  O   UNL     1      -1.495  -0.436   1.183  0.00  0.00    -0.265 OA
ATOM     26  H   UNL     1       0.607   1.667   0.356  0.00  0.00    +0.149 HD
BRANCH  24  27
ATOM     27  C   UNL     1       0.811  -0.858   1.023  0.00  0.00    +0.299 C 
ATOM     28  O   UNL     1       1.908  -0.406   0.768  0.00  0.00    -0.265 OA
ATOM     29  N   UNL     1       0.682  -2.148   1.392  0.00  0.00    -0.303 N 
ATOM     30  H   UNL     1      -0.194  -2.509   1.596  0.00  0.00    +0.149 HD
BRANCH  29  31
ATOM     31  C   UNL     1       1.867  -3.004   1.486  0.00  0.00    +0.140 C 
BRANCH  31  32
ATOM     32  C   UNL     1       1.454  -4.389   1.914  0.00  0.00    -0.030 A 
ATOM     33  C   UNL     1       1.407  -4.710   3.258  0.00  0.00    +0.006 A 
ATOM     34  C   UNL     1       1.022  -5.978   3.652  0.00  0.00    +0.020 A 
ATOM     35  C   UNL     1       0.696  -6.928   2.701  0.00  0.00    +0.041 A 
ATOM     36  C   UNL     1       0.748  -6.607   1.357  0.00  0.00    +0.020 A 
ATOM     37  C   UNL     1       1.127  -5.338   0.964  0.00  0.00    +0.006 A 
ATOM     38 CL   UNL     1       0.219  -8.523   3.195  0.00  0.00    -0.084 Cl
ENDBRANCH  31  32
ENDBRANCH  29  31
ENDBRANCH  24  27
ENDBRANCH  22  23
ENDBRANCH   1  22
TORSDOF 9
