REMARK  Name = ZINC29744241
REMARK  9 active torsions:
REMARK  status: ('A' for Active; 'I' for Inactive)
REMARK    1  A    between atoms: C_1  and  C_2
REMARK    2  A    between atoms: C_2  and  C_4
REMARK    3  A    between atoms: C_2  and  S_17
REMARK    4  A    between atoms: N_6  and  C_7
REMARK    5  A    between atoms: C_10  and  S_13
REMARK    6  A    between atoms: S_13  and  N_16
REMARK    7  A    between atoms: S_17  and  C_18
REMARK    8  A    between atoms: N_22  and  C_23
REMARK    9  A    between atoms: C_23  and  C_24
REMARK                            x       y       z     vdW  Elec       q    Type
REMARK                         _______ _______ _______ _____ _____    ______ ____
ROOT
ATOM      1  C   UNL     1      -4.513  -1.964  -2.562  0.00  0.00    +0.230 C 
ATOM      2  O   UNL     1      -4.096  -2.870  -1.873  0.00  0.00    -0.274 OA
ATOM      3  N   UNL     1      -5.723  -2.063  -3.147  0.00  0.00    -0.285 N 
ATOM      4  H   UNL     1      -6.133  -1.212  -3.710  0.00  0.00    +0.155 HD
ENDROOT
BRANCH   3   5
ATOM      5  C   UNL     1      -6.456  -3.250  -3.039  0.00  0.00    +0.034 A 
ATOM      6  C   UNL     1      -7.249  -3.677  -4.096  0.00  0.00    +0.025 A 
ATOM      7  C   UNL     1      -7.967  -4.852  -3.988  0.00  0.00    +0.030 A 
ATOM      8  C   UNL     1      -7.906  -5.597  -2.824  0.00  0.00    +0.105 A 
ATOM      9  C   UNL     1      -7.122  -5.171  -1.768  0.00  0.00    +0.030 A 
ATOM     10  C   UNL     1      -6.397  -4.000  -1.872  0.00  0.00    +0.025 A 
BRANCH   8  11
ATOM     11  S   UNL     1      -8.830  -7.091  -2.688  0.00  0.00    +0.056 S 
ATOM     12  O   UNL     1      -9.054  -7.552  -4.013  0.00  0.00    -0.153 OA
ATOM     13  O   UNL     1      -8.176  -7.884  -1.706  0.00  0.00    -0.153 OA
BRANCH  11  14
ATOM     14  N   UNL     1     -10.313  -6.696  -2.067  0.00  0.00    -0.204 NA
ATOM     15  H   UNL     1     -10.922  -7.606  -1.966  0.00  0.00    +0.144 HD
ATOM     16  H   UNL     1     -10.817  -5.990  -2.743  0.00  0.00    +0.144 HD
ENDBRANCH  11  14
ENDBRANCH   8  11
ENDBRANCH   3   5
BRANCH   1  18
ATOM     17  C   UNL     1      -2.973  -0.802  -4.122  0.00  0.00    +0.029 C 
ATOM     18  C   UNL     1      -3.677  -0.726  -2.765  0.00  0.00    +0.137 C 
BRANCH  18  19
ATOM     19  S   UNL     1      -2.441  -0.610  -1.449  0.00  0.00    -0.072 S 
BRANCH  19  20
ATOM     20  C   UNL     1      -1.730   0.956  -1.834  0.00  0.00    +0.210 A 
ATOM     21  N   UNL     1      -2.076   1.749  -2.825  0.00  0.00    -0.101 NA
ATOM     22  N   UNL     1      -1.354   2.811  -2.824  0.00  0.00    -0.022 NA
ATOM     23  N   UNL     1      -0.512   2.780  -1.849  0.00  0.00    -0.043 NA
ATOM     24  N   UNL     1      -0.728   1.572  -1.163  0.00  0.00    -0.215 N 
BRANCH  24  25
ATOM     25  C   UNL     1      -0.016   1.080   0.019  0.00  0.00    +0.190 C 
BRANCH  25  26
ATOM     26  C   UNL     1      -0.720   1.556   1.263  0.00  0.00    +0.011 A 
ATOM     27  C   UNL     1      -1.713   0.956   1.964  0.00  0.00    +0.013 A 
ATOM     28  C   UNL     1      -2.213   1.584   3.090  0.00  0.00    +0.008 A 
ATOM     29  C   UNL     1      -1.696   2.781   3.459  0.00  0.00    +0.045 A 
ATOM     30  S   UNL     1      -0.458   3.053   2.201  0.00  0.00    -0.100 S 
ENDBRANCH  25  26
ENDBRANCH  24  25
ENDBRANCH  19  20
ENDBRANCH  18  19
ENDBRANCH   1  18
TORSDOF 8
