REMARK  Name = ZINC16469028
REMARK  10 active torsions:
REMARK  status: ('A' for Active; 'I' for Inactive)
REMARK    1  A    between atoms: C_1  and  C_2
REMARK    2  A    between atoms: C_2  and  C_3
REMARK    3  A    between atoms: C_3  and  N_4
REMARK    4  A    between atoms: N_4  and  C_5
REMARK    5  A    between atoms: C_6  and  N_21
REMARK    6  A    between atoms: N_7  and  C_14
REMARK    7  A    between atoms: C_14  and  C_15
REMARK    8  A    between atoms: C_22  and  C_24
REMARK    9  A    between atoms: C_27  and  C_30
REMARK   10  A    between atoms: C_31  and  C_32
REMARK                            x       y       z     vdW  Elec       q    Type
REMARK                         _______ _______ _______ _____ _____    ______ ____
ROOT
ATOM      1  N   UNL     1       9.420  -5.361   0.148  0.00  0.00    -0.260 N 
ATOM      2  C   UNL     1       9.123  -4.089  -0.185  0.00  0.00    +0.251 C 
ATOM      3  O   UNL     1       7.965  -3.718  -0.198  0.00  0.00    -0.270 OA
ENDROOT
BRANCH   1   4
ATOM      4  C   UNL     1      10.766  -5.772   0.233  0.00  0.00    +0.140 A 
ATOM      5  C   UNL     1      11.616  -5.204   1.160  0.00  0.00    +0.128 A 
ATOM      6  N   UNL     1      12.923  -5.629   1.221  0.00  0.00    -0.276 N 
ATOM      7  C   UNL     1      13.370  -6.581   0.381  0.00  0.00    +0.331 A 
ATOM      8  O   UNL     1      14.530  -6.939   0.449  0.00  0.00    -0.246 OA
ATOM      9  N   UNL     1      12.557  -7.141  -0.532  0.00  0.00    -0.273 N 
ATOM     10  H   UNL     1      12.915  -7.846  -1.145  0.00  0.00    +0.173 HD
ATOM     11  C   UNL     1      11.267  -6.764  -0.631  0.00  0.00    +0.277 A 
ATOM     12  O   UNL     1      10.539  -7.280  -1.462  0.00  0.00    -0.266 OA
BRANCH   5  13
ATOM     13  N   UNL     1      11.161  -4.229   2.015  0.00  0.00    -0.343 N 
ATOM     14  H   UNL     1      10.223  -3.982   2.013  0.00  0.00    +0.144 HD
ATOM     15  H   UNL     1      11.778  -3.788   2.619  0.00  0.00    +0.144 HD
ENDBRANCH   5  13
BRANCH   6  16
ATOM     16  C   UNL     1      13.835  -5.039   2.204  0.00  0.00    +0.163 C 
BRANCH  16  17
ATOM     17  C   UNL     1      14.498  -3.824   1.607  0.00  0.00    -0.028 A 
ATOM     18  C   UNL     1      15.626  -3.967   0.821  0.00  0.00    +0.005 A 
ATOM     19  C   UNL     1      16.230  -2.853   0.270  0.00  0.00    +0.000 A 
ATOM     20  C   UNL     1      15.713  -1.594   0.513  0.00  0.00    +0.000 A 
ATOM     21  C   UNL     1      14.588  -1.450   1.303  0.00  0.00    +0.000 A 
ATOM     22  C   UNL     1      13.980  -2.565   1.850  0.00  0.00    +0.005 A 
ENDBRANCH  16  17
ENDBRANCH   6  16
ENDBRANCH   1   4
BRANCH   2  23
ATOM     23  C   UNL     1      10.204  -3.147  -0.534  0.00  0.00    +0.037 A 
ATOM     24  C   UNL     1       9.998  -1.770  -0.410  0.00  0.00    +0.014 A 
ATOM     25  C   UNL     1      10.997  -0.897  -0.732  0.00  0.00    +0.017 A 
ATOM     26  C   UNL     1      12.229  -1.381  -1.188  0.00  0.00    +0.025 A 
ATOM     27  C   UNL     1      12.433  -2.760  -1.318  0.00  0.00    +0.017 A 
ATOM     28  C   UNL     1      11.434  -3.631  -0.989  0.00  0.00    +0.014 A 
BRANCH  26  29
ATOM     29  C   UNL     1      13.277  -0.467  -1.526  0.00  0.00    -0.061 C 
ATOM     30  C   UNL     1      14.137   0.283  -1.803  0.00  0.00    -0.061 C 
BRANCH  30  31
ATOM     31  C   UNL     1      15.186   1.197  -2.142  0.00  0.00    +0.025 A 
ATOM     32  C   UNL     1      16.417   0.717  -2.597  0.00  0.00    +0.017 A 
ATOM     33  C   UNL     1      17.422   1.604  -2.921  0.00  0.00    +0.001 A 
ATOM     34  C   UNL     1      17.214   2.966  -2.797  0.00  0.00    +0.000 A 
ATOM     35  C   UNL     1      15.998   3.449  -2.347  0.00  0.00    +0.001 A 
ATOM     36  C   UNL     1      14.983   2.575  -2.019  0.00  0.00    +0.017 A 
ENDBRANCH  30  31
ENDBRANCH  26  29
ENDBRANCH   2  23
BRANCH   1  37
ATOM     37  C   UNL     1       8.344  -6.317   0.422  0.00  0.00    +0.114 C 
BRANCH  37  39
ATOM     38  C   UNL     1       6.638  -7.817  -0.618  0.00  0.00    +0.005 C 
ATOM     39  C   UNL     1       7.819  -6.886  -0.898  0.00  0.00    +0.016 C 
ENDBRANCH  37  39
ENDBRANCH   1  37
TORSDOF 9
