REMARK  Name = ZINC20905381
REMARK  9 active torsions:
REMARK  status: ('A' for Active; 'I' for Inactive)
REMARK    1  A    between atoms: C_1  and  C_2
REMARK    2  A    between atoms: C_2  and  S_3
REMARK    3  A    between atoms: S_3  and  C_4
REMARK    4  A    between atoms: C_9  and  N_13
REMARK    5  A    between atoms: C_14  and  C_16
REMARK    6  A    between atoms: C_16  and  S_17
REMARK    7  A    between atoms: S_17  and  C_18
REMARK    8  A    between atoms: N_23  and  N_24
REMARK    9  A    between atoms: C_25  and  C_26
REMARK                            x       y       z     vdW  Elec       q    Type
REMARK                         _______ _______ _______ _____ _____    ______ ____
ROOT
ATOM      1  C   UNL     1       0.794   2.206   0.211  0.00  0.00    +0.211 A 
ATOM      2  N   UNL     1      -0.432   1.625   0.375  0.00  0.00    -0.186 NA
ATOM      3  C   UNL     1      -0.273   0.270   0.288  0.00  0.00    +0.232 A 
ATOM      4  N   UNL     1       0.998   0.024   0.080  0.00  0.00    -0.245 N 
ATOM      5  N   UNL     1       1.674   1.250   0.031  0.00  0.00    -0.144 NA
ATOM      6  N   UNL     1      -1.279  -0.678   0.402  0.00  0.00    -0.205 N 
ATOM      7  H   UNL     1      -2.317  -0.360   0.578  0.00  0.00    +0.177 HD
ATOM      8  H   UNL     1       1.348  -1.014  -0.021  0.00  0.00    +0.192 HD
ENDROOT
BRANCH   6   9
ATOM      9  N   UNL     1      -0.973  -2.041   0.292  0.00  0.00    -0.188 NA
ATOM     10  C   UNL     1      -1.917  -2.929   0.399  0.00  0.00    +0.139 C 
BRANCH  10  11
ATOM     11  C   UNL     1      -1.596  -4.360   0.284  0.00  0.00    +0.002 A 
ATOM     12  C   UNL     1      -2.605  -5.316   0.283  0.00  0.00    +0.010 A 
ATOM     13  C   UNL     1      -2.299  -6.665   0.167  0.00  0.00    +0.001 A 
ATOM     14  C   UNL     1      -1.015  -7.104   0.065  0.00  0.00    +0.008 A 
ATOM     15  C   UNL     1       0.056  -6.194   0.065  0.00  0.00    -0.017 A 
ATOM     16  C   UNL     1      -0.208  -4.807   0.173  0.00  0.00    -0.009 A 
ATOM     17  C   UNL     1       0.856  -3.897   0.173  0.00  0.00    +0.009 A 
ATOM     18  C   UNL     1       2.135  -4.357   0.068  0.00  0.00    +0.001 A 
ATOM     19  C   UNL     1       2.399  -5.721  -0.039  0.00  0.00    +0.001 A 
ATOM     20  C   UNL     1       1.387  -6.632  -0.042  0.00  0.00    +0.008 A 
ENDBRANCH  10  11
ENDBRANCH   6   9
BRANCH   1  21
ATOM     21  S   UNL     1       1.133   3.934   0.237  0.00  0.00    -0.075 S 
BRANCH  21  22
ATOM     22  C   UNL     1       2.921   3.908  -0.041  0.00  0.00    +0.173 C 
BRANCH  22  24
ATOM     23  N   UNL     1       4.762   5.547  -0.252  0.00  0.00    -0.285 N 
ATOM     24  C   UNL     1       3.447   5.320  -0.059  0.00  0.00    +0.227 C 
ATOM     25  O   UNL     1       2.688   6.253   0.101  0.00  0.00    -0.275 OA
ATOM     26  H   UNL     1       5.463   4.702  -0.310  0.00  0.00    +0.155 HD
BRANCH  23  32
ATOM     27  C   UNL     1       5.721  11.654  -1.377  0.00  0.00    +0.136 A 
ATOM     28  N   UNL     1       6.536  10.795  -0.809  0.00  0.00    -0.233 NA
ATOM     29  C   UNL     1       6.208   9.496  -0.624  0.00  0.00    +0.080 A 
ATOM     30  C   UNL     1       6.988   8.476  -0.031  0.00  0.00    +0.031 A 
ATOM     31  C   UNL     1       6.505   7.199   0.082  0.00  0.00    +0.025 A 
ATOM     32  C   UNL     1       5.235   6.860  -0.379  0.00  0.00    +0.035 A 
ATOM     33  C   UNL     1       4.446   7.837  -0.972  0.00  0.00    +0.040 A 
ATOM     34  C   UNL     1       4.926   9.118  -1.082  0.00  0.00    +0.042 A 
ATOM     35  S   UNL     1       4.292  10.643  -1.738  0.00  0.00    -0.061 S 
BRANCH  27  36
ATOM     36  S   UNL     1       5.972  13.368  -1.700  0.00  0.00    -0.099 S 
BRANCH  36  38
ATOM     37  C   UNL     1       8.085  15.027  -1.205  0.00  0.00    +0.016 C 
ATOM     38  C   UNL     1       7.641  13.573  -1.031  0.00  0.00    +0.073 C 
ENDBRANCH  36  38
ENDBRANCH  27  36
ENDBRANCH  23  32
ENDBRANCH  22  24
ENDBRANCH  21  22
ENDBRANCH   1  21
TORSDOF 8
