REMARK  Name = ZINC65313504
REMARK  4 active torsions:
REMARK  status: ('A' for Active; 'I' for Inactive)
REMARK    1  A    between atoms: C_1  and  C_2
REMARK    2  A    between atoms: C_5  and  N_8
REMARK    3  A    between atoms: C_9  and  C_11
REMARK    4  A    between atoms: N_16  and  C_18
REMARK                            x       y       z     vdW  Elec       q    Type
REMARK                         _______ _______ _______ _____ _____    ______ ____
ROOT
ATOM      1  C   UNL     1      -0.517  -6.248   2.349  0.00  0.00    +0.092 C 
ATOM      2  C   UNL     1       0.685  -6.734   1.536  0.00  0.00    +0.016 C 
ATOM      3  C   UNL     1       0.711  -8.265   1.525  0.00  0.00    +0.020 C 
ATOM      4  C   UNL     1       0.858  -8.779   2.960  0.00  0.00    +0.105 C 
ATOM      5  N   UNL     1      -0.212  -8.199   3.783  0.00  0.00    -0.328 N 
ATOM      6  C   UNL     1      -0.384  -6.740   3.793  0.00  0.00    +0.118 C 
ENDROOT
BRANCH   5   7
ATOM      7  C   UNL     1      -1.044  -9.012   4.532  0.00  0.00    +0.055 A 
ATOM      8  C   UNL     1      -1.983  -8.444   5.421  0.00  0.00    +0.156 A 
ATOM      9  N   UNL     1      -2.768  -9.208   6.128  0.00  0.00    -0.178 NA
ATOM     10  N   UNL     1      -2.700 -10.601   6.026  0.00  0.00    -0.243 N 
ATOM     11  C   UNL     1      -1.819 -11.185   5.190  0.00  0.00    +0.266 A 
ATOM     12  O   UNL     1      -1.766 -12.403   5.106  0.00  0.00    -0.266 OA
ATOM     13  C   UNL     1      -0.967 -10.387   4.414  0.00  0.00    +0.096 A 
ATOM     14  H   UNL     1      -3.293 -11.152   6.561  0.00  0.00    +0.192 HD
ENDBRANCH   5   7
BRANCH   1  16
ATOM     15  N   UNL     1      -0.672  -4.084   1.161  0.00  0.00    -0.312 N 
ATOM     16  C   UNL     1      -0.559  -4.742   2.332  0.00  0.00    +0.218 C 
ATOM     17  O   UNL     1      -0.492  -4.122   3.372  0.00  0.00    -0.275 OA
ATOM     18  H   UNL     1      -0.727  -4.580   0.329  0.00  0.00    +0.149 HD
BRANCH  15  23
ATOM     19  C   UNL     1      -0.100   1.465  -0.146  0.00  0.00    +0.007 C 
ATOM     20  C   UNL     1      -0.057  -0.064  -0.129  0.00  0.00    -0.014 C 
ATOM     21  C   UNL     1      -1.484  -0.615  -0.132  0.00  0.00    +0.005 C 
ATOM     22  C   UNL     1      -1.441  -2.144  -0.115  0.00  0.00    +0.022 C 
ATOM     23  C   UNL     1      -0.714  -2.620   1.144  0.00  0.00    +0.073 C 
ATOM     24  C   UNL     1       0.714  -2.069   1.148  0.00  0.00    +0.022 C 
ATOM     25  C   UNL     1       0.670  -0.540   1.130  0.00  0.00    +0.005 C 
ENDBRANCH  15  23
ENDBRANCH   1  16
TORSDOF 3
