REMARK  Name = ZINC36500744
REMARK  13 active torsions:
REMARK  status: ('A' for Active; 'I' for Inactive)
REMARK    1  A    between atoms: C_1  and  C_2
REMARK    2  A    between atoms: C_2  and  C_3
REMARK    3  A    between atoms: C_2  and  C_4
REMARK    4  A    between atoms: C_2  and  N_5
REMARK    5  A    between atoms: C_6  and  C_8
REMARK    6  A    between atoms: C_8  and  C_10
REMARK    7  A    between atoms: C_8  and  N_20
REMARK    8  A    between atoms: C_13  and  C_16
REMARK    9  A    between atoms: N_20  and  C_21
REMARK   10  A    between atoms: C_21  and  C_22
REMARK   11  A    between atoms: C_27  and  C_29
REMARK   12  A    between atoms: C_33  and  O_36
REMARK   13  A    between atoms: C_34  and  O_35
REMARK                            x       y       z     vdW  Elec       q    Type
REMARK                         _______ _______ _______ _____ _____    ______ ____
ROOT
ATOM      1  C   UNL     1       5.885  -0.371  -4.746  0.00  0.00    +0.193 C 
ENDROOT
BRANCH   1   2
ATOM      2  C   UNL     1       6.809   0.758  -4.366  0.00  0.00    -0.018 A 
ATOM      3  C   UNL     1       6.292   1.928  -3.842  0.00  0.00    +0.006 A 
ATOM      4  C   UNL     1       7.139   2.963  -3.494  0.00  0.00    +0.013 A 
ATOM      5  C   UNL     1       8.503   2.828  -3.668  0.00  0.00    +0.055 A 
ATOM      6  C   UNL     1       9.021   1.657  -4.192  0.00  0.00    +0.013 A 
ATOM      7  C   UNL     1       8.174   0.621  -4.536  0.00  0.00    +0.006 A 
BRANCH   5   8
ATOM      8  C   UNL     1       9.427   3.957  -3.289  0.00  0.00    +0.417 C 
ATOM      9  F   UNL     1       9.820   3.809  -1.954  0.00  0.00    -0.166 F 
ATOM     10  F   UNL     1      10.557   3.931  -4.113  0.00  0.00    -0.166 F 
ATOM     11  F   UNL     1       8.761   5.177  -3.448  0.00  0.00    -0.166 F 
ENDBRANCH   5   8
ENDBRANCH   1   2
BRANCH   1  13
ATOM     12  N   UNL     1       7.547  -1.586  -6.117  0.00  0.00    -0.309 N 
ATOM     13  C   UNL     1       6.345  -0.981  -6.045  0.00  0.00    +0.239 C 
ATOM     14  O   UNL     1       5.634  -0.927  -7.026  0.00  0.00    -0.273 OA
ATOM     15  H   UNL     1       8.116  -1.629  -5.333  0.00  0.00    +0.149 HD
BRANCH  12  17
ATOM     16  C   UNL     1       8.062  -1.094  -8.457  0.00  0.00    +0.031 C 
ATOM     17  C   UNL     1       7.995  -2.179  -7.380  0.00  0.00    +0.026 C 
ATOM     18  C   UNL     1       7.007  -3.265  -7.811  0.00  0.00    +0.031 C 
ATOM     19  C   UNL     1       9.382  -2.796  -7.191  0.00  0.00    +0.031 C 
ENDBRANCH  12  17
ENDBRANCH   1  13
BRANCH   1  20
ATOM     20  N   UNL     1       4.523   0.145  -4.904  0.00  0.00    -0.275 N 
ATOM     21  C   UNL     1       3.509  -0.407  -4.210  0.00  0.00    +0.252 C 
ATOM     22  O   UNL     1       2.358  -0.188  -4.536  0.00  0.00    -0.270 OA
BRANCH  21  23
ATOM     23  C   UNL     1       3.794  -1.278  -3.053  0.00  0.00    +0.082 A 
ATOM     24  C   UNL     1       4.885  -1.006  -2.222  0.00  0.00    +0.017 A 
ATOM     25  C   UNL     1       5.148  -1.821  -1.143  0.00  0.00    +0.005 A 
ATOM     26  C   UNL     1       4.336  -2.911  -0.875  0.00  0.00    +0.049 A 
ATOM     27  C   UNL     1       3.253  -3.193  -1.689  0.00  0.00    +0.159 A 
ATOM     28  C   UNL     1       2.971  -2.376  -2.780  0.00  0.00    +0.171 A 
BRANCH  28  29
ATOM     29  O   UNL     1       1.906  -2.646  -3.577  0.00  0.00    -0.503 OA
ATOM     30  H   UNL     1       2.108  -3.234  -4.318  0.00  0.00    +0.292 HD
ENDBRANCH  28  29
BRANCH  27  31
ATOM     31  O   UNL     1       2.461  -4.266  -1.420  0.00  0.00    -0.503 OA
ATOM     32  H   UNL     1       1.718  -4.069  -0.834  0.00  0.00    +0.292 HD
ENDBRANCH  27  31
ENDBRANCH  21  23
BRANCH  20  33
ATOM     33  C   UNL     1       4.264   1.261  -5.817  0.00  0.00    +0.183 C 
BRANCH  33  34
ATOM     34  C   UNL     1       3.127   0.902  -6.739  0.00  0.00    +0.122 A 
ATOM     35  C   UNL     1       1.828   1.181  -6.531  0.00  0.00    +0.046 A 
ATOM     36  C   UNL     1       1.116   0.666  -7.639  0.00  0.00    +0.041 A 
ATOM     37  C   UNL     1       2.023   0.104  -8.458  0.00  0.00    +0.195 A 
ATOM     38  O   UNL     1       3.240   0.255  -7.911  0.00  0.00    -0.466 OA
ENDBRANCH  33  34
ENDBRANCH  20  33
ENDBRANCH   1  20
TORSDOF 10
