REMARK  Name = ZINC10255975
REMARK  3 active torsions:
REMARK  status: ('A' for Active; 'I' for Inactive)
REMARK    1  A    between atoms: C_1  and  N_2
REMARK    2  A    between atoms: C_3  and  C_5
REMARK    3  A    between atoms: C_15  and  C_17
REMARK                            x       y       z     vdW  Elec       q    Type
REMARK                         _______ _______ _______ _____ _____    ______ ____
ROOT
ATOM      1  C   UNL     1      -0.734   1.727  -1.192  0.00  0.00    +0.172 C 
ATOM      2  C   UNL     1       0.060   1.205   0.017  0.00  0.00    +0.069 C 
ATOM      3  C   UNL     1      -0.744   1.641   1.221  0.00  0.00    -0.024 A 
ATOM      4  C   UNL     1      -0.529   1.459   2.571  0.00  0.00    +0.005 A 
ATOM      5  C   UNL     1      -1.427   1.962   3.493  0.00  0.00    +0.000 A 
ATOM      6  C   UNL     1      -2.547   2.648   3.059  0.00  0.00    +0.002 A 
ATOM      7  C   UNL     1      -2.768   2.833   1.711  0.00  0.00    +0.024 A 
ATOM      8  C   UNL     1      -1.865   2.328   0.774  0.00  0.00    +0.041 A 
ATOM      9  N   UNL     1      -1.901   2.404  -0.621  0.00  0.00    -0.252 N 
ATOM     10  C   UNL     1      -2.869   3.011  -1.337  0.00  0.00    +0.287 C 
ATOM     11  O   UNL     1      -3.826   3.505  -0.770  0.00  0.00    -0.266 OA
ENDROOT
BRANCH  10  12
ATOM     12  C   UNL     1      -2.768   3.076  -2.801  0.00  0.00    +0.191 A 
ATOM     13  C   UNL     1      -3.611   3.766  -3.613  0.00  0.00    +0.063 A 
ATOM     14  C   UNL     1      -3.130   3.548  -4.976  0.00  0.00    +0.021 A 
ATOM     15  C   UNL     1      -3.549   3.977  -6.238  0.00  0.00    +0.011 A 
ATOM     16  C   UNL     1      -2.865   3.579  -7.351  0.00  0.00    +0.001 A 
ATOM     17  C   UNL     1      -1.756   2.752  -7.236  0.00  0.00    +0.004 A 
ATOM     18  C   UNL     1      -1.326   2.317  -6.002  0.00  0.00    +0.047 A 
ATOM     19  C   UNL     1      -2.006   2.709  -4.854  0.00  0.00    +0.136 A 
ATOM     20  O   UNL     1      -1.829   2.454  -3.543  0.00  0.00    -0.450 OA
ENDBRANCH  10  12
BRANCH   1  23
ATOM     21  C   UNL     1       2.065   3.242  -3.319  0.00  0.00    +0.128 C 
ATOM     22  N   UNL     1       1.254   2.296  -2.549  0.00  0.00    -0.317 N 
ATOM     23  C   UNL     1       0.100   2.701  -1.984  0.00  0.00    +0.234 C 
ATOM     24  O   UNL     1      -0.268   3.849  -2.112  0.00  0.00    -0.274 OA
ATOM     25  H   UNL     1       1.548   1.377  -2.446  0.00  0.00    +0.148 HD
ENDBRANCH   1  23
TORSDOF 2
