REMARK  Name = ZINC22034294
REMARK  8 active torsions:
REMARK  status: ('A' for Active; 'I' for Inactive)
REMARK    1  A    between atoms: C_1  and  C_2
REMARK    2  A    between atoms: C_3  and  C_32
REMARK    3  A    between atoms: N_9  and  C_27
REMARK    4  A    between atoms: C_10  and  S_12
REMARK    5  A    between atoms: S_12  and  C_13
REMARK    6  A    between atoms: C_13  and  C_14
REMARK    7  A    between atoms: N_16  and  C_17
REMARK    8  A    between atoms: C_21  and  N_23
REMARK                            x       y       z     vdW  Elec       q    Type
REMARK                         _______ _______ _______ _____ _____    ______ ____
ROOT
ATOM      1  C   UNL     1      -3.152  -0.157   0.398  0.00  0.00    +0.045 C 
ATOM      2  C   UNL     1      -2.826   1.307   0.249  0.00  0.00    -0.026 A 
ATOM      3  C   UNL     1      -3.804   2.224   0.265  0.00  0.00    -0.008 A 
ATOM      4  S   UNL     1      -2.931   3.765   0.060  0.00  0.00    -0.073 S 
ATOM      5  C   UNL     1      -1.276   3.131  -0.040  0.00  0.00    +0.117 A 
ATOM      6  C   UNL     1      -1.450   1.740   0.083  0.00  0.00    +0.075 A 
ATOM      7  C   UNL     1      -0.253   0.957   0.043  0.00  0.00    +0.263 A 
ATOM      8  O   UNL     1      -0.305  -0.256   0.146  0.00  0.00    -0.267 OA
ATOM      9  N   UNL     1       0.930   1.577  -0.116  0.00  0.00    -0.284 N 
ATOM     10  C   UNL     1       1.008   2.935  -0.233  0.00  0.00    +0.173 A 
ATOM     11  N   UNL     1      -0.077   3.681  -0.194  0.00  0.00    -0.216 NA
ATOM     12  C   UNL     1      -5.288   2.006   0.418  0.00  0.00    +0.052 C 
ENDROOT
BRANCH   9  13
ATOM     13  C   UNL     1       2.159   0.780  -0.164  0.00  0.00    +0.093 C 
ATOM     14  C   UNL     1       2.093  -0.221  -1.336  0.00  0.00    +0.025 C 
ATOM     15  C   UNL     1       2.786  -1.494  -0.786  0.00  0.00    +0.002 C 
ATOM     16  C   UNL     1       2.310  -1.534   0.687  0.00  0.00    +0.002 C 
ATOM     17  C   UNL     1       2.297  -0.053   1.121  0.00  0.00    +0.025 C 
ENDBRANCH   9  13
BRANCH  10  18
ATOM     18  S   UNL     1       2.582   3.701  -0.440  0.00  0.00    -0.078 S 
BRANCH  18  19
ATOM     19  C   UNL     1       2.076   5.436  -0.533  0.00  0.00    +0.173 C 
BRANCH  19  20
ATOM     20  C   UNL     1       3.295   6.305  -0.716  0.00  0.00    +0.227 C 
ATOM     21  O   UNL     1       4.396   5.800  -0.776  0.00  0.00    -0.275 OA
ATOM     22  N   UNL     1       3.160   7.643  -0.811  0.00  0.00    -0.285 N 
ATOM     23  H   UNL     1       2.172   8.107  -0.674  0.00  0.00    +0.155 HD
BRANCH  22  24
ATOM     24  C   UNL     1       4.278   8.441  -1.084  0.00  0.00    +0.036 A 
ATOM     25  C   UNL     1       4.369   9.717  -0.544  0.00  0.00    +0.026 A 
ATOM     26  C   UNL     1       5.475  10.500  -0.810  0.00  0.00    +0.042 A 
ATOM     27  C   UNL     1       6.487  10.018  -1.624  0.00  0.00    +0.154 A 
ATOM     28  C   UNL     1       6.395   8.749  -2.168  0.00  0.00    +0.163 A 
ATOM     29  C   UNL     1       5.293   7.960  -1.900  0.00  0.00    +0.059 A 
ATOM     30  F   UNL     1       7.565  10.789  -1.888  0.00  0.00    -0.203 F 
BRANCH  28  31
ATOM     31  N   UNL     1       7.478   8.236  -3.037  0.00  0.00    +0.059 N 
ATOM     32  O   UNL     1       7.397   7.119  -3.515  0.00  0.00    -0.126 OA
ATOM     33  O   UNL     1       8.449   8.931  -3.274  0.00  0.00    -0.126 OA
ENDBRANCH  28  31
ENDBRANCH  22  24
ENDBRANCH  19  20
ENDBRANCH  18  19
ENDBRANCH  10  18
TORSDOF 6
