REMARK  Name = ZINC16495873
REMARK  12 active torsions:
REMARK  status: ('A' for Active; 'I' for Inactive)
REMARK    1  A    between atoms: C_1  and  C_2
REMARK    2  A    between atoms: C_2  and  C_3
REMARK    3  A    between atoms: C_3  and  C_4
REMARK    4  A    between atoms: C_4  and  C_5
REMARK    5  A    between atoms: C_5  and  C_6
REMARK    6  A    between atoms: C_6  and  C_7
REMARK    7  A    between atoms: C_10  and  C_13
REMARK    8  A    between atoms: C_21  and  C_25
REMARK    9  A    between atoms: N_27  and  C_28
REMARK   10  A    between atoms: C_28  and  C_30
REMARK   11  A    between atoms: C_28  and  C_31
REMARK   12  A    between atoms: C_31  and  C_32
REMARK                            x       y       z     vdW  Elec       q    Type
REMARK                         _______ _______ _______ _____ _____    ______ ____
ROOT
ATOM      1  C   UNL     1      -2.583  -1.685  -8.861  0.00  0.00    +0.247 C 
ATOM      2  O   UNL     1      -3.028  -2.815  -8.903  0.00  0.00    -0.270 OA
ATOM      3  N   UNL     1      -1.371  -1.458  -8.318  0.00  0.00    -0.298 N 
ATOM      4  C   UNL     1      -0.765  -0.121  -8.373  0.00  0.00    +0.107 C 
ATOM      5  C   UNL     1       0.628  -0.238  -9.004  0.00  0.00    +0.017 C 
ATOM      6  C   UNL     1       1.438  -1.286  -8.254  0.00  0.00    -0.016 C 
ATOM      7  C   UNL     1       0.760  -2.648  -8.293  0.00  0.00    +0.017 C 
ATOM      8  C   UNL     1      -0.632  -2.544  -7.659  0.00  0.00    +0.107 C 
ATOM      9  C   UNL     1       3.113  -0.811  -6.476  0.00  0.00    +0.028 C 
ATOM     10  C   UNL     1       4.013  -0.448  -7.694  0.00  0.00    +0.061 C 
ATOM     11  S   UNL     1       3.116  -1.412  -8.994  0.00  0.00    -0.174 S 
ATOM     12  N   UNL     1       1.668  -0.851  -6.841  0.00  0.00    +0.397 N 
ATOM     13  H   UNL     1       1.190  -1.507  -6.214  0.00  0.00    -0.083 HD
ATOM     14  H   UNL     1       1.273   0.089  -6.720  0.00  0.00    -0.083 HD
ENDROOT
BRANCH   1  18
ATOM     15  C   UNL     1      -4.847   1.549 -10.428  0.00  0.00    -0.047 A 
ATOM     16  C   UNL     1      -4.883   0.316 -11.054  0.00  0.00    +0.004 A 
ATOM     17  C   UNL     1      -4.150  -0.739 -10.551  0.00  0.00    +0.013 A 
ATOM     18  C   UNL     1      -3.371  -0.559  -9.407  0.00  0.00    +0.037 A 
ATOM     19  C   UNL     1      -3.343   0.686  -8.776  0.00  0.00    +0.013 A 
ATOM     20  C   UNL     1      -4.077   1.733  -9.293  0.00  0.00    +0.004 A 
BRANCH  15  21
ATOM     21  C   UNL     1      -5.651   2.696 -10.983  0.00  0.00    +0.035 C 
BRANCH  21  22
ATOM     22  C   UNL     1      -7.043   2.699 -10.349  0.00  0.00    +0.005 C 
BRANCH  22  23
ATOM     23  C   UNL     1      -7.859   3.864 -10.913  0.00  0.00    +0.000 C 
BRANCH  23  24
ATOM     24  C   UNL     1      -9.251   3.866 -10.279  0.00  0.00    -0.000 C 
BRANCH  24  26
ATOM     25  C   UNL     1     -11.459   5.033 -10.209  0.00  0.00    +0.004 C 
ATOM     26  C   UNL     1     -10.067   5.031 -10.843  0.00  0.00    -0.003 C 
ENDBRANCH  24  26
ENDBRANCH  23  24
ENDBRANCH  22  23
ENDBRANCH  21  22
ENDBRANCH  15  21
ENDBRANCH   1  18
BRANCH   9  27
ATOM     27  C   UNL     1       3.291   0.230  -5.400  0.00  0.00    +0.200 C 
ATOM     28  O   UNL     1       2.340   0.879  -5.022  0.00  0.00    -0.278 OA
ATOM     29  N   UNL     1       4.508   0.438  -4.859  0.00  0.00    -0.314 N 
ATOM     30  H   UNL     1       5.269  -0.082  -5.162  0.00  0.00    +0.149 HD
BRANCH  29  31
ATOM     31  C   UNL     1       4.681   1.450  -3.813  0.00  0.00    +0.070 C 
ATOM     32  C   UNL     1       4.895   2.820  -4.460  0.00  0.00    +0.028 C 
BRANCH  31  33
ATOM     33  C   UNL     1       5.897   1.094  -2.956  0.00  0.00    +0.018 C 
ATOM     34  C   UNL     1       5.630  -0.216  -2.212  0.00  0.00    +0.005 C 
ENDBRANCH  31  33
ENDBRANCH  29  31
ENDBRANCH   9  27
TORSDOF 9
