REMARK  Name = ZINC60106567
REMARK  14 active torsions:
REMARK  status: ('A' for Active; 'I' for Inactive)
REMARK    1  A    between atoms: C_1  and  C_2
REMARK    2  A    between atoms: C_2  and  C_3
REMARK    3  A    between atoms: C_3  and  C_4
REMARK    4  A    between atoms: C_4  and  C_5
REMARK    5  A    between atoms: C_5  and  C_7
REMARK    6  A    between atoms: C_5  and  N_30
REMARK    7  A    between atoms: N_12  and  S_15
REMARK    8  A    between atoms: S_15  and  C_18
REMARK    9  A    between atoms: C_19  and  C_29
REMARK   10  A    between atoms: C_21  and  C_25
REMARK   11  A    between atoms: C_23  and  C_24
REMARK   12  A    between atoms: C_25  and  C_26
REMARK   13  A    between atoms: C_25  and  C_27
REMARK   14  A    between atoms: C_25  and  C_28
REMARK                            x       y       z     vdW  Elec       q    Type
REMARK                         _______ _______ _______ _____ _____    ______ ____
ROOT
ATOM      1  C   UNL     1      -2.792  -2.724  -1.068  0.00  0.00    +0.236 C 
ATOM      2  O   UNL     1      -2.752  -2.960   0.121  0.00  0.00    -0.274 OA
ATOM      3  N   UNL     1      -2.633  -3.723  -1.959  0.00  0.00    -0.297 N 
ATOM      4  C   UNL     1      -2.673  -3.451  -3.403  0.00  0.00    +0.125 C 
ATOM      5  C   UNL     1      -1.380  -3.978  -4.037  0.00  0.00    +0.128 C 
ATOM      6  N   UNL     1      -1.163  -5.359  -3.582  0.00  0.00    -0.174 NA
ATOM      7  C   UNL     1      -1.123  -5.631  -2.138  0.00  0.00    +0.128 C 
ATOM      8  C   UNL     1      -2.411  -5.103  -1.504  0.00  0.00    +0.125 C 
ENDROOT
BRANCH   6   9
ATOM      9  S   UNL     1      -0.968  -6.586  -4.676  0.00  0.00    +0.061 S 
ATOM     10  O   UNL     1      -1.337  -7.786  -4.011  0.00  0.00    -0.153 OA
ATOM     11  O   UNL     1      -1.590  -6.159  -5.880  0.00  0.00    -0.153 OA
BRANCH   9  12
ATOM     12  C   UNL     1       0.757  -6.710  -5.018  0.00  0.00    +0.111 A 
ATOM     13  C   UNL     1       1.519  -7.674  -4.385  0.00  0.00    -0.024 A 
ATOM     14  C   UNL     1       2.872  -7.771  -4.653  0.00  0.00    +0.009 A 
ATOM     15  C   UNL     1       3.462  -6.905  -5.554  0.00  0.00    -0.041 A 
ATOM     16  C   UNL     1       2.699  -5.941  -6.187  0.00  0.00    +0.009 A 
ATOM     17  C   UNL     1       1.346  -5.847  -5.923  0.00  0.00    -0.024 A 
ATOM     18  C   UNL     1       0.513  -4.800  -6.617  0.00  0.00    +0.046 C 
ATOM     19  C   UNL     1       0.875  -8.619  -3.403  0.00  0.00    +0.046 C 
BRANCH  15  20
ATOM     20  C   UNL     1       4.937  -7.010  -5.845  0.00  0.00    -0.013 C 
ATOM     21  C   UNL     1       5.247  -8.398  -6.410  0.00  0.00    +0.015 C 
ATOM     22  C   UNL     1       5.332  -5.943  -6.868  0.00  0.00    +0.015 C 
ATOM     23  C   UNL     1       5.728  -6.796  -4.554  0.00  0.00    +0.015 C 
ENDBRANCH  15  20
ENDBRANCH   9  12
ENDBRANCH   6   9
BRANCH   1  24
ATOM     24  C   UNL     1      -3.019  -1.314  -1.549  0.00  0.00    +0.160 C 
BRANCH  24  25
ATOM     25  N   UNL     1      -3.623  -0.523  -0.474  0.00  0.00    -0.288 N 
ATOM     26  C   UNL     1      -2.972  -0.367   0.695  0.00  0.00    +0.298 C 
ATOM     27  O   UNL     1      -1.883  -0.883   0.858  0.00  0.00    -0.253 OA
ATOM     28  N   UNL     1      -3.527   0.361   1.684  0.00  0.00    -0.313 N 
ATOM     29  H   UNL     1      -4.492  -0.111  -0.605  0.00  0.00    +0.151 HD
ATOM     30  H   UNL     1      -4.396   0.773   1.554  0.00  0.00    +0.146 HD
ATOM     31  H   UNL     1      -3.059   0.474   2.525  0.00  0.00    +0.146 HD
ENDBRANCH  24  25
BRANCH  24  32
ATOM     32  C   UNL     1      -1.681  -0.691  -1.952  0.00  0.00    +0.032 C 
BRANCH  32  33
ATOM     33  C   UNL     1      -1.925   0.693  -2.556  0.00  0.00    +0.002 C 
BRANCH  33  35
ATOM     34  C   UNL     1      -0.831   2.701  -3.564  0.00  0.00    +0.004 C 
ATOM     35  C   UNL     1      -0.587   1.317  -2.959  0.00  0.00    -0.003 C 
ENDBRANCH  33  35
ENDBRANCH  32  33
ENDBRANCH  24  32
ENDBRANCH   1  24
TORSDOF 8
