REMARK  Name = ZINC52335534
REMARK  5 active torsions:
REMARK  status: ('A' for Active; 'I' for Inactive)
REMARK    1  A    between atoms: C_1  and  C_2
REMARK    2  A    between atoms: C_2  and  C_3
REMARK    3  A    between atoms: C_3  and  C_5
REMARK    4  A    between atoms: C_3  and  N_11
REMARK    5  A    between atoms: N_11  and  C_12
REMARK                            x       y       z     vdW  Elec       q    Type
REMARK                         _______ _______ _______ _____ _____    ______ ____
ROOT
ATOM      1  N   UNL     1      -1.901  -0.349  -1.223  0.00  0.00    +0.391 N 
ATOM      2  H   UNL     1      -2.648  -1.016  -1.103  0.00  0.00    -0.084 HD
ATOM      3  H   UNL     1      -2.273   0.507  -1.608  0.00  0.00    -0.084 HD
ENDROOT
BRANCH   1   4
ATOM      4  C   UNL     1      -0.894  -0.901  -2.139  0.00  0.00    +0.049 C 
ATOM      5  C   UNL     1      -1.236  -0.559  -3.571  0.00  0.00    -0.031 A 
ATOM      6  C   UNL     1      -1.373   0.636  -4.240  0.00  0.00    +0.005 A 
ATOM      7  C   UNL     1      -1.702   0.640  -5.585  0.00  0.00    +0.015 A 
ATOM      8  C   UNL     1      -1.892  -0.558  -6.250  0.00  0.00    +0.020 A 
ATOM      9  C   UNL     1      -1.754  -1.757  -5.581  0.00  0.00    +0.038 A 
ATOM     10  C   UNL     1      -1.423  -1.768  -4.227  0.00  0.00    +0.036 A 
ATOM     11  N   UNL     1      -1.231  -2.832  -3.344  0.00  0.00    -0.286 N 
ATOM     12  C   UNL     1      -0.917  -2.414  -2.103  0.00  0.00    +0.208 C 
ATOM     13  O   UNL     1      -0.695  -3.115  -1.139  0.00  0.00    -0.277 OA
ATOM     14 BR   UNL     1      -2.342  -0.552  -8.087  0.00  0.00    -0.050 Br
ATOM     15  H   UNL     1      -1.313  -3.765  -3.596  0.00  0.00    +0.155 HD
ENDBRANCH   1   4
BRANCH   1  16
ATOM     16  C   UNL     1      -1.279  -0.071   0.079  0.00  0.00    -0.067 C 
BRANCH  16  17
ATOM     17  C   UNL     1      -0.672  -1.358   0.639  0.00  0.00    -0.025 C 
ATOM     18  C   UNL     1      -1.791  -2.349   0.968  0.00  0.00    +0.002 C 
ATOM     19  C   UNL     1      -1.184  -3.636   1.529  0.00  0.00    +0.000 C 
ATOM     20  C   UNL     1      -0.395  -3.316   2.801  0.00  0.00    +0.000 C 
ATOM     21  C   UNL     1       0.724  -2.326   2.472  0.00  0.00    +0.000 C 
ATOM     22  C   UNL     1       0.117  -1.038   1.911  0.00  0.00    +0.002 C 
ENDBRANCH  16  17
BRANCH  16  24
ATOM     23  C   UNL     1      -0.805   2.310  -0.515  0.00  0.00    +0.002 C 
ATOM     24  C   UNL     1      -0.179   0.978  -0.096  0.00  0.00    -0.019 C 
ENDBRANCH  16  24
ENDBRANCH   1  16
TORSDOF 4
