REMARK  Name = ZINC09673713
REMARK  7 active torsions:
REMARK  status: ('A' for Active; 'I' for Inactive)
REMARK    1  A    between atoms: C_1  and  C_2
REMARK    2  A    between atoms: C_7  and  C_8
REMARK    3  A    between atoms: C_11  and  C_27
REMARK    4  A    between atoms: C_14  and  C_16
REMARK    5  A    between atoms: C_19  and  N_22
REMARK    6  A    between atoms: N_22  and  S_23
REMARK    7  A    between atoms: S_23  and  C_26
REMARK                            x       y       z     vdW  Elec       q    Type
REMARK                         _______ _______ _______ _____ _____    ______ ____
ROOT
ATOM      1  C   UNL     1       0.547   5.334  -0.765  0.00  0.00    +0.267 C 
ATOM      2  O   UNL     1       1.629   5.843  -0.988  0.00  0.00    -0.268 OA
ATOM      3  N   UNL     1      -0.527   6.112  -0.526  0.00  0.00    -0.178 N 
ATOM      4  C   UNL     1      -0.551   7.582  -0.593  0.00  0.00    +0.173 C 
ATOM      5  C   UNL     1      -2.008   7.936  -0.237  0.00  0.00    +0.090 C 
ATOM      6  C   UNL     1      -2.661   6.594   0.006  0.00  0.00    +0.069 C 
ATOM      7  N   UNL     1      -1.794   5.656  -0.170  0.00  0.00    -0.181 NA
ENDROOT
BRANCH   1  14
ATOM      8  C   UNL     1       2.730   3.700   0.203  0.00  0.00    +0.044 C 
ATOM      9  C   UNL     1       1.456   3.064  -0.292  0.00  0.00    -0.038 A 
ATOM     10  C   UNL     1       1.322   1.691  -0.287  0.00  0.00    +0.004 A 
ATOM     11  C   UNL     1       0.154   1.105  -0.741  0.00  0.00    +0.000 A 
ATOM     12  C   UNL     1      -0.885   1.891  -1.209  0.00  0.00    +0.001 A 
ATOM     13  C   UNL     1      -0.766   3.265  -1.214  0.00  0.00    +0.013 A 
ATOM     14  C   UNL     1       0.411   3.862  -0.757  0.00  0.00    +0.041 A 
ENDBRANCH   1  14
BRANCH   6  15
ATOM     15  C   UNL     1      -4.070   6.390   0.386  0.00  0.00    -0.002 A 
ATOM     16  C   UNL     1      -4.917   7.489   0.553  0.00  0.00    +0.011 A 
ATOM     17  C   UNL     1      -6.235   7.294   0.903  0.00  0.00    +0.025 A 
ATOM     18  C   UNL     1      -6.720   6.006   1.100  0.00  0.00    +0.048 A 
ATOM     19  C   UNL     1      -5.879   4.910   0.940  0.00  0.00    +0.025 A 
ATOM     20  C   UNL     1      -4.562   5.097   0.585  0.00  0.00    +0.011 A 
BRANCH  18  21
ATOM     21  N   UNL     1      -8.054   5.812   1.459  0.00  0.00    -0.221 N 
ATOM     22  H   UNL     1      -8.586   5.139   1.006  0.00  0.00    +0.173 HD
BRANCH  21  23
ATOM     23  S   UNL     1      -8.730   6.731   2.660  0.00  0.00    +0.040 S 
ATOM     24  O   UNL     1      -8.482   8.075   2.271  0.00  0.00    -0.155 OA
ATOM     25  O   UNL     1     -10.060   6.247   2.782  0.00  0.00    -0.155 OA
ATOM     26  C   UNL     1      -7.778   6.326   4.149  0.00  0.00    +0.218 C 
ENDBRANCH  21  23
ENDBRANCH  18  21
ENDBRANCH   6  15
BRANCH   4  27
ATOM     27  C   UNL     1       0.402   8.174   0.412  0.00  0.00    +0.128 A 
ATOM     28  C   UNL     1       1.179   9.255   0.218  0.00  0.00    +0.046 A 
ATOM     29  C   UNL     1       1.908   9.456   1.413  0.00  0.00    +0.041 A 
ATOM     30  C   UNL     1       1.532   8.486   2.266  0.00  0.00    +0.195 A 
ATOM     31  O   UNL     1       0.616   7.716   1.657  0.00  0.00    -0.466 OA
ENDBRANCH   4  27
TORSDOF 5
