REMARK  Name = ZINC19899092
REMARK  3 active torsions:
REMARK  status: ('A' for Active; 'I' for Inactive)
REMARK    1  A    between atoms: C_1  and  C_2
REMARK    2  A    between atoms: N_6  and  C_11
REMARK    3  A    between atoms: C_7  and  C_10
REMARK                            x       y       z     vdW  Elec       q    Type
REMARK                         _______ _______ _______ _____ _____    ______ ____
ROOT
ATOM      1  C   UNL     1       2.368   5.427   0.007  0.00  0.00    +0.116 C 
ATOM      2  C   UNL     1       2.414   4.076  -0.064  0.00  0.00    +0.114 C 
ATOM      3  C   UNL     1       1.186   3.281  -0.057  0.00  0.00    +0.207 C 
ATOM      4  O   UNL     1       1.246   2.068  -0.121  0.00  0.00    -0.286 OA
ATOM      5  C   UNL     1      -0.131   3.954   0.029  0.00  0.00    +0.034 A 
ATOM      6  C   UNL     1      -1.306   3.215   0.037  0.00  0.00    +0.012 A 
ATOM      7  C   UNL     1      -2.528   3.865   0.124  0.00  0.00    +0.001 A 
ATOM      8  C   UNL     1      -2.585   5.244   0.191  0.00  0.00    +0.001 A 
ATOM      9  C   UNL     1      -1.420   5.995   0.183  0.00  0.00    +0.012 A 
ATOM     10  C   UNL     1      -0.188   5.356   0.102  0.00  0.00    +0.034 A 
ATOM     11  C   UNL     1       1.069   6.135   0.093  0.00  0.00    +0.210 C 
ATOM     12  O   UNL     1       1.037   7.348   0.156  0.00  0.00    -0.285 OA
ATOM     13 CL   UNL     1       3.952   3.276  -0.164  0.00  0.00    -0.077 Cl
ENDROOT
BRANCH   1  18
ATOM     14  C   UNL     1       6.567   7.918  -2.230  0.00  0.00    +0.039 C 
ATOM     15  C   UNL     1       5.715   7.469  -1.041  0.00  0.00    +0.133 C 
ATOM     16  C   UNL     1       5.627   5.940  -1.024  0.00  0.00    +0.133 C 
ATOM     17  N   UNL     1       4.756   5.520   0.086  0.00  0.00    -0.235 NA
ATOM     18  N   UNL     1       3.542   6.152  -0.001  0.00  0.00    -0.234 N 
ATOM     19  C   UNL     1       3.518   7.617  -0.110  0.00  0.00    +0.218 C 
ATOM     20  O   UNL     1       4.398   8.015  -1.162  0.00  0.00    -0.354 OA
ATOM     21  C   UNL     1       3.986   8.238   1.208  0.00  0.00    +0.061 C 
ATOM     22  H   UNL     1       5.194   5.699   0.977  0.00  0.00    +0.145 HD
ENDBRANCH   1  18
TORSDOF 1
