REMARK  Name = ZINC57510582
REMARK  5 active torsions:
REMARK  status: ('A' for Active; 'I' for Inactive)
REMARK    1  A    between atoms: C_1  and  C_2
REMARK    2  A    between atoms: C_2  and  N_3
REMARK    3  A    between atoms: C_15  and  C_23
REMARK    4  A    between atoms: C_17  and  C_21
REMARK    5  A    between atoms: C_18  and  N_20
REMARK                            x       y       z     vdW  Elec       q    Type
REMARK                         _______ _______ _______ _____ _____    ______ ____
ROOT
ATOM      1  N   UNL     1       0.688  -0.476  -1.203  0.00  0.00    -0.203 N 
ATOM      2  C   UNL     1       0.012  -0.619  -2.421  0.00  0.00    +0.062 A 
ATOM      3  C   UNL     1      -1.340  -0.941  -2.400  0.00  0.00    +0.025 A 
ATOM      4  C   UNL     1      -2.034  -1.097  -3.583  0.00  0.00    +0.002 A 
ATOM      5  C   UNL     1      -1.384  -0.934  -4.795  0.00  0.00    +0.001 A 
ATOM      6  C   UNL     1      -0.045  -0.612  -4.829  0.00  0.00    +0.013 A 
ATOM      7  C   UNL     1       0.672  -0.447  -3.638  0.00  0.00    +0.042 A 
ATOM      8  C   UNL     1       2.106  -0.084  -3.739  0.00  0.00    +0.162 C 
ATOM      9  C   UNL     1       2.937  -0.228  -2.711  0.00  0.00    +0.141 C 
ATOM     10  S   UNL     1       2.308  -0.861  -1.188  0.00  0.00    +0.075 S 
ATOM     11  O   UNL     1       2.399  -2.277  -1.262  0.00  0.00    -0.150 OA
ATOM     12  O   UNL     1       2.905  -0.104  -0.145  0.00  0.00    -0.150 OA
ATOM     13  C   UNL     1       4.392   0.139  -2.811  0.00  0.00    +0.119 C 
ATOM     14  C   UNL     1       4.620   1.039  -3.995  0.00  0.00    +0.099 C 
ATOM     15  C   UNL     1       3.690   1.120  -4.979  0.00  0.00    +0.199 C 
ATOM     16  O   UNL     1       2.555   0.405  -4.926  0.00  0.00    -0.439 OA
ENDROOT
BRANCH  13  17
ATOM     17  C   UNL     1       5.213  -1.114  -2.974  0.00  0.00    -0.019 A 
ATOM     18  C   UNL     1       5.004  -1.940  -4.063  0.00  0.00    +0.006 A 
ATOM     19  C   UNL     1       5.757  -3.090  -4.213  0.00  0.00    +0.000 A 
ATOM     20  C   UNL     1       6.719  -3.413  -3.274  0.00  0.00    +0.001 A 
ATOM     21  C   UNL     1       6.929  -2.588  -2.186  0.00  0.00    +0.015 A 
ATOM     22  C   UNL     1       6.179  -1.435  -2.038  0.00  0.00    +0.022 A 
ATOM     23 BR   UNL     1       6.470  -0.302  -0.552  0.00  0.00    -0.050 Br
ENDBRANCH  13  17
BRANCH  15  24
ATOM     24  N   UNL     1       3.914   1.949  -6.050  0.00  0.00    -0.328 N 
ATOM     25  H   UNL     1       4.731   2.470  -6.098  0.00  0.00    +0.145 HD
ATOM     26  H   UNL     1       3.255   2.014  -6.759  0.00  0.00    +0.145 HD
ENDBRANCH  15  24
BRANCH   1  28
ATOM     27  C   UNL     1      -0.019   1.526   0.010  0.00  0.00    +0.026 C 
ATOM     28  C   UNL     1       0.002  -0.004   0.002  0.00  0.00    +0.128 C 
ENDBRANCH   1  28
BRANCH  14  29
ATOM     29  C   UNL     1       5.822   1.812  -4.082  0.00  0.00    +0.101 C 
ATOM     30  N   UNL     1       6.775   2.426  -4.152  0.00  0.00    -0.191 NA
ENDBRANCH  14  29
TORSDOF 4
