REMARK  Name = ZINC63512214
REMARK  7 active torsions:
REMARK  status: ('A' for Active; 'I' for Inactive)
REMARK    1  A    between atoms: C_1  and  C_2
REMARK    2  A    between atoms: C_7  and  C_13
REMARK    3  A    between atoms: C_13  and  N_14
REMARK    4  A    between atoms: N_14  and  C_15
REMARK    5  A    between atoms: C_15  and  C_16
REMARK    6  A    between atoms: C_15  and  C_22
REMARK    7  A    between atoms: N_24  and  C_25
REMARK                            x       y       z     vdW  Elec       q    Type
REMARK                         _______ _______ _______ _____ _____    ______ ____
ROOT
ATOM      1  C   UNL     1      -1.133  -8.237   0.485  0.00  0.00    +0.048 C 
ENDROOT
BRANCH   1   2
ATOM      2  C   UNL     1      -1.109  -8.773   1.893  0.00  0.00    -0.053 A 
ATOM      3  C   UNL     1      -1.880  -8.177   2.873  0.00  0.00    +0.002 A 
ATOM      4  C   UNL     1      -1.858  -8.668   4.165  0.00  0.00    +0.000 A 
ATOM      5  C   UNL     1      -1.064  -9.756   4.477  0.00  0.00    +0.000 A 
ATOM      6  C   UNL     1      -0.293 -10.353   3.497  0.00  0.00    +0.000 A 
ATOM      7  C   UNL     1      -0.319  -9.864   2.204  0.00  0.00    +0.002 A 
ENDBRANCH   1   2
BRANCH   1   8
ATOM      8  C   UNL     1      -2.365  -8.740  -0.223  0.00  0.00    +0.207 C 
ATOM      9  O   UNL     1      -3.180  -7.954  -0.655  0.00  0.00    -0.277 OA
ATOM     10  N   UNL     1      -2.560 -10.065  -0.375  0.00  0.00    -0.287 N 
ATOM     11  H   UNL     1      -1.877 -10.692  -0.089  0.00  0.00    +0.155 HD
BRANCH  10  12
ATOM     12  C   UNL     1      -3.748 -10.536  -0.945  0.00  0.00    +0.033 A 
ATOM     13  C   UNL     1      -4.313 -11.722  -0.495  0.00  0.00    +0.023 A 
ATOM     14  C   UNL     1      -5.485 -12.185  -1.060  0.00  0.00    +0.002 A 
ATOM     15  C   UNL     1      -6.096 -11.468  -2.072  0.00  0.00    +0.000 A 
ATOM     16  C   UNL     1      -5.536 -10.287  -2.523  0.00  0.00    +0.002 A 
ATOM     17  C   UNL     1      -4.367  -9.816  -1.958  0.00  0.00    +0.023 A 
ENDBRANCH  10  12
ENDBRANCH   1   8
BRANCH   1  18
ATOM     18  N   UNL     1      -1.155  -6.768   0.521  0.00  0.00    +0.393 N 
ATOM     19  H   UNL     1      -1.933  -6.457   1.083  0.00  0.00    -0.084 HD
ATOM     20  H   UNL     1      -1.254  -6.411  -0.418  0.00  0.00    -0.084 HD
BRANCH  18  21
ATOM     21  C   UNL     1       0.100  -6.274   1.103  0.00  0.00    -0.024 C 
BRANCH  21  28
ATOM     22  C   UNL     1      -0.031   1.505   0.019  0.00  0.00    +0.045 C 
ATOM     23  C   UNL     1      -0.009  -0.002   0.007  0.00  0.00    -0.034 A 
ATOM     24  C   UNL     1      -0.012  -0.691  -1.214  0.00  0.00    +0.008 A 
ATOM     25  C   UNL     1       0.008  -2.054  -1.216  0.00  0.00    +0.047 A 
ATOM     26  C   UNL     1       0.033  -2.747   0.008  0.00  0.00    +0.140 A 
ATOM     27  N   UNL     1       0.054  -4.079   0.009  0.00  0.00    -0.236 NA
ATOM     28  C   UNL     1       0.077  -4.767   1.139  0.00  0.00    +0.032 A 
ATOM     29  C   UNL     1       0.081  -4.106   2.352  0.00  0.00    +0.092 A 
ATOM     30  C   UNL     1       0.060  -2.707   2.360  0.00  0.00    +0.258 A 
ATOM     31  O   UNL     1       0.063  -2.092   3.415  0.00  0.00    -0.267 OA
ATOM     32  N   UNL     1       0.036  -2.046   1.182  0.00  0.00    -0.268 N 
ATOM     33  C   UNL     1       0.020  -0.685   1.173  0.00  0.00    +0.099 A 
ENDBRANCH  21  28
ENDBRANCH  18  21
ENDBRANCH   1  18
TORSDOF 6
