REMARK  Name = ZINC09547416
REMARK  6 active torsions:
REMARK  status: ('A' for Active; 'I' for Inactive)
REMARK    1  A    between atoms: C_1  and  C_2
REMARK    2  A    between atoms: C_7  and  N_8
REMARK    3  A    between atoms: C_9  and  C_11
REMARK    4  A    between atoms: N_15  and  C_18
REMARK    5  A    between atoms: C_18  and  C_19
REMARK    6  A    between atoms: C_22  and  N_25
REMARK                            x       y       z     vdW  Elec       q    Type
REMARK                         _______ _______ _______ _____ _____    ______ ____
ROOT
ATOM      1  C   UNL     1      -3.679  -1.044  -0.200  0.00  0.00    +0.101 A 
ATOM      2  C   UNL     1      -3.686  -2.437  -0.210  0.00  0.00    +0.020 A 
ATOM      3  C   UNL     1      -4.906  -3.106  -0.315  0.00  0.00    +0.019 A 
ATOM      4  C   UNL     1      -6.063  -2.402  -0.407  0.00  0.00    +0.089 A 
ATOM      5  N   UNL     1      -6.064  -1.048  -0.398  0.00  0.00    -0.310 N 
ATOM      6  C   UNL     1      -4.915  -0.353  -0.292  0.00  0.00    +0.264 A 
ATOM      7  O   UNL     1      -4.937   0.866  -0.281  0.00  0.00    -0.267 OA
ENDROOT
BRANCH   1   9
ATOM      8  N   UNL     1      -2.428   1.040   0.027  0.00  0.00    -0.281 N 
ATOM      9  C   UNL     1      -2.414  -0.302  -0.091  0.00  0.00    +0.254 C 
ATOM     10  O   UNL     1      -1.355  -0.901  -0.107  0.00  0.00    -0.270 OA
ATOM     11  H   UNL     1      -3.271   1.510   0.124  0.00  0.00    +0.155 HD
BRANCH   8  18
ATOM     12  C   UNL     1      -2.357   3.577   1.313  0.00  0.00    +0.046 C 
ATOM     13  C   UNL     1      -1.147   2.998   0.625  0.00  0.00    -0.028 A 
ATOM     14  C   UNL     1       0.039   3.706   0.601  0.00  0.00    +0.020 A 
ATOM     15  C   UNL     1       1.149   3.175  -0.031  0.00  0.00    +0.018 A 
ATOM     16  C   UNL     1       1.075   1.935  -0.640  0.00  0.00    +0.017 A 
ATOM     17  C   UNL     1      -0.108   1.223  -0.619  0.00  0.00    +0.024 A 
ATOM     18  C   UNL     1      -1.226   1.756   0.009  0.00  0.00    +0.037 A 
ATOM     19 BR   UNL     1       2.771   4.147  -0.062  0.00  0.00    -0.050 Br
ENDBRANCH   8  18
ENDBRANCH   1   9
BRANCH   5  20
ATOM     20  C   UNL     1      -7.336  -0.328  -0.499  0.00  0.00    +0.160 C 
BRANCH  20  21
ATOM     21  C   UNL     1      -7.890  -0.090   0.881  0.00  0.00    -0.028 A 
ATOM     22  C   UNL     1      -8.735  -1.020   1.457  0.00  0.00    +0.007 A 
ATOM     23  C   UNL     1      -9.239  -0.804   2.726  0.00  0.00    +0.033 A 
ATOM     24  C   UNL     1      -8.907   0.347   3.415  0.00  0.00    +0.126 A 
ATOM     25  C   UNL     1      -8.066   1.280   2.837  0.00  0.00    +0.033 A 
ATOM     26  C   UNL     1      -7.558   1.062   1.571  0.00  0.00    +0.007 A 
BRANCH  24  27
ATOM     27  N   UNL     1      -9.450   0.580   4.772  0.00  0.00    +0.056 N 
ATOM     28  O   UNL     1      -9.157   1.594   5.380  0.00  0.00    -0.126 OA
ATOM     29  O   UNL     1     -10.191  -0.242   5.281  0.00  0.00    -0.126 OA
ENDBRANCH  24  27
ENDBRANCH  20  21
ENDBRANCH   5  20
TORSDOF 5
