REMARK  Name = ZINC03600644
REMARK  3 active torsions:
REMARK  status: ('A' for Active; 'I' for Inactive)
REMARK    1  A    between atoms: N_13  and  C_17
REMARK    2  A    between atoms: C_17  and  C_18
REMARK    3  A    between atoms: N_20  and  C_21
REMARK                            x       y       z     vdW  Elec       q    Type
REMARK                         _______ _______ _______ _____ _____    ______ ____
ROOT
ATOM      1  C   UNL     1      -0.008   1.371   0.024  0.00  0.00    +0.000 A 
ATOM      2  C   UNL     1       1.180   2.079   0.010  0.00  0.00    +0.000 A 
ATOM      3  C   UNL     1       2.381   1.401  -0.005  0.00  0.00    +0.006 A 
ATOM      4  C   UNL     1       2.409   0.013  -0.006  0.00  0.00    -0.012 A 
ATOM      5  C   UNL     1       1.225  -0.693   0.013  0.00  0.00    -0.042 A 
ATOM      6  C   UNL     1       0.017  -0.008   0.025  0.00  0.00    +0.004 A 
ATOM      7  C   UNL     1       1.182  -2.198   0.030  0.00  0.00    +0.035 C 
ATOM      8  C   UNL     1       2.516  -2.783  -0.429  0.00  0.00    +0.008 C 
ATOM      9  C   UNL     1       3.639  -2.129   0.386  0.00  0.00    +0.040 C 
ATOM     10  C   UNL     1       3.749  -0.668  -0.030  0.00  0.00    +0.138 C 
ATOM     11  C   UNL     1       4.363  -0.560  -1.408  0.00  0.00    +0.251 C 
ATOM     12  O   UNL     1       3.921  -1.006  -2.446  0.00  0.00    -0.272 OA
ATOM     13  N   UNL     1       5.506   0.135  -1.241  0.00  0.00    -0.215 N 
ATOM     14  C   UNL     1       5.692   0.477   0.040  0.00  0.00    +0.310 C 
ATOM     15  O   UNL     1       6.652   1.108   0.439  0.00  0.00    -0.252 OA
ATOM     16  N   UNL     1       4.698   0.043   0.837  0.00  0.00    -0.281 N 
ATOM     17  H   UNL     1       4.622   0.174   1.795  0.00  0.00    +0.152 HD
ENDROOT
BRANCH  13  18
ATOM     18  C   UNL     1       6.430   0.475  -2.326  0.00  0.00    +0.214 C 
BRANCH  18  19
ATOM     19  C   UNL     1       6.041   1.804  -2.919  0.00  0.00    +0.235 C 
ATOM     20  O   UNL     1       5.086   2.409  -2.479  0.00  0.00    -0.274 OA
ATOM     21  N   UNL     1       6.754   2.322  -3.939  0.00  0.00    -0.283 N 
ATOM     22  H   UNL     1       7.556   1.871  -4.248  0.00  0.00    +0.155 HD
BRANCH  21  23
ATOM     23  C   UNL     1       6.339   3.510  -4.552  0.00  0.00    +0.052 A 
ATOM     24  C   UNL     1       5.733   4.506  -3.799  0.00  0.00    +0.025 A 
ATOM     25  C   UNL     1       5.325   5.678  -4.406  0.00  0.00    +0.002 A 
ATOM     26  C   UNL     1       5.518   5.858  -5.764  0.00  0.00    +0.002 A 
ATOM     27  C   UNL     1       6.120   4.868  -6.518  0.00  0.00    +0.022 A 
ATOM     28  C   UNL     1       6.537   3.696  -5.915  0.00  0.00    +0.062 A 
ATOM     29 CL   UNL     1       7.299   2.456  -6.860  0.00  0.00    -0.082 Cl
ENDBRANCH  21  23
ENDBRANCH  18  19
ENDBRANCH  13  18
TORSDOF 3
