REMARK  Name = ZINC09742087
REMARK  9 active torsions:
REMARK  status: ('A' for Active; 'I' for Inactive)
REMARK    1  A    between atoms: C_1  and  O_2
REMARK    2  A    between atoms: O_2  and  C_3
REMARK    3  A    between atoms: C_8  and  O_9
REMARK    4  A    between atoms: O_9  and  C_10
REMARK    5  A    between atoms: C_12  and  C_17
REMARK    6  A    between atoms: C_17  and  N_52
REMARK    7  A    between atoms: C_18  and  C_20
REMARK    8  A    between atoms: C_18  and  C_26
REMARK    9  A    between atoms: C_18  and  N_52
REMARK                            x       y       z     vdW  Elec       q    Type
REMARK                         _______ _______ _______ _____ _____    ______ ____
ROOT
ATOM      1  C   UNL     1       2.407   4.038   0.001  0.00  0.00    -0.006 C 
ENDROOT
BRANCH   1   9
ATOM      2  C   UNL     1      -3.675   2.057   0.046  0.00  0.00    +0.162 A 
ATOM      3  C   UNL     1      -2.515   1.311   0.032  0.00  0.00    +0.064 A 
ATOM      4  C   UNL     1      -1.280   1.959   0.019  0.00  0.00    +0.068 A 
ATOM      5  C   UNL     1      -1.218   3.371   0.031  0.00  0.00    +0.082 A 
ATOM      6  C   UNL     1      -2.401   4.109   0.045  0.00  0.00    +0.078 A 
ATOM      7  C   UNL     1      -3.618   3.455   0.053  0.00  0.00    +0.164 A 
ATOM      8  N   UNL     1      -0.003   3.977   0.022  0.00  0.00    -0.236 NA
ATOM      9  C   UNL     1       1.099   3.290   0.009  0.00  0.00    +0.093 A 
ATOM     10  N   UNL     1       1.133   1.932   0.002  0.00  0.00    -0.312 N 
ATOM     11  H   UNL     1       1.987   1.472  -0.008  0.00  0.00    +0.170 HD
ATOM     12  C   UNL     1      -0.014   1.213   0.009  0.00  0.00    +0.259 A 
ATOM     13  O   UNL     1       0.002  -0.004   0.002  0.00  0.00    -0.267 OA
BRANCH   2  15
ATOM     14  C   UNL     1      -4.871   0.002   0.047  0.00  0.00    +0.277 C 
ATOM     15  O   UNL     1      -4.882   1.431   0.054  0.00  0.00    -0.491 OA
ENDBRANCH   2  15
BRANCH   7  16
ATOM     16  O   UNL     1      -4.769   4.175   0.067  0.00  0.00    -0.491 OA
ATOM     17  C   UNL     1      -4.643   5.598   0.074  0.00  0.00    +0.277 C 
ENDBRANCH   7  16
ENDBRANCH   1   9
BRANCH   1  18
ATOM     18  N   UNL     1       2.135   5.488   0.011  0.00  0.00    +0.391 N 
ATOM     19  H   UNL     1       1.602   5.727   0.855  0.00  0.00    -0.084 HD
ATOM     20  H   UNL     1       1.587   5.736  -0.822  0.00  0.00    -0.084 HD
BRANCH  18  21
ATOM     21  C   UNL     1       3.400   6.247   0.003  0.00  0.00    -0.009 C 
BRANCH  21  22
ATOM     22  C   UNL     1       3.155   7.611  -0.588  0.00  0.00    -0.057 A 
ATOM     23  C   UNL     1       1.994   8.297  -0.286  0.00  0.00    +0.004 A 
ATOM     24  C   UNL     1       1.771   9.551  -0.824  0.00  0.00    +0.020 A 
ATOM     25  C   UNL     1       2.706  10.114  -1.673  0.00  0.00    +0.041 A 
ATOM     26  C   UNL     1       3.865   9.425  -1.980  0.00  0.00    +0.020 A 
ATOM     27  C   UNL     1       4.090   8.174  -1.438  0.00  0.00    +0.004 A 
ATOM     28 CL   UNL     1       2.424  11.686  -2.355  0.00  0.00    -0.084 Cl
ENDBRANCH  21  22
BRANCH  21  29
ATOM     29  C   UNL     1       3.906   6.395   1.415  0.00  0.00    -0.057 A 
ATOM     30  C   UNL     1       3.019   6.649   2.444  0.00  0.00    +0.002 A 
ATOM     31  C   UNL     1       3.483   6.781   3.740  0.00  0.00    +0.000 A 
ATOM     32  C   UNL     1       4.835   6.666   4.005  0.00  0.00    +0.000 A 
ATOM     33  C   UNL     1       5.723   6.417   2.975  0.00  0.00    +0.000 A 
ATOM     34  C   UNL     1       5.258   6.281   1.680  0.00  0.00    +0.002 A 
ENDBRANCH  21  29
ENDBRANCH  18  21
ENDBRANCH   1  18
TORSDOF 7
