REMARK  Name = ZINC02584190
REMARK  7 active torsions:
REMARK  status: ('A' for Active; 'I' for Inactive)
REMARK    1  A    between atoms: C_1  and  C_2
REMARK    2  A    between atoms: C_3  and  C_20
REMARK    3  A    between atoms: C_4  and  C_12
REMARK    4  A    between atoms: C_6  and  C_10
REMARK    5  A    between atoms: C_7  and  N_9
REMARK    6  A    between atoms: C_20  and  O_22
REMARK    7  A    between atoms: O_22  and  C_23
REMARK                            x       y       z     vdW  Elec       q    Type
REMARK                         _______ _______ _______ _____ _____    ______ ____
ROOT
ATOM      1  C   UNL     1       3.811   1.825  -0.330  0.00  0.00    +0.087 C 
ATOM      2  C   UNL     1       2.421   1.244  -0.338  0.00  0.00    +0.115 C 
ATOM      3  C   UNL     1       1.390   2.029  -0.000  0.00  0.00    +0.087 C 
ATOM      4  C   UNL     1      -0.018   1.501   0.010  0.00  0.00    +0.106 C 
ATOM      5  C   UNL     1       0.002  -0.004   0.002  0.00  0.00    +0.098 C 
ATOM      6  C   UNL     1       1.126  -0.679  -0.339  0.00  0.00    +0.198 C 
ATOM      7  O   UNL     1       2.259  -0.042  -0.682  0.00  0.00    -0.445 OA
ENDROOT
BRANCH   4   8
ATOM      8  C   UNL     1      -0.749   1.999  -1.210  0.00  0.00    -0.015 A 
ATOM      9  C   UNL     1      -0.283   1.682  -2.472  0.00  0.00    +0.006 A 
ATOM     10  C   UNL     1      -0.956   2.133  -3.592  0.00  0.00    +0.002 A 
ATOM     11  C   UNL     1      -2.090   2.912  -3.451  0.00  0.00    +0.021 A 
ATOM     12  C   UNL     1      -2.555   3.235  -2.188  0.00  0.00    +0.060 A 
ATOM     13  C   UNL     1      -1.883   2.777  -1.067  0.00  0.00    +0.063 A 
ATOM     14 CL   UNL     1      -2.465   3.181   0.518  0.00  0.00    -0.082 Cl
ATOM     15 CL   UNL     1      -3.978   4.212  -2.011  0.00  0.00    -0.082 Cl
ENDBRANCH   4   8
BRANCH   6  16
ATOM     16  N   UNL     1       1.108  -2.052  -0.332  0.00  0.00    -0.328 N 
ATOM     17  H   UNL     1       0.298  -2.525  -0.086  0.00  0.00    +0.145 HD
ATOM     18  H   UNL     1       1.905  -2.549  -0.574  0.00  0.00    +0.145 HD
ENDBRANCH   6  16
BRANCH   5  19
ATOM     19  C   UNL     1      -1.179  -0.730   0.359  0.00  0.00    +0.101 C 
ATOM     20  N   UNL     1      -2.117  -1.306   0.642  0.00  0.00    -0.191 NA
ENDBRANCH   5  19
BRANCH   3  21
ATOM     21  C   UNL     1       1.631   3.379   0.353  0.00  0.00    +0.339 C 
ATOM     22  O   UNL     1       2.766   3.817   0.348  0.00  0.00    -0.245 OA
BRANCH  21  23
ATOM     23  O   UNL     1       0.600   4.181   0.695  0.00  0.00    -0.465 OA
ATOM     24  C   UNL     1       0.915   5.531   1.040  0.00  0.00    +0.280 C 
ENDBRANCH  21  23
ENDBRANCH   3  21
TORSDOF 5
