REMARK  Name = ZINC21249390
REMARK  5 active torsions:
REMARK  status: ('A' for Active; 'I' for Inactive)
REMARK    1  A    between atoms: C_1  and  C_2
REMARK    2  A    between atoms: C_2  and  O_3
REMARK    3  A    between atoms: O_3  and  C_4
REMARK    4  A    between atoms: C_7  and  C_10
REMARK    5  A    between atoms: C_15  and  C_25
REMARK                            x       y       z     vdW  Elec       q    Type
REMARK                         _______ _______ _______ _____ _____    ______ ____
ROOT
ATOM      1  C   UNL     1       6.117  -1.615  -2.925  0.00  0.00    +0.032 C 
ATOM      2  C   UNL     1       5.666  -1.745  -1.472  0.00  0.00    +0.059 C 
ATOM      3  C   UNL     1       4.861  -0.521  -1.068  0.00  0.00    +0.017 C 
ATOM      4  C   UNL     1       5.140   0.682  -1.597  0.00  0.00    +0.036 C 
ATOM      5  C   UNL     1       4.426   1.975  -1.281  0.00  0.00    +0.136 C 
ATOM      6  N   UNL     1       3.541   1.909  -0.138  0.00  0.00    -0.331 N 
ATOM      7  C   UNL     1       2.411   1.095  -0.153  0.00  0.00    +0.049 A 
ATOM      8  C   UNL     1       1.133   1.631  -0.132  0.00  0.00    +0.025 A 
ATOM      9  C   UNL     1       0.040   0.787  -0.228  0.00  0.00    +0.002 A 
ATOM     10  C   UNL     1       0.217  -0.580  -0.336  0.00  0.00    +0.002 A 
ATOM     11  C   UNL     1       1.492  -1.121  -0.329  0.00  0.00    +0.025 A 
ATOM     12  C   UNL     1       2.585  -0.279  -0.229  0.00  0.00    +0.052 A 
ATOM     13  N   UNL     1       3.889  -0.757  -0.150  0.00  0.00    -0.316 N 
ATOM     14  C   UNL     1       6.176   0.818  -2.551  0.00  0.00    +0.163 C 
ATOM     15  O   UNL     1       6.423   1.923  -2.995  0.00  0.00    -0.292 OA
ATOM     16  C   UNL     1       6.979  -0.351  -3.035  0.00  0.00    +0.088 C 
ATOM     17  H   UNL     1       3.756   2.508   0.759  0.00  0.00    +0.147 HD
ATOM     18  H   UNL     1       4.107  -1.369   0.738  0.00  0.00    +0.152 HD
ENDROOT
BRANCH   5  19
ATOM     19  C   UNL     1       3.620   2.382  -2.487  0.00  0.00    -0.022 A 
ATOM     20  C   UNL     1       3.923   3.572  -3.147  0.00  0.00    +0.006 A 
ATOM     21  C   UNL     1       3.215   3.968  -4.239  0.00  0.00    +0.009 A 
ATOM     22  C   UNL     1       2.160   3.168  -4.712  0.00  0.00    -0.018 A 
ATOM     23  C   UNL     1       1.406   3.544  -5.837  0.00  0.00    +0.008 A 
ATOM     24  C   UNL     1       0.392   2.744  -6.266  0.00  0.00    +0.001 A 
ATOM     25  C   UNL     1       0.088   1.555  -5.606  0.00  0.00    +0.001 A 
ATOM     26  C   UNL     1       0.797   1.159  -4.513  0.00  0.00    +0.008 A 
ATOM     27  C   UNL     1       1.851   1.959  -4.041  0.00  0.00    -0.018 A 
ATOM     28  C   UNL     1       2.609   1.580  -2.920  0.00  0.00    +0.014 A 
ENDBRANCH   5  19
BRANCH   1  32
ATOM     29  C   UNL     1       8.417  -5.038  -4.044  0.00  0.00    +0.121 A 
ATOM     30  C   UNL     1       7.267  -4.714  -4.748  0.00  0.00    +0.046 A 
ATOM     31  C   UNL     1       6.525  -3.607  -4.384  0.00  0.00    +0.007 A 
ATOM     32  C   UNL     1       6.928  -2.822  -3.320  0.00  0.00    -0.043 A 
ATOM     33  C   UNL     1       8.078  -3.140  -2.620  0.00  0.00    +0.007 A 
ATOM     34  C   UNL     1       8.820  -4.249  -2.976  0.00  0.00    +0.046 A 
BRANCH  29  35
ATOM     35  O   UNL     1       9.149  -6.127  -4.399  0.00  0.00    -0.492 OA
BRANCH  35  37
ATOM     36  C   UNL     1      11.008  -7.655  -4.174  0.00  0.00    +0.048 C 
ATOM     37  C   UNL     1      10.321  -6.401  -3.630  0.00  0.00    +0.225 C 
ENDBRANCH  35  37
ENDBRANCH  29  35
ENDBRANCH   1  32
TORSDOF 4
