REMARK  Name = ZINC10519090
REMARK  5 active torsions:
REMARK  status: ('A' for Active; 'I' for Inactive)
REMARK    1  A    between atoms: C_1  and  C_2
REMARK    2  A    between atoms: C_7  and  S_23
REMARK    3  A    between atoms: N_11  and  S_12
REMARK    4  A    between atoms: S_12  and  C_15
REMARK    5  A    between atoms: S_23  and  N_26
REMARK                            x       y       z     vdW  Elec       q    Type
REMARK                         _______ _______ _______ _____ _____    ______ ____
ROOT
ATOM      1  C   UNL     1       0.002  -0.004   0.002  0.00  0.00    +0.030 C 
ATOM      2  C   UNL     1      -0.019   1.526   0.010  0.00  0.00    +0.099 C 
ATOM      3  C   UNL     1      -0.665   2.058  -1.279  0.00  0.00    +0.061 C 
ATOM      4  C   UNL     1       0.424   2.872  -1.942  0.00  0.00    -0.021 A 
ATOM      5  C   UNL     1       0.429   3.586  -3.124  0.00  0.00    +0.034 A 
ATOM      6  C   UNL     1       1.568   4.259  -3.524  0.00  0.00    +0.105 A 
ATOM      7  C   UNL     1       2.704   4.218  -2.736  0.00  0.00    +0.030 A 
ATOM      8  C   UNL     1       2.704   3.507  -1.555  0.00  0.00    +0.027 A 
ATOM      9  C   UNL     1       1.557   2.823  -1.145  0.00  0.00    +0.055 A 
ATOM     10  N   UNL     1       1.349   2.053   0.000  0.00  0.00    -0.200 N 
ENDROOT
BRANCH  10  11
ATOM     11  S   UNL     1       2.481   1.775   1.176  0.00  0.00    +0.075 S 
ATOM     12  O   UNL     1       3.411   2.848   1.106  0.00  0.00    -0.150 OA
ATOM     13  O   UNL     1       1.766   1.462   2.363  0.00  0.00    -0.150 OA
BRANCH  11  14
ATOM     14  C   UNL     1       3.360   0.317   0.718  0.00  0.00    +0.114 A 
ATOM     15  C   UNL     1       2.917  -0.919   1.148  0.00  0.00    +0.067 A 
ATOM     16  C   UNL     1       3.603  -2.066   0.784  0.00  0.00    +0.128 A 
ATOM     17  C   UNL     1       4.739  -1.972  -0.000  0.00  0.00    +0.076 A 
ATOM     18  C   UNL     1       5.185  -0.733  -0.425  0.00  0.00    +0.128 A 
ATOM     19  C   UNL     1       4.494   0.412  -0.065  0.00  0.00    +0.067 A 
ATOM     20  F   UNL     1       6.294  -0.640  -1.191  0.00  0.00    -0.205 F 
ATOM     21  F   UNL     1       3.166  -3.275   1.200  0.00  0.00    -0.205 F 
ENDBRANCH  11  14
ENDBRANCH  10  11
BRANCH   6  22
ATOM     22  S   UNL     1       1.573   5.168  -5.033  0.00  0.00    +0.056 S 
ATOM     23  O   UNL     1       0.219   5.498  -5.313  0.00  0.00    -0.153 OA
ATOM     24  O   UNL     1       2.588   6.156  -4.910  0.00  0.00    -0.153 OA
BRANCH  22  25
ATOM     25  N   UNL     1       2.064   4.132  -6.228  0.00  0.00    -0.204 NA
ATOM     26  H   UNL     1       2.283   3.212  -6.012  0.00  0.00    +0.144 HD
ATOM     27  H   UNL     1       2.133   4.445  -7.143  0.00  0.00    +0.144 HD
ENDBRANCH  22  25
ENDBRANCH   6  22
TORSDOF 4
