REMARK  Name = ZINC20019386
REMARK  5 active torsions:
REMARK  status: ('A' for Active; 'I' for Inactive)
REMARK    1  A    between atoms: C_1  and  C_2
REMARK    2  A    between atoms: C_2  and  C_3
REMARK    3  A    between atoms: C_2  and  N_4
REMARK    4  A    between atoms: C_7  and  N_10
REMARK    5  A    between atoms: N_10  and  C_11
REMARK                            x       y       z     vdW  Elec       q    Type
REMARK                         _______ _______ _______ _____ _____    ______ ____
ROOT
ATOM      1  N   UNL     1      -2.926   1.608  -2.365  0.00  0.00    +0.391 N 
ATOM      2  H   UNL     1      -4.018   1.645  -2.236  0.00  0.00    -0.084 HD
ATOM      3  H   UNL     1      -2.536   2.630  -2.487  0.00  0.00    -0.084 HD
ENDROOT
BRANCH   1   4
ATOM      4  C   UNL     1      -2.621   0.839  -3.578  0.00  0.00    +0.050 C 
ATOM      5  C   UNL     1      -2.723   1.719  -4.803  0.00  0.00    -0.018 A 
ATOM      6  C   UNL     1      -3.723   1.170  -5.596  0.00  0.00    +0.036 A 
ATOM      7  C   UNL     1      -4.037   1.784  -6.807  0.00  0.00    +0.023 A 
ATOM      8  C   UNL     1      -3.360   2.919  -7.204  0.00  0.00    +0.003 A 
ATOM      9  C   UNL     1      -2.368   3.457  -6.406  0.00  0.00    +0.015 A 
ATOM     10  C   UNL     1      -2.049   2.852  -5.201  0.00  0.00    +0.022 A 
ATOM     11 BR   UNL     1      -0.693   3.582  -4.104  0.00  0.00    -0.050 Br
ATOM     12  N   UNL     1      -4.253   0.033  -4.985  0.00  0.00    -0.286 N 
ATOM     13  C   UNL     1      -3.667  -0.231  -3.805  0.00  0.00    +0.208 C 
ATOM     14  O   UNL     1      -3.928  -1.153  -3.062  0.00  0.00    -0.277 OA
ATOM     15  H   UNL     1      -5.059  -0.531  -5.478  0.00  0.00    +0.155 HD
ENDBRANCH   1   4
BRANCH   1  19
ATOM     16  N   UNL     1      -1.076   1.284   1.411  0.00  0.00    -0.300 NA
ATOM     17  C   UNL     1      -0.268   0.900   0.247  0.00  0.00    +0.083 C 
ATOM     18  C   UNL     1      -0.879   1.501  -1.021  0.00  0.00    -0.000 C 
ATOM     19  C   UNL     1      -2.314   0.990  -1.181  0.00  0.00    -0.068 C 
ATOM     20  C   UNL     1      -3.122   1.360   0.066  0.00  0.00    -0.000 C 
ATOM     21  C   UNL     1      -2.445   0.763   1.302  0.00  0.00    +0.083 C 
BRANCH  16  23
ATOM     22  C   UNL     1      -1.247   1.365   3.853  0.00  0.00    +0.024 C 
ATOM     23  C   UNL     1      -0.443   0.841   2.661  0.00  0.00    +0.050 C 
ATOM     24  C   UNL     1      -0.409  -0.688   2.701  0.00  0.00    +0.024 C 
ENDBRANCH  16  23
ENDBRANCH   1  19
TORSDOF 3
