REMARK  Name = ZINC50701661
REMARK  5 active torsions:
REMARK  status: ('A' for Active; 'I' for Inactive)
REMARK    1  A    between atoms: C_1  and  N_2
REMARK    2  A    between atoms: N_2  and  C_3
REMARK    3  A    between atoms: C_9  and  C_11
REMARK    4  A    between atoms: C_13  and  N_21
REMARK    5  A    between atoms: C_16  and  N_17
REMARK                            x       y       z     vdW  Elec       q    Type
REMARK                         _______ _______ _______ _____ _____    ______ ____
ROOT
ATOM      1  C   UNL     1      -0.119   0.056  -2.448  0.00  0.00    +0.069 A 
ATOM      2  C   UNL     1       1.003   0.780  -2.857  0.00  0.00    +0.041 A 
ATOM      3  C   UNL     1       0.970   1.485  -4.049  0.00  0.00    +0.061 A 
ATOM      4  C   UNL     1      -0.180   1.470  -4.835  0.00  0.00    +0.146 A 
ATOM      5  C   UNL     1      -1.291   0.752  -4.429  0.00  0.00    +0.073 A 
ATOM      6  C   UNL     1      -1.265   0.042  -3.246  0.00  0.00    +0.141 A 
ATOM      7  F   UNL     1      -0.210   2.158  -5.997  0.00  0.00    -0.203 F 
ENDROOT
BRANCH   1  10
ATOM      8  C   UNL     1       0.113   1.419   0.012  0.00  0.00    +0.132 C 
ATOM      9  N   UNL     1       0.082  -0.046  -0.011  0.00  0.00    -0.297 N 
ATOM     10  C   UNL     1      -0.091  -0.698  -1.178  0.00  0.00    +0.249 C 
ATOM     11  O   UNL     1      -0.224  -1.906  -1.185  0.00  0.00    -0.270 OA
BRANCH   9  12
ATOM     12  C   UNL     1       0.239  -0.802   1.234  0.00  0.00    +0.087 C 
ATOM     13  C   UNL     1       1.622  -0.508   1.814  0.00  0.00    +0.034 C 
ATOM     14  C   UNL     1       1.555   0.713   2.774  0.00  0.00    +0.071 C 
ATOM     15  S   UNL     1      -0.057   0.364   3.604  0.00  0.00    -0.159 S 
ATOM     16  C   UNL     1      -0.915  -0.430   2.186  0.00  0.00    +0.091 C 
ENDBRANCH   9  12
ENDBRANCH   1  10
BRANCH   6  17
ATOM     17  N   UNL     1      -2.453  -0.730  -2.819  0.00  0.00    +0.057 N 
ATOM     18  O   UNL     1      -3.471  -0.681  -3.469  0.00  0.00    -0.126 OA
ATOM     19  O   UNL     1      -2.406  -1.410  -1.821  0.00  0.00    -0.126 OA
ENDBRANCH   6  17
BRANCH   3  20
ATOM     20  N   UNL     1       2.091   2.212  -4.462  0.00  0.00    -0.356 N 
ATOM     21  H   UNL     1       2.891   2.223  -3.914  0.00  0.00    +0.142 HD
ATOM     22  H   UNL     1       2.068   2.706  -5.297  0.00  0.00    +0.142 HD
ENDBRANCH   3  20
TORSDOF 4
