REMARK  Name = ZINC13305270
REMARK  4 active torsions:
REMARK  status: ('A' for Active; 'I' for Inactive)
REMARK    1  A    between atoms: N_16  and  C_17
REMARK    2  A    between atoms: C_17  and  C_19
REMARK    3  A    between atoms: C_20  and  C_21
REMARK    4  A    between atoms: C_25  and  N_27
REMARK                            x       y       z     vdW  Elec       q    Type
REMARK                         _______ _______ _______ _____ _____    ______ ____
ROOT
ATOM      1  C   UNL     1      -0.017   1.378   0.010  0.00  0.00    +0.000 A 
ATOM      2  C   UNL     1       1.171   2.089   0.002  0.00  0.00    +0.001 A 
ATOM      3  C   UNL     1       2.376   1.422  -0.020  0.00  0.00    +0.012 A 
ATOM      4  C   UNL     1       2.403   0.024  -0.030  0.00  0.00    +0.022 A 
ATOM      5  C   UNL     1       1.205  -0.684  -0.010  0.00  0.00    -0.019 A 
ATOM      6  C   UNL     1       0.002  -0.004   0.002  0.00  0.00    +0.006 A 
ATOM      7  C   UNL     1       1.212  -2.185   0.020  0.00  0.00    +0.147 C 
ATOM      8  N   UNL     1       1.841  -2.730  -1.181  0.00  0.00    -0.286 N 
ATOM      9  C   UNL     1       1.064  -3.458  -2.031  0.00  0.00    +0.091 C 
ATOM     10  C   UNL     1       1.582  -4.024  -3.146  0.00  0.00    +0.027 C 
ATOM     11  C   UNL     1       2.940  -3.857  -3.443  0.00  0.00    +0.019 C 
ATOM     12  C   UNL     1       3.719  -3.116  -2.605  0.00  0.00    +0.045 C 
ATOM     13  C   UNL     1       3.155  -2.530  -1.453  0.00  0.00    +0.128 C 
ATOM     14  N   UNL     1       3.950  -1.786  -0.696  0.00  0.00    -0.215 NA
ATOM     15  C   UNL     1       3.696  -0.676  -0.075  0.00  0.00    +0.155 C 
ATOM     16  N   UNL     1       4.708  -0.113   0.588  0.00  0.00    -0.157 NA
ATOM     17  I   UNL     1       0.357  -5.145  -4.423  0.00  0.00    -0.043 I 
ENDROOT
BRANCH  16  18
ATOM     18  C   UNL     1       5.913  -0.695   0.590  0.00  0.00    +0.262 C 
ATOM     19  O   UNL     1       6.086  -1.741  -0.014  0.00  0.00    -0.269 OA
BRANCH  18  20
ATOM     20  C   UNL     1       7.027  -0.075   1.320  0.00  0.00    +0.070 C 
ATOM     21  C   UNL     1       8.239  -0.661   1.323  0.00  0.00    +0.013 C 
BRANCH  21  22
ATOM     22  C   UNL     1       9.355  -0.040   2.054  0.00  0.00    -0.023 A 
ATOM     23  C   UNL     1       9.159   1.155   2.753  0.00  0.00    +0.008 A 
ATOM     24  C   UNL     1      10.209   1.731   3.436  0.00  0.00    +0.003 A 
ATOM     25  C   UNL     1      11.456   1.129   3.431  0.00  0.00    +0.033 A 
ATOM     26  C   UNL     1      11.658  -0.054   2.742  0.00  0.00    +0.127 A 
ATOM     27  C   UNL     1      10.615  -0.645   2.059  0.00  0.00    +0.040 A 
BRANCH  26  28
ATOM     28  N   UNL     1      12.995  -0.689   2.742  0.00  0.00    +0.056 N 
ATOM     29  O   UNL     1      13.908  -0.175   3.344  0.00  0.00    -0.126 OA
ATOM     30  O   UNL     1      13.173  -1.722   2.140  0.00  0.00    -0.126 OA
ENDBRANCH  26  28
ENDBRANCH  21  22
ENDBRANCH  18  20
ENDBRANCH  16  18
TORSDOF 4
