REMARK  Name = ZINC09864594
REMARK  6 active torsions:
REMARK  status: ('A' for Active; 'I' for Inactive)
REMARK    1  A    between atoms: C_1  and  C_2
REMARK    2  A    between atoms: C_3  and  C_34
REMARK    3  A    between atoms: C_11  and  C_13
REMARK    4  A    between atoms: C_13  and  C_27
REMARK    5  A    between atoms: C_14  and  C_15
REMARK    6  A    between atoms: C_18  and  C_20
REMARK                            x       y       z     vdW  Elec       q    Type
REMARK                         _______ _______ _______ _____ _____    ______ ____
ROOT
ATOM      1  C   UNL     1      -0.509  -5.272   2.381  0.00  0.00    +0.083 C 
ATOM      2  C   UNL     1       0.495  -5.111   1.436  0.00  0.00    +0.063 C 
ENDROOT
BRANCH   1  13
ATOM      3  C   UNL     1      -5.131  -0.589   3.482  0.00  0.00    +0.045 C 
ATOM      4  C   UNL     1      -3.684  -0.817   3.836  0.00  0.00    -0.026 A 
ATOM      5  C   UNL     1      -3.014   0.087   4.568  0.00  0.00    -0.008 A 
ATOM      6  S   UNL     1      -1.384  -0.622   4.710  0.00  0.00    -0.073 S 
ATOM      7  C   UNL     1      -1.650  -2.111   3.782  0.00  0.00    +0.116 A 
ATOM      8  C   UNL     1      -2.999  -2.015   3.388  0.00  0.00    +0.075 A 
ATOM      9  C   UNL     1      -3.500  -3.106   2.607  0.00  0.00    +0.260 A 
ATOM     10  O   UNL     1      -4.656  -3.109   2.220  0.00  0.00    -0.267 OA
ATOM     11  N   UNL     1      -2.676  -4.125   2.300  0.00  0.00    -0.306 N 
ATOM     12  H   UNL     1      -3.011  -4.864   1.768  0.00  0.00    +0.170 HD
ATOM     13  C   UNL     1      -1.376  -4.140   2.731  0.00  0.00    +0.147 A 
ATOM     14  N   UNL     1      -0.891  -3.146   3.452  0.00  0.00    -0.222 NA
ATOM     15  C   UNL     1      -3.518   1.389   5.134  0.00  0.00    +0.052 C 
ENDBRANCH   1  13
BRANCH   1  16
ATOM     16  C   UNL     1      -0.704  -6.574   3.029  0.00  0.00    +0.250 C 
ATOM     17  O   UNL     1      -0.086  -7.547   2.639  0.00  0.00    -0.270 OA
ATOM     18  N   UNL     1      -1.567  -6.692   4.058  0.00  0.00    -0.297 N 
ATOM     19  C   UNL     1      -2.436  -5.624   4.573  0.00  0.00    +0.108 C 
ATOM     20  C   UNL     1      -3.226  -6.210   5.763  0.00  0.00    +0.020 C 
ATOM     21  C   UNL     1      -2.340  -7.402   6.212  0.00  0.00    +0.020 C 
ATOM     22  C   UNL     1      -1.792  -7.911   4.855  0.00  0.00    +0.108 C 
ENDBRANCH   1  16
BRANCH   2  23
ATOM     23  C   UNL     1       0.597  -3.909   0.718  0.00  0.00    +0.129 A 
ATOM     24  C   UNL     1       1.516  -3.636  -0.286  0.00  0.00    +0.050 A 
ATOM     25  C   UNL     1       1.258  -2.339  -0.726  0.00  0.00    +0.050 A 
ATOM     26  C   UNL     1       0.204  -1.860   0.024  0.00  0.00    +0.138 A 
ATOM     27  O   UNL     1      -0.182  -2.818   0.884  0.00  0.00    -0.455 OA
BRANCH  26  28
ATOM     28  C   UNL     1      -0.403  -0.521  -0.101  0.00  0.00    +0.052 A 
ATOM     29  C   UNL     1      -1.774  -0.391  -0.338  0.00  0.00    +0.014 A 
ATOM     30  C   UNL     1      -2.334   0.864  -0.454  0.00  0.00    +0.001 A 
ATOM     31  C   UNL     1      -1.543   1.994  -0.336  0.00  0.00    +0.003 A 
ATOM     32  C   UNL     1      -0.185   1.875  -0.102  0.00  0.00    +0.039 A 
ATOM     33  C   UNL     1       0.392   0.625   0.017  0.00  0.00    +0.134 A 
ATOM     34  F   UNL     1       1.718   0.510   0.247  0.00  0.00    -0.205 F 
ENDBRANCH  26  28
ENDBRANCH   2  23
TORSDOF 4
