REMARK  Name = ZINC63865021
REMARK  7 active torsions:
REMARK  status: ('A' for Active; 'I' for Inactive)
REMARK    1  A    between atoms: C_1  and  C_2
REMARK    2  A    between atoms: C_2  and  C_3
REMARK    3  A    between atoms: C_2  and  C_4
REMARK    4  A    between atoms: C_6  and  C_26
REMARK    5  A    between atoms: C_7  and  N_9
REMARK    6  A    between atoms: N_9  and  N_10
REMARK    7  A    between atoms: C_11  and  C_13
REMARK                            x       y       z     vdW  Elec       q    Type
REMARK                         _______ _______ _______ _____ _____    ______ ____
ROOT
ATOM      1  N   UNL     1      -3.752  -2.938  -2.499  0.00  0.00    -0.230 N 
ATOM      2  C   UNL     1      -4.636  -3.689  -3.186  0.00  0.00    +0.267 C 
ATOM      3  O   UNL     1      -5.764  -3.847  -2.756  0.00  0.00    -0.268 OA
ATOM      4  H   UNL     1      -2.853  -2.812  -2.842  0.00  0.00    +0.173 HD
ENDROOT
BRANCH   2   5
ATOM      5  C   UNL     1      -4.239  -4.314  -4.450  0.00  0.00    +0.076 A 
ATOM      6  C   UNL     1      -4.992  -5.110  -5.302  0.00  0.00    +0.028 A 
ATOM      7  C   UNL     1      -4.424  -5.599  -6.449  0.00  0.00    +0.005 A 
ATOM      8  C   UNL     1      -3.087  -5.243  -6.678  0.00  0.00    +0.030 A 
ATOM      9  S   UNL     1      -2.664  -4.240  -5.294  0.00  0.00    -0.083 S 
ATOM     10  C   UNL     1      -2.354  -5.681  -7.859  0.00  0.00    +0.031 A 
ATOM     11  C   UNL     1      -0.979  -5.581  -8.003  0.00  0.00    +0.012 A 
ATOM     12  C   UNL     1      -0.377  -6.041  -9.159  0.00  0.00    +0.001 A 
ATOM     13  C   UNL     1      -1.144  -6.599 -10.167  0.00  0.00    +0.004 A 
ATOM     14  C   UNL     1      -2.517  -6.698 -10.037  0.00  0.00    +0.046 A 
ATOM     15  C   UNL     1      -3.141  -6.236  -8.893  0.00  0.00    +0.129 A 
ATOM     16  O   UNL     1      -4.487  -6.280  -8.758  0.00  0.00    -0.487 OA
ATOM     17  C   UNL     1      -5.100  -6.488  -7.487  0.00  0.00    +0.265 C 
ENDBRANCH   2   5
BRANCH   1  18
ATOM     18  N   UNL     1      -4.131  -2.340  -1.291  0.00  0.00    -0.232 N 
ATOM     19  H   UNL     1      -5.030  -2.466  -0.948  0.00  0.00    +0.173 HD
BRANCH  18  23
ATOM     20  C   UNL     1      -1.412  -0.526   0.013  0.00  0.00    +0.202 A 
ATOM     21  N   UNL     1      -2.289  -0.286   0.939  0.00  0.00    -0.200 NA
ATOM     22  C   UNL     1      -3.451  -0.920   0.613  0.00  0.00    +0.202 A 
ATOM     23  C   UNL     1      -3.227  -1.571  -0.588  0.00  0.00    +0.241 A 
ATOM     24  O   UNL     1      -1.956  -1.303  -0.938  0.00  0.00    -0.423 OA
BRANCH  20  26
ATOM     25  C   UNL     1      -0.019   1.526   0.010  0.00  0.00    +0.017 C 
ATOM     26  C   UNL     1       0.002  -0.004   0.002  0.00  0.00    +0.069 C 
ATOM     27  C   UNL     1       0.742  -0.511   1.242  0.00  0.00    +0.017 C 
ENDBRANCH  20  26
BRANCH  22  28
ATOM     28  C   UNL     1      -4.668  -0.914   1.368  0.00  0.00    +0.124 C 
ATOM     29  N   UNL     1      -5.633  -0.909   1.966  0.00  0.00    -0.189 NA
ENDBRANCH  22  28
ENDBRANCH  18  23
ENDBRANCH   1  18
TORSDOF 5
