REMARK  Name = ZINC14579268
REMARK  11 active torsions:
REMARK  status: ('A' for Active; 'I' for Inactive)
REMARK    1  A    between atoms: C_1  and  C_2
REMARK    2  A    between atoms: C_2  and  C_3
REMARK    3  A    between atoms: C_2  and  C_4
REMARK    4  A    between atoms: C_4  and  C_5
REMARK    5  A    between atoms: C_5  and  N_6
REMARK    6  A    between atoms: N_6  and  C_7
REMARK    7  A    between atoms: C_8  and  N_23
REMARK    8  A    between atoms: N_9  and  C_16
REMARK    9  A    between atoms: C_16  and  C_17
REMARK   10  A    between atoms: C_24  and  C_26
REMARK   11  A    between atoms: C_27  and  C_28
REMARK                            x       y       z     vdW  Elec       q    Type
REMARK                         _______ _______ _______ _____ _____    ______ ____
ROOT
ATOM      1  C   UNL     1      -3.064   5.463  -3.311  0.00  0.00    +0.140 A 
ATOM      2  C   UNL     1      -2.543   4.223  -3.621  0.00  0.00    +0.128 A 
ATOM      3  N   UNL     1      -2.957   3.124  -2.905  0.00  0.00    -0.276 N 
ATOM      4  C   UNL     1      -3.851   3.257  -1.908  0.00  0.00    +0.331 A 
ATOM      5  O   UNL     1      -4.200   2.273  -1.284  0.00  0.00    -0.246 OA
ATOM      6  N   UNL     1      -4.365   4.458  -1.589  0.00  0.00    -0.273 N 
ATOM      7  H   UNL     1      -5.028   4.529  -0.844  0.00  0.00    +0.173 HD
ATOM      8  C   UNL     1      -3.998   5.566  -2.263  0.00  0.00    +0.277 A 
ATOM      9  O   UNL     1      -4.470   6.650  -1.965  0.00  0.00    -0.266 OA
ENDROOT
BRANCH   1  10
ATOM     10  N   UNL     1      -2.664   6.609  -4.030  0.00  0.00    -0.261 N 
ATOM     11  C   UNL     1      -1.966   7.582  -3.413  0.00  0.00    +0.244 C 
ATOM     12  O   UNL     1      -1.600   7.431  -2.261  0.00  0.00    -0.270 OA
BRANCH  11  13
ATOM     13  C   UNL     1      -1.648   8.819  -4.126  0.00  0.00    +0.068 C 
ATOM     14  C   UNL     1      -0.949   9.793  -3.508  0.00  0.00    +0.013 C 
BRANCH  14  15
ATOM     15  C   UNL     1      -0.628  11.037  -4.225  0.00  0.00    -0.025 A 
ATOM     16  C   UNL     1      -1.043  11.211  -5.550  0.00  0.00    +0.011 A 
ATOM     17  C   UNL     1      -0.744  12.381  -6.214  0.00  0.00    +0.039 A 
ATOM     18  C   UNL     1      -0.026  13.380  -5.576  0.00  0.00    +0.123 A 
ATOM     19  C   UNL     1       0.393  13.212  -4.264  0.00  0.00    +0.039 A 
ATOM     20  C   UNL     1       0.096  12.049  -3.587  0.00  0.00    +0.011 A 
ATOM     21  F   UNL     1       0.268  14.523  -6.234  0.00  0.00    -0.205 F 
ENDBRANCH  14  15
ENDBRANCH  11  13
BRANCH  10  22
ATOM     22  C   UNL     1      -3.008   6.741  -5.448  0.00  0.00    +0.114 C 
BRANCH  22  23
ATOM     23  C   UNL     1      -4.312   7.529  -5.585  0.00  0.00    +0.022 C 
BRANCH  23  25
ATOM     24  C   UNL     1      -6.036   8.346  -7.199  0.00  0.00    +0.007 C 
ATOM     25  C   UNL     1      -4.671   7.668  -7.066  0.00  0.00    -0.016 C 
ATOM     26  C   UNL     1      -3.610   8.514  -7.771  0.00  0.00    +0.007 C 
ENDBRANCH  23  25
ENDBRANCH  22  23
ENDBRANCH  10  22
ENDBRANCH   1  10
BRANCH   2  27
ATOM     27  N   UNL     1      -1.626   4.088  -4.635  0.00  0.00    -0.343 N 
ATOM     28  H   UNL     1      -1.227   3.222  -4.816  0.00  0.00    +0.144 HD
ATOM     29  H   UNL     1      -1.377   4.858  -5.170  0.00  0.00    +0.144 HD
ENDBRANCH   2  27
BRANCH   3  30
ATOM     30  C   UNL     1      -2.417   1.800  -3.226  0.00  0.00    +0.163 C 
BRANCH  30  31
ATOM     31  C   UNL     1      -3.292   1.138  -4.259  0.00  0.00    -0.028 A 
ATOM     32  C   UNL     1      -4.360   0.356  -3.861  0.00  0.00    +0.005 A 
ATOM     33  C   UNL     1      -5.160  -0.256  -4.809  0.00  0.00    +0.000 A 
ATOM     34  C   UNL     1      -4.897  -0.077  -6.154  0.00  0.00    +0.000 A 
ATOM     35  C   UNL     1      -3.832   0.709  -6.552  0.00  0.00    +0.000 A 
ATOM     36  C   UNL     1      -3.029   1.317  -5.605  0.00  0.00    +0.005 A 
ENDBRANCH  30  31
ENDBRANCH   3  30
TORSDOF 9
