REMARK  Name = ZINC08683767
REMARK  6 active torsions:
REMARK  status: ('A' for Active; 'I' for Inactive)
REMARK    1  A    between atoms: C_1  and  C_2
REMARK    2  A    between atoms: C_4  and  C_34
REMARK    3  A    between atoms: N_11  and  N_12
REMARK    4  A    between atoms: C_13  and  C_15
REMARK    5  A    between atoms: C_18  and  S_21
REMARK    6  A    between atoms: S_21  and  N_24
REMARK                            x       y       z     vdW  Elec       q    Type
REMARK                         _______ _______ _______ _____ _____    ______ ____
ROOT
ATOM      1  C   UNL     1       0.106  -5.261   6.942  0.00  0.00    +0.038 A 
ATOM      2  C   UNL     1       0.083  -3.904   7.268  0.00  0.00    +0.015 A 
ATOM      3  C   UNL     1       0.084  -3.515   8.591  0.00  0.00    +0.029 A 
ATOM      4  C   UNL     1       0.107  -4.466   9.595  0.00  0.00    +0.106 A 
ATOM      5  C   UNL     1       0.131  -5.813   9.280  0.00  0.00    +0.029 A 
ATOM      6  C   UNL     1       0.124  -6.216   7.960  0.00  0.00    +0.015 A 
ENDROOT
BRANCH   1   8
ATOM      7  N   UNL     1       0.089  -4.760   4.546  0.00  0.00    -0.231 N 
ATOM      8  C   UNL     1       0.106  -5.685   5.526  0.00  0.00    +0.260 C 
ATOM      9  O   UNL     1       0.121  -6.868   5.246  0.00  0.00    -0.269 OA
ATOM     10  H   UNL     1       0.077  -3.817   4.769  0.00  0.00    +0.173 HD
BRANCH   7  21
ATOM     11  C   UNL     1      -0.018   1.503   0.010  0.00  0.00    +0.044 C 
ATOM     12  C   UNL     1       0.002  -0.004   0.002  0.00  0.00    -0.048 A 
ATOM     13  C   UNL     1       0.005  -0.675  -1.212  0.00  0.00    +0.008 A 
ATOM     14  C   UNL     1       0.025  -2.058  -1.221  0.00  0.00    -0.034 A 
ATOM     15  C   UNL     1       0.040  -2.743  -0.032  0.00  0.00    +0.044 A 
ATOM     16  C   UNL     1       0.037  -2.094   1.223  0.00  0.00    +0.081 A 
ATOM     17  C   UNL     1       0.023  -0.680   1.194  0.00  0.00    +0.032 A 
ATOM     18  N   UNL     1       0.053  -2.906   2.303  0.00  0.00    -0.224 NA
ATOM     19  C   UNL     1       0.071  -4.215   2.200  0.00  0.00    +0.176 A 
ATOM     20  S   UNL     1       0.066  -4.459   0.429  0.00  0.00    -0.051 S 
ATOM     21  N   UNL     1       0.088  -5.162   3.204  0.00  0.00    -0.242 N 
ATOM     22  C   UNL     1       0.028  -2.808  -2.528  0.00  0.00    +0.045 C 
ATOM     23  H   UNL     1       0.101  -6.106   2.980  0.00  0.00    +0.172 HD
ENDBRANCH   7  21
ENDBRANCH   1   8
BRANCH   4  24
ATOM     24  S   UNL     1       0.108  -3.961  11.283  0.00  0.00    +0.061 S 
ATOM     25  O   UNL     1       0.683  -5.027  12.026  0.00  0.00    -0.153 OA
ATOM     26  O   UNL     1       0.635  -2.641  11.312  0.00  0.00    -0.153 OA
BRANCH  24  27
ATOM     27  N   UNL     1      -1.473  -3.849  11.762  0.00  0.00    -0.172 NA
ATOM     28  C   UNL     1      -2.230  -2.595  11.617  0.00  0.00    +0.114 C 
ATOM     29  C   UNL     1      -3.368  -2.845  10.629  0.00  0.00    +0.052 C 
ATOM     30  C   UNL     1      -4.101  -4.117  10.965  0.00  0.00    -0.042 A 
ATOM     31  C   UNL     1      -5.386  -4.273  10.459  0.00  0.00    +0.004 A 
ATOM     32  C   UNL     1      -6.109  -5.418  10.722  0.00  0.00    +0.000 A 
ATOM     33  C   UNL     1      -5.552  -6.421  11.494  0.00  0.00    +0.000 A 
ATOM     34  C   UNL     1      -4.278  -6.267  12.000  0.00  0.00    +0.005 A 
ATOM     35  C   UNL     1      -3.551  -5.112  11.742  0.00  0.00    -0.028 A 
ATOM     36  C   UNL     1      -2.177  -4.998  12.342  0.00  0.00    +0.144 C 
ENDBRANCH  24  27
ENDBRANCH   4  24
TORSDOF 4
