REMARK  Name = ZINC57566621
REMARK  8 active torsions:
REMARK  status: ('A' for Active; 'I' for Inactive)
REMARK    1  A    between atoms: C_4  and  C_7
REMARK    2  A    between atoms: C_7  and  N_8
REMARK    3  A    between atoms: C_9  and  N_37
REMARK    4  A    between atoms: C_10  and  N_17
REMARK    5  A    between atoms: N_17  and  C_18
REMARK    6  A    between atoms: C_18  and  C_19
REMARK    7  A    between atoms: C_25  and  C_27
REMARK    8  A    between atoms: N_32  and  C_34
REMARK                            x       y       z     vdW  Elec       q    Type
REMARK                         _______ _______ _______ _____ _____    ______ ____
ROOT
ATOM      1  N   UNL     1       4.223  -2.195   3.071  0.00  0.00    -0.276 N 
ATOM      2  C   UNL     1       4.894  -1.210   3.758  0.00  0.00    +0.128 A 
ATOM      3  C   UNL     1       5.731  -0.358   3.067  0.00  0.00    +0.140 A 
ATOM      4  C   UNL     1       5.872  -0.523   1.677  0.00  0.00    +0.277 A 
ATOM      5  O   UNL     1       6.605   0.216   1.042  0.00  0.00    -0.266 OA
ATOM      6  N   UNL     1       5.191  -1.504   1.051  0.00  0.00    -0.273 N 
ATOM      7  H   UNL     1       5.288  -1.619   0.093  0.00  0.00    +0.173 HD
ATOM      8  C   UNL     1       4.384  -2.329   1.742  0.00  0.00    +0.331 A 
ATOM      9  O   UNL     1       3.786  -3.209   1.153  0.00  0.00    -0.246 OA
ENDROOT
BRANCH   3  10
ATOM     10  N   UNL     1       6.433   0.662   3.743  0.00  0.00    -0.260 N 
ATOM     11  C   UNL     1       6.132   1.957   3.511  0.00  0.00    +0.225 C 
ATOM     12  O   UNL     1       5.317   2.247   2.660  0.00  0.00    -0.275 OA
BRANCH  11  13
ATOM     13  C   UNL     1       6.808   3.043   4.308  0.00  0.00    +0.101 C 
ATOM     14  C   UNL     1       6.127   3.224   5.684  0.00  0.00    +0.110 C 
ATOM     15  C   UNL     1       6.174   4.716   5.928  0.00  0.00    +0.217 C 
ATOM     16  O   UNL     1       6.002   5.250   7.003  0.00  0.00    -0.276 OA
ATOM     17  N   UNL     1       6.435   5.364   4.780  0.00  0.00    -0.298 N 
ATOM     18  C   UNL     1       6.582   4.426   3.659  0.00  0.00    +0.121 C 
BRANCH  17  19
ATOM     19  C   UNL     1       6.558   6.819   4.661  0.00  0.00    +0.076 C 
ATOM     20  C   UNL     1       6.579   7.634   5.956  0.00  0.00    +0.024 C 
ATOM     21  C   UNL     1       5.345   7.665   5.053  0.00  0.00    +0.024 C 
ENDBRANCH  17  19
ENDBRANCH  11  13
BRANCH  10  22
ATOM     22  C   UNL     1       7.489   0.316   4.698  0.00  0.00    +0.149 C 
BRANCH  22  23
ATOM     23  C   UNL     1       8.782   0.093   3.957  0.00  0.00    -0.030 A 
ATOM     24  C   UNL     1       9.068  -1.151   3.425  0.00  0.00    +0.005 A 
ATOM     25  C   UNL     1      10.254  -1.355   2.746  0.00  0.00    +0.000 A 
ATOM     26  C   UNL     1      11.155  -0.317   2.598  0.00  0.00    +0.000 A 
ATOM     27  C   UNL     1      10.868   0.927   3.130  0.00  0.00    +0.000 A 
ATOM     28  C   UNL     1       9.680   1.133   3.806  0.00  0.00    +0.005 A 
ENDBRANCH  22  23
ENDBRANCH  10  22
ENDBRANCH   3  10
BRANCH   2  29
ATOM     29  N   UNL     1       4.733  -1.077   5.116  0.00  0.00    -0.343 N 
ATOM     30  H   UNL     1       4.088  -1.630   5.585  0.00  0.00    +0.144 HD
ATOM     31  H   UNL     1       5.264  -0.430   5.606  0.00  0.00    +0.144 HD
ENDBRANCH   2  29
BRANCH   1  32
ATOM     32  C   UNL     1       3.331  -3.107   3.791  0.00  0.00    +0.163 C 
BRANCH  32  36
ATOM     33  C   UNL     1       5.544  -6.511   5.121  0.00  0.00    +0.000 A 
ATOM     34  C   UNL     1       5.439  -5.395   5.931  0.00  0.00    +0.000 A 
ATOM     35  C   UNL     1       4.723  -4.294   5.500  0.00  0.00    +0.005 A 
ATOM     36  C   UNL     1       4.112  -4.308   4.260  0.00  0.00    -0.028 A 
ATOM     37  C   UNL     1       4.219  -5.423   3.450  0.00  0.00    +0.005 A 
ATOM     38  C   UNL     1       4.934  -6.524   3.881  0.00  0.00    +0.000 A 
ENDBRANCH  32  36
ENDBRANCH   1  32
TORSDOF 8
