REMARK  Name = ZINC15084738
REMARK  13 active torsions:
REMARK  status: ('A' for Active; 'I' for Inactive)
REMARK    1  A    between atoms: C_1  and  C_2
REMARK    2  A    between atoms: C_2  and  O_3
REMARK    3  A    between atoms: O_3  and  C_4
REMARK    4  A    between atoms: C_4  and  C_6
REMARK    5  A    between atoms: C_9  and  C_12
REMARK    6  A    between atoms: C_12  and  C_13
REMARK    7  A    between atoms: C_14  and  C_26
REMARK    8  A    between atoms: C_15  and  O_24
REMARK    9  A    between atoms: C_18  and  O_19
REMARK   10  A    between atoms: O_19  and  C_20
REMARK   11  A    between atoms: O_24  and  C_25
REMARK   12  A    between atoms: C_28  and  C_39
REMARK   13  A    between atoms: C_29  and  N_38
REMARK                            x       y       z     vdW  Elec       q    Type
REMARK                         _______ _______ _______ _____ _____    ______ ____
ROOT
ATOM      1  C   UNL     1      -1.931   9.718   3.275  0.00  0.00    +0.009 A 
ATOM      2  C   UNL     1      -1.527  10.413   2.149  0.00  0.00    +0.018 A 
ATOM      3  C   UNL     1      -0.982  11.681   2.274  0.00  0.00    +0.170 A 
ATOM      4  C   UNL     1      -0.840  12.257   3.531  0.00  0.00    +0.211 A 
ATOM      5  C   UNL     1      -1.246  11.558   4.662  0.00  0.00    +0.211 A 
ATOM      6  C   UNL     1      -1.797  10.289   4.530  0.00  0.00    +0.169 A 
ATOM      7  O   UNL     1      -1.004  12.330   5.763  0.00  0.00    -0.449 OA
ATOM      8  C   UNL     1      -0.825  13.668   5.263  0.00  0.00    +0.467 C 
ATOM      9  O   UNL     1      -0.343  13.469   3.921  0.00  0.00    -0.449 OA
ENDROOT
BRANCH   2  10
ATOM     10  C   UNL     1      -1.680   9.791   0.785  0.00  0.00    +0.105 C 
ATOM     11  C   UNL     1      -0.362   9.840   0.064  0.00  0.00    +0.098 C 
ATOM     12  C   UNL     1      -0.137  10.777  -0.889  0.00  0.00    +0.198 C 
ATOM     13  O   UNL     1      -1.072  11.683  -1.213  0.00  0.00    -0.445 OA
ATOM     14  C   UNL     1      -2.367  11.434  -0.942  0.00  0.00    +0.115 C 
ATOM     15  C   UNL     1      -2.727  10.548   0.004  0.00  0.00    +0.046 C 
ATOM     16  C   UNL     1      -4.082  10.300   0.297  0.00  0.00    +0.163 C 
ATOM     17  O   UNL     1      -4.367   9.482   1.150  0.00  0.00    -0.292 OA
ATOM     18  C   UNL     1      -5.182  11.027  -0.426  0.00  0.00    +0.080 C 
ATOM     19  C   UNL     1      -4.659  12.395  -0.877  0.00  0.00    +0.016 C 
ATOM     20  C   UNL     1      -3.413  12.178  -1.739  0.00  0.00    +0.075 C 
BRANCH  12  21
ATOM     21  N   UNL     1       1.074  10.799  -1.537  0.00  0.00    -0.328 N 
ATOM     22  H   UNL     1       1.757  10.149  -1.310  0.00  0.00    +0.145 HD
ATOM     23  H   UNL     1       1.246  11.465  -2.220  0.00  0.00    +0.145 HD
ENDBRANCH  12  21
BRANCH  11  24
ATOM     24  C   UNL     1       0.661   8.891   0.386  0.00  0.00    +0.101 C 
ATOM     25  N   UNL     1       1.473   8.139   0.641  0.00  0.00    -0.191 NA
ENDBRANCH  11  24
ENDBRANCH   2  10
BRANCH   6  26
ATOM     26  O   UNL     1      -2.200   9.604   5.635  0.00  0.00    -0.491 OA
ATOM     27  C   UNL     1      -1.196   8.889   6.357  0.00  0.00    +0.277 C 
ENDBRANCH   6  26
BRANCH   3  28
ATOM     28  O   UNL     1      -0.585  12.362   1.165  0.00  0.00    -0.491 OA
ATOM     29  C   UNL     1      -1.384  13.479   0.769  0.00  0.00    +0.277 C 
ENDBRANCH   3  28
BRANCH   1  30
ATOM     30  C   UNL     1      -2.523   8.339   3.135  0.00  0.00    +0.087 C 
BRANCH  30  34
ATOM     31  C   UNL     1      -0.967   5.083   2.474  0.00  0.00    +0.167 C 
ATOM     32  N   UNL     1      -0.208   5.928   1.860  0.00  0.00    -0.082 NA
ATOM     33  O   UNL     1      -0.579   7.272   2.095  0.00  0.00    -0.389 OA
ATOM     34  C   UNL     1      -1.415   7.292   3.270  0.00  0.00    +0.215 C 
ATOM     35  C   UNL     1      -2.003   5.861   3.263  0.00  0.00    +0.113 C 
BRANCH  31  36
ATOM     36  C   UNL     1      -0.844   3.615   2.421  0.00  0.00    +0.357 C 
ATOM     37  O   UNL     1      -1.616   2.918   3.048  0.00  0.00    -0.243 OA
BRANCH  36  38
ATOM     38  O   UNL     1       0.126   3.046   1.678  0.00  0.00    -0.461 OA
BRANCH  38  40
ATOM     39  C   UNL     1       1.343   1.136   0.781  0.00  0.00    +0.048 C 
ATOM     40  C   UNL     1       0.188   1.595   1.673  0.00  0.00    +0.229 C 
ENDBRANCH  38  40
ENDBRANCH  36  38
ENDBRANCH  31  36
ENDBRANCH  30  34
ENDBRANCH   1  30
TORSDOF 10
