REMARK  Name = ZINC24950532
REMARK  7 active torsions:
REMARK  status: ('A' for Active; 'I' for Inactive)
REMARK    1  A    between atoms: C_4  and  C_7
REMARK    2  A    between atoms: C_10  and  O_13
REMARK    3  A    between atoms: O_13  and  C_14
REMARK    4  A    between atoms: C_14  and  C_15
REMARK    5  A    between atoms: C_15  and  C_17
REMARK    6  A    between atoms: C_15  and  O_34
REMARK    7  A    between atoms: C_17  and  N_18
REMARK                            x       y       z     vdW  Elec       q    Type
REMARK                         _______ _______ _______ _____ _____    ______ ____
ROOT
ATOM      1  C   UNL     1       6.421   0.466  -2.337  0.00  0.00    +0.152 C 
ENDROOT
BRANCH   1   2
ATOM      2  N   UNL     1       5.494   0.124  -1.256  0.00  0.00    -0.221 N 
ATOM      3  C   UNL     1       4.348  -0.566  -1.429  0.00  0.00    +0.251 C 
ATOM      4  O   UNL     1       3.905  -1.002  -2.470  0.00  0.00    -0.272 OA
ATOM      5  C   UNL     1       3.731  -0.679  -0.053  0.00  0.00    +0.138 C 
ATOM      6  C   UNL     1       3.614  -2.143   0.354  0.00  0.00    +0.040 C 
ATOM      7  C   UNL     1       2.490  -2.786  -0.467  0.00  0.00    +0.008 C 
ATOM      8  C   UNL     1       1.157  -2.199  -0.006  0.00  0.00    +0.035 C 
ATOM      9  C   UNL     1       1.207  -0.693  -0.013  0.00  0.00    -0.042 A 
ATOM     10  C   UNL     1       2.394   0.007  -0.026  0.00  0.00    -0.012 A 
ATOM     11  C   UNL     1       2.373   1.395  -0.016  0.00  0.00    +0.006 A 
ATOM     12  C   UNL     1       1.174   2.078   0.002  0.00  0.00    +0.000 A 
ATOM     13  C   UNL     1      -0.017   1.376   0.010  0.00  0.00    +0.000 A 
ATOM     14  C   UNL     1       0.002  -0.004   0.002  0.00  0.00    +0.004 A 
ATOM     15  N   UNL     1       4.682   0.022   0.820  0.00  0.00    -0.281 N 
ATOM     16  C   UNL     1       5.679   0.456   0.028  0.00  0.00    +0.310 C 
ATOM     17  O   UNL     1       6.641   1.081   0.432  0.00  0.00    -0.252 OA
ATOM     18  H   UNL     1       4.484   0.098   1.900  0.00  0.00    +0.152 HD
ENDBRANCH   1   2
BRANCH   1  19
ATOM     19  C   UNL     1       6.033   1.821  -2.932  0.00  0.00    +0.170 C 
BRANCH  19  20
ATOM     20  O   UNL     1       6.208   2.842  -1.946  0.00  0.00    -0.387 OA
ATOM     21  H   UNL     1       5.647   2.796  -1.001  0.00  0.00    +0.210 HD
ENDBRANCH  19  20
BRANCH  19  22
ATOM     22  C   UNL     1       6.921   2.122  -4.140  0.00  0.00    +0.261 C 
BRANCH  22  23
ATOM     23  O   UNL     1       6.484   3.330  -4.765  0.00  0.00    -0.489 OA
BRANCH  23  27
ATOM     24  C   UNL     1       8.575   4.581  -8.098  0.00  0.00    -0.018 A 
ATOM     25  C   UNL     1       7.496   5.328  -7.630  0.00  0.00    +0.012 A 
ATOM     26  C   UNL     1       6.799   4.907  -6.517  0.00  0.00    +0.046 A 
ATOM     27  C   UNL     1       7.172   3.741  -5.862  0.00  0.00    +0.121 A 
ATOM     28  C   UNL     1       8.250   2.998  -6.322  0.00  0.00    +0.046 A 
ATOM     29  C   UNL     1       8.948   3.411  -7.439  0.00  0.00    +0.012 A 
BRANCH  24  33
ATOM     30  C   UNL     1      10.729   5.868 -11.531  0.00  0.00    +0.000 A 
ATOM     31  C   UNL     1      11.102   4.707 -10.879  0.00  0.00    +0.001 A 
ATOM     32  C   UNL     1      10.407   4.284  -9.764  0.00  0.00    +0.008 A 
ATOM     33  C   UNL     1       9.327   5.030  -9.296  0.00  0.00    -0.018 A 
ATOM     34  C   UNL     1       8.952   6.196  -9.960  0.00  0.00    +0.008 A 
ATOM     35  C   UNL     1       9.658   6.613 -11.070  0.00  0.00    +0.001 A 
ENDBRANCH  24  33
ENDBRANCH  23  27
ENDBRANCH  22  23
ENDBRANCH  19  22
ENDBRANCH   1  19
TORSDOF 7
