REMARK  Name = ZINC09287009
REMARK  5 active torsions:
REMARK  status: ('A' for Active; 'I' for Inactive)
REMARK    1  A    between atoms: C_1  and  C_2
REMARK    2  A    between atoms: C_5  and  N_8
REMARK    3  A    between atoms: C_16  and  C_26
REMARK    4  A    between atoms: C_16  and  C_30
REMARK    5  A    between atoms: C_17  and  C_19
REMARK                            x       y       z     vdW  Elec       q    Type
REMARK                         _______ _______ _______ _____ _____    ______ ____
ROOT
ATOM      1  N   UNL     1       3.813   3.698  -0.704  0.00  0.00    -0.250 N 
ATOM      2  C   UNL     1       2.817   3.857   0.218  0.00  0.00    +0.124 A 
ATOM      3  C   UNL     1       1.733   3.006   0.194  0.00  0.00    +0.098 A 
ATOM      4  C   UNL     1       1.684   2.007  -0.783  0.00  0.00    +0.262 A 
ATOM      5  N   UNL     1       2.679   1.894  -1.656  0.00  0.00    -0.274 N 
ATOM      6  C   UNL     1       3.721   2.720  -1.626  0.00  0.00    +0.335 A 
ATOM      7  O   UNL     1       4.614   2.586  -2.447  0.00  0.00    -0.246 OA
ATOM      8  O   UNL     1       0.633   1.158  -0.836  0.00  0.00    -0.267 OA
ATOM      9  C   UNL     1       0.630   3.147   1.202  0.00  0.00    +0.264 C 
ATOM     10  C   UNL     1       1.733   5.202   1.854  0.00  0.00    +0.106 C 
ATOM     11  N   UNL     1       2.878   4.850   1.167  0.00  0.00    -0.286 N 
ATOM     12  H   UNL     1       2.645   1.173  -2.348  0.00  0.00    +0.173 HD
ATOM     13  H   UNL     1       3.718   5.299   1.352  0.00  0.00    +0.155 HD
ATOM     14  N   UNL     1       0.618   4.467   1.927  0.00  0.00    -0.348 N 
ATOM     15  H   UNL     1      -0.205   4.787   2.451  0.00  0.00    +0.162 HD
ENDROOT
BRANCH   1  20
ATOM     16  C   UNL     1       8.317   7.149  -0.654  0.00  0.00    +0.044 C 
ATOM     17  C   UNL     1       7.121   6.233  -0.667  0.00  0.00    -0.050 A 
ATOM     18  C   UNL     1       7.148   5.053   0.053  0.00  0.00    +0.005 A 
ATOM     19  C   UNL     1       6.053   4.211   0.043  0.00  0.00    +0.026 A 
ATOM     20  C   UNL     1       4.925   4.550  -0.692  0.00  0.00    +0.053 A 
ATOM     21  C   UNL     1       4.902   5.734  -1.418  0.00  0.00    +0.026 A 
ATOM     22  C   UNL     1       5.998   6.574  -1.399  0.00  0.00    +0.005 A 
ENDBRANCH   1  20
BRANCH  10  23
ATOM     23  C   UNL     1       1.697   6.490   2.583  0.00  0.00    +0.014 A 
ATOM     24  C   UNL     1       0.552   6.866   3.284  0.00  0.00    +0.011 A 
ATOM     25  C   UNL     1       0.524   8.067   3.962  0.00  0.00    +0.002 A 
ATOM     26  C   UNL     1       1.629   8.899   3.947  0.00  0.00    +0.020 A 
ATOM     27  C   UNL     1       2.769   8.532   3.254  0.00  0.00    +0.042 A 
ATOM     28  C   UNL     1       2.811   7.329   2.576  0.00  0.00    +0.031 A 
ATOM     29 CL   UNL     1       4.152   9.582   3.242  0.00  0.00    -0.084 Cl
ENDBRANCH  10  23
BRANCH   9  30
ATOM     30  C   UNL     1      -0.719   3.019   0.490  0.00  0.00    +0.426 C 
ATOM     31  F   UNL     1      -0.982   1.670   0.228  0.00  0.00    -0.167 F 
ATOM     32  F   UNL     1      -1.728   3.542   1.306  0.00  0.00    -0.167 F 
ATOM     33  F   UNL     1      -0.679   3.729  -0.715  0.00  0.00    -0.167 F 
ENDBRANCH   9  30
BRANCH   9  34
ATOM     34  C   UNL     1       0.754   2.030   2.240  0.00  0.00    +0.426 C 
ATOM     35  F   UNL     1       1.993   2.126   2.882  0.00  0.00    -0.167 F 
ATOM     36  F   UNL     1      -0.272   2.154   3.183  0.00  0.00    -0.167 F 
ATOM     37  F   UNL     1       0.654   0.788   1.603  0.00  0.00    -0.167 F 
ENDBRANCH   9  34
TORSDOF 4
