REMARK  Name = ZINC28806194
REMARK  10 active torsions:
REMARK  status: ('A' for Active; 'I' for Inactive)
REMARK    1  A    between atoms: C_1  and  C_2
REMARK    2  A    between atoms: C_8  and  C_16
REMARK    3  A    between atoms: C_16  and  O_18
REMARK    4  A    between atoms: O_18  and  C_19
REMARK    5  A    between atoms: C_19  and  C_20
REMARK    6  A    between atoms: N_22  and  C_23
REMARK    7  A    between atoms: C_23  and  C_24
REMARK    8  A    between atoms: C_24  and  C_25
REMARK    9  A    between atoms: C_28  and  S_31
REMARK   10  A    between atoms: S_31  and  N_34
REMARK                            x       y       z     vdW  Elec       q    Type
REMARK                         _______ _______ _______ _____ _____    ______ ____
ROOT
ATOM      1  C   UNL     1      -0.517   2.211  -5.623  0.00  0.00    +0.328 C 
ENDROOT
BRANCH   1   2
ATOM      2  C   UNL     1       0.794   2.165  -6.365  0.00  0.00    +0.251 C 
ATOM      3  O   UNL     1       1.781   2.682  -5.886  0.00  0.00    -0.272 OA
ATOM      4  N   UNL     1       0.869   1.550  -7.562  0.00  0.00    -0.312 N 
ATOM      5  H   UNL     1      -0.026   1.082  -7.997  0.00  0.00    +0.149 HD
BRANCH   4   6
ATOM      6  C   UNL     1       2.144   1.506  -8.284  0.00  0.00    +0.109 C 
BRANCH   6   7
ATOM      7  C   UNL     1       1.956   0.756  -9.604  0.00  0.00    +0.054 C 
BRANCH   7   8
ATOM      8  C   UNL     1       3.267   0.710 -10.346  0.00  0.00    -0.046 A 
ATOM      9  C   UNL     1       3.592   1.716 -11.237  0.00  0.00    +0.005 A 
ATOM     10  C   UNL     1       4.797   1.676 -11.915  0.00  0.00    +0.029 A 
ATOM     11  C   UNL     1       5.672   0.626 -11.708  0.00  0.00    +0.105 A 
ATOM     12  C   UNL     1       5.344  -0.382 -10.821  0.00  0.00    +0.029 A 
ATOM     13  C   UNL     1       4.142  -0.340 -10.140  0.00  0.00    +0.005 A 
BRANCH  11  14
ATOM     14  S   UNL     1       7.205   0.573 -12.575  0.00  0.00    +0.056 S 
ATOM     15  O   UNL     1       7.514   1.913 -12.935  0.00  0.00    -0.153 OA
ATOM     16  O   UNL     1       8.083  -0.229 -11.797  0.00  0.00    -0.153 OA
BRANCH  14  17
ATOM     17  N   UNL     1       6.940  -0.248 -13.988  0.00  0.00    -0.204 NA
ATOM     18  H   UNL     1       7.877  -0.303 -14.561  0.00  0.00    +0.144 HD
ATOM     19  H   UNL     1       6.178   0.279 -14.581  0.00  0.00    +0.144 HD
ENDBRANCH  14  17
ENDBRANCH  11  14
ENDBRANCH   7   8
ENDBRANCH   6   7
ENDBRANCH   4   6
ENDBRANCH   1   2
BRANCH   1  20
ATOM     20  O   UNL     1      -0.339   2.923  -4.370  0.00  0.00    -0.452 OA
BRANCH  20  21
ATOM     21  C   UNL     1      -1.424   3.053  -3.582  0.00  0.00    +0.341 C 
ATOM     22  O   UNL     1      -2.489   2.585  -3.931  0.00  0.00    -0.245 OA
BRANCH  21  30
ATOM     23  C   UNL     1      -2.440   8.072  -4.437  0.00  0.00    +0.044 C 
ATOM     24  C   UNL     1      -2.084   7.259  -3.219  0.00  0.00    -0.050 A 
ATOM     25  C   UNL     1      -1.975   7.887  -1.980  0.00  0.00    +0.005 A 
ATOM     26  C   UNL     1      -1.655   7.182  -0.861  0.00  0.00    +0.028 A 
ATOM     27  C   UNL     1      -1.429   5.796  -0.950  0.00  0.00    +0.072 A 
ATOM     28  C   UNL     1      -1.543   5.162  -2.212  0.00  0.00    +0.015 A 
ATOM     29  C   UNL     1      -1.872   5.918  -3.343  0.00  0.00    +0.014 A 
ATOM     30  C   UNL     1      -1.318   3.766  -2.291  0.00  0.00    +0.073 A 
ATOM     31  C   UNL     1      -0.993   3.081  -1.120  0.00  0.00    -0.012 A 
ATOM     32  C   UNL     1      -0.896   3.777   0.077  0.00  0.00    +0.046 A 
ATOM     33  N   UNL     1      -1.113   5.078   0.126  0.00  0.00    -0.251 NA
ATOM     34  C   UNL     1      -0.533   3.094   1.372  0.00  0.00    +0.056 C 
ATOM     35  C   UNL     1      -0.741   1.586   1.261  0.00  0.00    +0.006 C 
ATOM     36  C   UNL     1      -0.013   1.086   0.008  0.00  0.00    +0.005 C 
ATOM     37  C   UNL     1      -0.762   1.597  -1.221  0.00  0.00    +0.038 C 
ENDBRANCH  21  30
ENDBRANCH  20  21
ENDBRANCH   1  20
TORSDOF 9
