REMARK  Name = ZINC20905494
REMARK  10 active torsions:
REMARK  status: ('A' for Active; 'I' for Inactive)
REMARK    1  A    between atoms: C_1  and  O_2
REMARK    2  A    between atoms: O_2  and  C_3
REMARK    3  A    between atoms: C_3  and  C_5
REMARK    4  A    between atoms: C_9  and  N_10
REMARK    5  A    between atoms: C_11  and  C_13
REMARK    6  A    between atoms: C_13  and  C_14
REMARK    7  A    between atoms: C_14  and  S_15
REMARK    8  A    between atoms: S_15  and  C_16
REMARK    9  A    between atoms: N_21  and  N_22
REMARK   10  A    between atoms: C_23  and  C_24
REMARK                            x       y       z     vdW  Elec       q    Type
REMARK                         _______ _______ _______ _____ _____    ______ ____
ROOT
ATOM      1  C   UNL     1       1.306  -0.408  -0.038  0.00  0.00    +0.210 A 
ATOM      2  N   UNL     1       0.002  -0.004  -0.014  0.00  0.00    -0.186 NA
ATOM      3  C   UNL     1      -0.017   1.363  -0.006  0.00  0.00    +0.232 A 
ATOM      4  N   UNL     1       1.225   1.785  -0.023  0.00  0.00    -0.245 N 
ATOM      5  N   UNL     1       2.063   0.663  -0.044  0.00  0.00    -0.144 NA
ATOM      6  N   UNL     1      -1.150   2.163   0.012  0.00  0.00    -0.205 N 
ATOM      7  H   UNL     1      -2.148   1.702   0.021  0.00  0.00    +0.177 HD
ATOM      8  H   UNL     1       1.439   2.864  -0.020  0.00  0.00    +0.192 HD
ENDROOT
BRANCH   6   9
ATOM      9  N   UNL     1      -1.022   3.558   0.019  0.00  0.00    -0.188 NA
ATOM     10  C   UNL     1      -2.084   4.308   0.036  0.00  0.00    +0.139 C 
BRANCH  10  11
ATOM     11  C   UNL     1      -1.950   5.772   0.043  0.00  0.00    +0.002 A 
ATOM     12  C   UNL     1      -3.072   6.588  -0.051  0.00  0.00    +0.010 A 
ATOM     13  C   UNL     1      -2.943   7.970  -0.038  0.00  0.00    +0.001 A 
ATOM     14  C   UNL     1      -1.728   8.577   0.054  0.00  0.00    +0.008 A 
ATOM     15  C   UNL     1      -0.551   7.815   0.146  0.00  0.00    -0.017 A 
ATOM     16  C   UNL     1      -0.635   6.401   0.143  0.00  0.00    -0.009 A 
ATOM     17  C   UNL     1       0.536   5.639   0.236  0.00  0.00    +0.009 A 
ATOM     18  C   UNL     1       1.743   6.265   0.328  0.00  0.00    +0.001 A 
ATOM     19  C   UNL     1       1.829   7.656   0.331  0.00  0.00    +0.001 A 
ATOM     20  C   UNL     1       0.711   8.428   0.243  0.00  0.00    +0.008 A 
ENDBRANCH  10  11
ENDBRANCH   6   9
BRANCH   1  21
ATOM     21  S   UNL     1       1.873  -2.077  -0.057  0.00  0.00    -0.084 S 
BRANCH  21  22
ATOM     22  C   UNL     1       3.662  -1.801  -0.084  0.00  0.00    +0.086 C 
BRANCH  22  23
ATOM     23  C   UNL     1       4.386  -3.148  -0.104  0.00  0.00    +0.107 C 
BRANCH  23  25
ATOM     24  N   UNL     1       6.718  -3.969  -0.147  0.00  0.00    -0.279 N 
ATOM     25  C   UNL     1       5.875  -2.919  -0.127  0.00  0.00    +0.218 C 
ATOM     26  O   UNL     1       6.314  -1.788  -0.127  0.00  0.00    -0.275 OA
ATOM     27  H   UNL     1       6.320  -4.995  -0.146  0.00  0.00    +0.155 HD
BRANCH  24  32
ATOM     28  C   UNL     1       9.104  -4.699  -0.184  0.00  0.00    +0.091 A 
ATOM     29  C   UNL     1      10.482  -4.207  -0.209  0.00  0.00    -0.021 A 
ATOM     30  C   UNL     1      10.611  -2.869  -0.203  0.00  0.00    -0.004 A 
ATOM     31  S   UNL     1       8.944  -2.254  -0.172  0.00  0.00    -0.077 S 
ATOM     32  C   UNL     1       8.088  -3.758  -0.168  0.00  0.00    +0.086 A 
ATOM     33  C   UNL     1      12.053  -2.440  -0.227  0.00  0.00    +0.043 C 
ATOM     34  C   UNL     1      12.825  -3.698  -0.685  0.00  0.00    +0.010 C 
ATOM     35  C   UNL     1      11.879  -4.829  -0.233  0.00  0.00    +0.037 C 
BRANCH  28  36
ATOM     36  C   UNL     1       8.811  -6.134  -0.181  0.00  0.00    +0.342 C 
ATOM     37  O   UNL     1       8.673  -6.729  -1.233  0.00  0.00    -0.245 OA
BRANCH  36  39
ATOM     38  C   UNL     1       8.400  -8.216   0.915  0.00  0.00    +0.280 C 
ATOM     39  O   UNL     1       8.692  -6.796   0.988  0.00  0.00    -0.464 OA
ENDBRANCH  36  39
ENDBRANCH  28  36
ENDBRANCH  24  32
ENDBRANCH  23  25
ENDBRANCH  22  23
ENDBRANCH  21  22
ENDBRANCH   1  21
TORSDOF 9
