REMARK  Name = ZINC08745705
REMARK  6 active torsions:
REMARK  status: ('A' for Active; 'I' for Inactive)
REMARK    1  A    between atoms: C_1  and  C_2
REMARK    2  A    between atoms: C_2  and  C_4
REMARK    3  A    between atoms: C_2  and  N_56
REMARK    4  A    between atoms: N_10  and  C_11
REMARK    5  A    between atoms: N_20  and  S_23
REMARK    6  A    between atoms: S_23  and  C_26
REMARK                            x       y       z     vdW  Elec       q    Type
REMARK                         _______ _______ _______ _____ _____    ______ ____
ROOT
ATOM      1  C   UNL     1       0.309   2.742   1.295  0.00  0.00    -0.005 C 
ATOM      2  C   UNL     1       0.047   1.247   1.103  0.00  0.00    -0.002 C 
ENDROOT
BRANCH   2   3
ATOM      3  C   UNL     1      -1.437   1.006   0.998  0.00  0.00    +0.123 A 
ATOM      4  N   UNL     1      -2.190   1.050   2.083  0.00  0.00    -0.201 NA
ATOM      5  C   UNL     1      -3.501   0.838   1.994  0.00  0.00    +0.217 A 
ATOM      6  N   UNL     1      -4.052   0.583   0.812  0.00  0.00    -0.181 NA
ATOM      7  C   UNL     1      -3.292   0.540  -0.276  0.00  0.00    +0.224 A 
ATOM      8  N   UNL     1      -1.982   0.758  -0.180  0.00  0.00    -0.201 NA
ATOM      9  N   UNL     1      -3.860   0.275  -1.507  0.00  0.00    -0.284 N 
ATOM     10  N   UNL     1      -4.286   0.882   3.127  0.00  0.00    -0.327 N 
ATOM     11  H   UNL     1      -3.321   0.327  -2.312  0.00  0.00    +0.155 HD
ATOM     12  H   UNL     1      -3.883   1.069   3.990  0.00  0.00    +0.145 HD
ATOM     13  H   UNL     1      -5.242   0.728   3.062  0.00  0.00    +0.145 HD
BRANCH   9  14
ATOM     14  C   UNL     1      -5.213  -0.069  -1.593  0.00  0.00    +0.034 A 
ATOM     15  C   UNL     1      -5.793  -0.864  -0.612  0.00  0.00    +0.023 A 
ATOM     16  C   UNL     1      -7.130  -1.198  -0.698  0.00  0.00    +0.002 A 
ATOM     17  C   UNL     1      -7.889  -0.750  -1.763  0.00  0.00    +0.000 A 
ATOM     18  C   UNL     1      -7.314   0.037  -2.744  0.00  0.00    +0.002 A 
ATOM     19  C   UNL     1      -5.978   0.378  -2.662  0.00  0.00    +0.023 A 
ENDBRANCH   9  14
ENDBRANCH   2   3
BRANCH   2  25
ATOM     20  C   UNL     1       2.022   0.753   2.413  0.00  0.00    -0.060 C 
ATOM     21  C   UNL     1       2.504   0.111   3.719  0.00  0.00    +0.091 C 
ATOM     22  N   UNL     1       2.115  -1.308   3.713  0.00  0.00    -0.180 NA
ATOM     23  C   UNL     1       0.713  -1.643   3.421  0.00  0.00    +0.091 C 
ATOM     24  C   UNL     1       0.301  -0.932   2.128  0.00  0.00    -0.060 C 
ATOM     25  N   UNL     1       0.569   0.515   2.276  0.00  0.00    +0.388 N 
ATOM     26  H   UNL     1       0.095   0.857   3.120  0.00  0.00    -0.081 HD
BRANCH  22  27
ATOM     27  S   UNL     1       3.225  -2.495   4.029  0.00  0.00    +0.061 S 
ATOM     28  O   UNL     1       4.262  -1.890   4.789  0.00  0.00    -0.153 OA
ATOM     29  O   UNL     1       2.494  -3.621   4.496  0.00  0.00    -0.153 OA
BRANCH  27  30
ATOM     30  C   UNL     1       3.939  -2.963   2.487  0.00  0.00    +0.107 A 
ATOM     31  C   UNL     1       3.372  -3.983   1.745  0.00  0.00    +0.031 A 
ATOM     32  C   UNL     1       3.927  -4.347   0.533  0.00  0.00    +0.042 A 
ATOM     33  C   UNL     1       5.059  -3.700   0.067  0.00  0.00    +0.142 A 
ATOM     34  C   UNL     1       5.630  -2.682   0.814  0.00  0.00    +0.078 A 
ATOM     35  C   UNL     1       5.068  -2.315   2.024  0.00  0.00    +0.051 A 
ATOM     36 CL   UNL     1       7.048  -1.868   0.232  0.00  0.00    -0.081 Cl
ATOM     37  F   UNL     1       5.606  -4.059  -1.115  0.00  0.00    -0.204 F 
ENDBRANCH  27  30
ENDBRANCH  22  27
ENDBRANCH   2  25
TORSDOF 5
