REMARK  Name = ZINC63530840
REMARK  7 active torsions:
REMARK  status: ('A' for Active; 'I' for Inactive)
REMARK    1  A    between atoms: C_1  and  C_2
REMARK    2  A    between atoms: C_7  and  N_8
REMARK    3  A    between atoms: C_14  and  C_16
REMARK    4  A    between atoms: C_18  and  S_28
REMARK    5  A    between atoms: C_22  and  O_26
REMARK    6  A    between atoms: O_26  and  C_27
REMARK    7  A    between atoms: S_28  and  C_29
REMARK                            x       y       z     vdW  Elec       q    Type
REMARK                         _______ _______ _______ _____ _____    ______ ____
ROOT
ATOM      1  C   UNL     1       1.054   1.243   6.921  0.00  0.00    +0.204 C 
ATOM      2  C   UNL     1       1.932   2.389   6.468  0.00  0.00    +0.030 C 
ATOM      3  C   UNL     1       2.248   3.100   7.619  0.00  0.00    +0.010 A 
ATOM      4  C   UNL     1       3.028   4.259   7.837  0.00  0.00    +0.014 A 
ATOM      5  C   UNL     1       3.171   4.747   9.094  0.00  0.00    +0.046 A 
ATOM      6  C   UNL     1       2.560   4.129  10.194  0.00  0.00    +0.122 A 
ATOM      7  C   UNL     1       1.796   3.010  10.052  0.00  0.00    +0.071 A 
ATOM      8  C   UNL     1       1.605   2.446   8.770  0.00  0.00    +0.048 A 
ATOM      9  N   UNL     1       0.922   1.383   8.375  0.00  0.00    -0.369 N 
ATOM     10  H   UNL     1       0.415   0.792   8.953  0.00  0.00    +0.161 HD
ENDROOT
BRANCH   1  17
ATOM     11  N   UNL     1      -0.711   0.426   2.403  0.00  0.00    -0.327 N 
ATOM     12  C   UNL     1      -1.789   1.159   3.083  0.00  0.00    +0.124 C 
ATOM     13  C   UNL     1      -1.886   0.657   4.529  0.00  0.00    +0.126 C 
ATOM     14  N   UNL     1      -0.540   0.667   5.121  0.00  0.00    -0.297 N 
ATOM     15  C   UNL     1       0.537  -0.066   4.441  0.00  0.00    +0.126 C 
ATOM     16  C   UNL     1       0.633   0.431   2.998  0.00  0.00    +0.124 C 
ATOM     17  C   UNL     1      -0.299   1.336   6.266  0.00  0.00    +0.243 C 
ATOM     18  O   UNL     1      -1.172   2.012   6.768  0.00  0.00    -0.273 OA
BRANCH  11  25
ATOM     19  C   UNL     1      -0.375   1.814  -0.057  0.00  0.00    +0.045 C 
ATOM     20  C   UNL     1      -0.809   0.371  -0.007  0.00  0.00    -0.029 A 
ATOM     21  C   UNL     1      -1.051  -0.318  -1.180  0.00  0.00    +0.006 A 
ATOM     22  C   UNL     1      -1.450  -1.641  -1.136  0.00  0.00    +0.020 A 
ATOM     23  C   UNL     1      -1.608  -2.279   0.083  0.00  0.00    +0.043 A 
ATOM     24  C   UNL     1      -1.368  -1.595   1.259  0.00  0.00    +0.043 A 
ATOM     25  C   UNL     1      -0.961  -0.267   1.217  0.00  0.00    +0.034 A 
ATOM     26 CL   UNL     1      -2.108  -3.941   0.133  0.00  0.00    -0.083 Cl
ENDBRANCH  11  25
ENDBRANCH   1  17
BRANCH   6  27
ATOM     27  O   UNL     1       2.735   4.658  11.431  0.00  0.00    -0.495 OA
ATOM     28  C   UNL     1       3.546   5.831  11.526  0.00  0.00    +0.277 C 
ENDBRANCH   6  27
BRANCH   2  29
ATOM     29  S   UNL     1       2.417   2.726   4.917  0.00  0.00    -0.091 S 
BRANCH  29  30
ATOM     30  C   UNL     1       3.544   1.427   4.531  0.00  0.00    +0.013 A 
ATOM     31  C   UNL     1       3.912   0.511   5.509  0.00  0.00    +0.015 A 
ATOM     32  C   UNL     1       4.795  -0.505   5.203  0.00  0.00    +0.001 A 
ATOM     33  C   UNL     1       5.313  -0.612   3.925  0.00  0.00    +0.000 A 
ATOM     34  C   UNL     1       4.949   0.298   2.949  0.00  0.00    +0.001 A 
ATOM     35  C   UNL     1       4.062   1.314   3.247  0.00  0.00    +0.015 A 
ENDBRANCH  29  30
ENDBRANCH   2  29
TORSDOF 5
