REMARK  Name = ZINC00628875
REMARK  7 active torsions:
REMARK  status: ('A' for Active; 'I' for Inactive)
REMARK    1  A    between atoms: C_1  and  C_2
REMARK    2  A    between atoms: C_3  and  C_26
REMARK    3  A    between atoms: C_4  and  C_16
REMARK    4  A    between atoms: C_10  and  C_14
REMARK    5  A    between atoms: C_10  and  C_15
REMARK    6  A    between atoms: C_26  and  O_28
REMARK    7  A    between atoms: O_28  and  C_29
REMARK                            x       y       z     vdW  Elec       q    Type
REMARK                         _______ _______ _______ _____ _____    ______ ____
ROOT
ATOM      1  C   UNL     1      -0.760   5.647   1.700  0.00  0.00    +0.061 C 
ATOM      2  C   UNL     1      -1.446   4.737   2.686  0.00  0.00    +0.016 C 
ATOM      3  C   UNL     1      -1.443   3.409   2.482  0.00  0.00    +0.065 C 
ATOM      4  C   UNL     1      -2.115   2.472   3.443  0.00  0.00    +0.094 C 
ATOM      5  C   UNL     1      -3.080   3.209   4.335  0.00  0.00    +0.024 C 
ATOM      6  C   UNL     1      -3.015   4.551   4.462  0.00  0.00    +0.016 C 
ATOM      7  N   UNL     1      -2.067   5.269   3.781  0.00  0.00    -0.321 N 
ATOM      8  C   UNL     1      -3.982   5.296   5.349  0.00  0.00    +0.058 C 
ATOM      9  C   UNL     1      -4.400   4.401   6.518  0.00  0.00    -0.023 C 
ATOM     10  C   UNL     1      -5.032   3.125   5.951  0.00  0.00    +0.086 C 
ATOM     11  C   UNL     1      -4.047   2.461   5.027  0.00  0.00    +0.162 C 
ATOM     12  O   UNL     1      -4.090   1.255   4.877  0.00  0.00    -0.292 OA
ATOM     13  C   UNL     1      -3.171   4.038   7.353  0.00  0.00    +0.011 C 
ATOM     14  C   UNL     1      -5.417   5.138   7.391  0.00  0.00    +0.011 C 
ATOM     15  H   UNL     1      -1.808   6.281   4.124  0.00  0.00    +0.152 HD
ENDROOT
BRANCH   4  16
ATOM     16  C   UNL     1      -1.067   1.807   4.299  0.00  0.00    -0.010 A 
ATOM     17  C   UNL     1      -0.198   2.420   5.118  0.00  0.00    +0.088 A 
ATOM     18  N   UNL     1       0.599   1.492   5.731  0.00  0.00    -0.360 N 
ATOM     19  H   UNL     1       1.375   1.816   6.440  0.00  0.00    +0.165 HD
ATOM     20  C   UNL     1       0.253   0.227   5.311  0.00  0.00    +0.047 A 
ATOM     21  C   UNL     1      -0.810   0.368   4.400  0.00  0.00    +0.004 A 
ATOM     22  C   UNL     1      -1.367  -0.762   3.800  0.00  0.00    +0.010 A 
ATOM     23  C   UNL     1      -0.884  -2.002   4.109  0.00  0.00    +0.001 A 
ATOM     24  C   UNL     1       0.160  -2.147   5.011  0.00  0.00    +0.002 A 
ATOM     25  C   UNL     1       0.729  -1.045   5.611  0.00  0.00    +0.026 A 
ENDBRANCH   4  16
BRANCH   3  26
ATOM     26  C   UNL     1      -0.800   2.884   1.337  0.00  0.00    +0.337 C 
ATOM     27  O   UNL     1      -0.348   3.636   0.494  0.00  0.00    -0.245 OA
BRANCH  26  28
ATOM     28  O   UNL     1      -0.688   1.548   1.179  0.00  0.00    -0.465 OA
ATOM     29  C   UNL     1      -0.027   1.088  -0.002  0.00  0.00    +0.280 C 
ENDBRANCH  26  28
ENDBRANCH   3  26
TORSDOF 3
