REMARK  Name = ZINC14539574
REMARK  13 active torsions:
REMARK  status: ('A' for Active; 'I' for Inactive)
REMARK    1  A    between atoms: C_1  and  C_2
REMARK    2  A    between atoms: C_2  and  C_3
REMARK    3  A    between atoms: C_2  and  C_4
REMARK    4  A    between atoms: C_2  and  N_5
REMARK    5  A    between atoms: N_5  and  S_6
REMARK    6  A    between atoms: S_6  and  C_9
REMARK    7  A    between atoms: C_11  and  C_24
REMARK    8  A    between atoms: C_13  and  N_15
REMARK    9  A    between atoms: N_15  and  C_16
REMARK   10  A    between atoms: C_16  and  C_17
REMARK   11  A    between atoms: N_26  and  C_27
REMARK   12  A    between atoms: C_27  and  C_28
REMARK   13  A    between atoms: C_34  and  N_73
REMARK                            x       y       z     vdW  Elec       q    Type
REMARK                         _______ _______ _______ _____ _____    ______ ____
ROOT
ATOM      1  C   UNL     1      -1.119   2.415  -8.546  0.00  0.00    +0.108 A 
ATOM      2  C   UNL     1      -0.499   2.674  -7.340  0.00  0.00    +0.041 A 
ATOM      3  C   UNL     1      -1.230   3.220  -6.284  0.00  0.00    +0.040 A 
ATOM      4  C   UNL     1      -2.583   3.513  -6.455  0.00  0.00    +0.036 A 
ATOM      5  C   UNL     1      -3.194   3.255  -7.672  0.00  0.00    +0.030 A 
ATOM      6  C   UNL     1      -2.459   2.705  -8.716  0.00  0.00    +0.051 A 
ENDROOT
BRANCH   3   7
ATOM      7  C   UNL     1      -0.570   3.493  -4.989  0.00  0.00    +0.244 C 
ATOM      8  O   UNL     1       0.609   3.236  -4.842  0.00  0.00    -0.270 OA
ATOM      9  N   UNL     1      -1.276   4.025  -3.972  0.00  0.00    -0.311 N 
ATOM     10  H   UNL     1      -2.217   4.230  -4.089  0.00  0.00    +0.149 HD
BRANCH   9  11
ATOM     11  C   UNL     1      -0.622   4.295  -2.689  0.00  0.00    +0.106 C 
BRANCH  11  12
ATOM     12  C   UNL     1      -1.639   4.894  -1.715  0.00  0.00    -0.011 C 
ATOM     13  C   UNL     1      -0.930   5.292  -0.417  0.00  0.00    +0.001 C 
ATOM     14  C   UNL     1      -1.962   5.836   0.575  0.00  0.00    -0.018 C 
ATOM     15  C   UNL     1      -3.035   4.771   0.820  0.00  0.00    -0.079 C 
ATOM     16  C   UNL     1      -2.720   3.857  -1.402  0.00  0.00    -0.074 C 
ATOM     17  C   UNL     1      -4.812   3.509  -0.234  0.00  0.00    -0.096 C 
ATOM     18  N   UNL     1      -3.696   4.450  -0.463  0.00  0.00    +0.378 N 
ATOM     19  H   UNL     1      -4.068   5.316  -0.872  0.00  0.00    -0.082 HD
ENDBRANCH  11  12
ENDBRANCH   9  11
ENDBRANCH   3   7
BRANCH   1  20
ATOM     20  S   UNL     1      -0.196   1.718  -9.876  0.00  0.00    +0.059 S 
ATOM     21  O   UNL     1       0.695   0.773  -9.300  0.00  0.00    -0.153 OA
ATOM     22  O   UNL     1      -1.136   1.364 -10.881  0.00  0.00    -0.153 OA
BRANCH  20  23
ATOM     23  N   UNL     1       0.741   2.928 -10.508  0.00  0.00    -0.185 NA
ATOM     24  H   UNL     1       1.707   2.886 -10.427  0.00  0.00    +0.149 HD
BRANCH  23  26
ATOM     25  C   UNL     1      -0.866   4.751 -10.239  0.00  0.00    +0.029 C 
ATOM     26  C   UNL     1       0.112   4.060 -11.191  0.00  0.00    +0.032 C 
ATOM     27  C   UNL     1       1.189   5.056 -11.626  0.00  0.00    +0.029 C 
ATOM     28  C   UNL     1      -0.644   3.558 -12.422  0.00  0.00    +0.029 C 
ENDBRANCH  23  26
ENDBRANCH  20  23
ENDBRANCH   1  20
BRANCH   5  29
ATOM     29  N   UNL     1      -4.549   3.546  -7.849  0.00  0.00    -0.343 N 
ATOM     30  H   UNL     1      -4.977   3.365  -8.700  0.00  0.00    +0.146 HD
BRANCH  29  31
ATOM     31  C   UNL     1      -5.324   4.125  -6.748  0.00  0.00    +0.105 C 
BRANCH  31  32
ATOM     32  C   UNL     1      -6.768   4.344  -7.202  0.00  0.00    +0.010 C 
ATOM     33  C   UNL     1      -7.554   5.055  -6.092  0.00  0.00    +0.009 C 
ATOM     34  C   UNL     1      -8.939   5.415  -6.634  0.00  0.00    +0.027 C 
ATOM     35  C   UNL     1      -9.566   4.223  -7.296  0.00  0.00    -0.031 C 
ATOM     36  C   UNL     1      -8.909   3.172  -7.668  0.00  0.00    -0.031 C 
ATOM     37  C   UNL     1      -7.431   2.994  -7.482  0.00  0.00    +0.032 C 
ENDBRANCH  31  32
ENDBRANCH  29  31
ENDBRANCH   5  29
TORSDOF 9
