REMARK  Name = ZINC06729146
REMARK  8 active torsions:
REMARK  status: ('A' for Active; 'I' for Inactive)
REMARK    1  A    between atoms: C_1  and  C_2
REMARK    2  A    between atoms: C_5  and  N_9
REMARK    3  A    between atoms: C_6  and  C_8
REMARK    4  A    between atoms: N_9  and  C_10
REMARK    5  A    between atoms: C_11  and  C_19
REMARK    6  A    between atoms: C_22  and  O_27
REMARK    7  A    between atoms: C_23  and  O_25
REMARK    8  A    between atoms: O_25  and  C_26
REMARK                            x       y       z     vdW  Elec       q    Type
REMARK                         _______ _______ _______ _____ _____    ______ ____
ROOT
ATOM      1  C   UNL     1      -0.032  -4.813  -1.255  0.00  0.00    +0.137 A 
ATOM      2  C   UNL     1      -0.124  -6.172  -1.466  0.00  0.00    +0.114 A 
ATOM      3  N   UNL     1      -0.192  -6.384  -2.794  0.00  0.00    -0.208 NA
ATOM      4  C   UNL     1      -0.146  -5.223  -3.426  0.00  0.00    +0.237 A 
ATOM      5  N   UNL     1      -0.051  -4.221  -2.487  0.00  0.00    -0.271 N 
ATOM      6  C   UNL     1       0.007  -2.913  -2.885  0.00  0.00    +0.097 A 
ATOM      7  C   UNL     1      -0.033  -2.625  -4.208  0.00  0.00    +0.038 A 
ATOM      8  C   UNL     1      -0.134  -3.671  -5.137  0.00  0.00    +0.116 A 
ATOM      9  N   UNL     1      -0.180  -4.918  -4.733  0.00  0.00    -0.220 NA
ENDROOT
BRANCH   2  10
ATOM     10  C   UNL     1      -0.145  -7.218  -0.416  0.00  0.00    +0.007 A 
ATOM     11  C   UNL     1       0.602  -7.052   0.749  0.00  0.00    +0.014 A 
ATOM     12  C   UNL     1       0.582  -8.026   1.727  0.00  0.00    +0.050 A 
ATOM     13  C   UNL     1      -0.181  -9.170   1.553  0.00  0.00    +0.158 A 
ATOM     14  C   UNL     1      -0.930  -9.341   0.392  0.00  0.00    +0.162 A 
ATOM     15  C   UNL     1      -0.917  -8.366  -0.589  0.00  0.00    +0.059 A 
BRANCH  14  16
ATOM     16  O   UNL     1      -1.677 -10.465   0.224  0.00  0.00    -0.491 OA
ATOM     17  C   UNL     1      -2.420 -10.574  -0.992  0.00  0.00    +0.277 C 
ENDBRANCH  14  16
BRANCH  13  18
ATOM     18  O   UNL     1      -0.198 -10.128   2.519  0.00  0.00    -0.503 OA
ATOM     19  H   UNL     1      -0.891 -10.005   3.183  0.00  0.00    +0.292 HD
ENDBRANCH  13  18
ENDBRANCH   2  10
BRANCH   1  20
ATOM     20  N   UNL     1       0.058  -4.167  -0.021  0.00  0.00    -0.299 N 
ATOM     21  H   UNL     1      -0.692  -4.189   0.594  0.00  0.00    +0.154 HD
BRANCH  20  26
ATOM     22  C   UNL     1       4.807  -1.413   1.397  0.00  0.00    +0.044 C 
ATOM     23  C   UNL     1       3.545  -2.145   1.020  0.00  0.00    -0.050 A 
ATOM     24  C   UNL     1       3.498  -2.881  -0.149  0.00  0.00    +0.005 A 
ATOM     25  C   UNL     1       2.343  -3.553  -0.498  0.00  0.00    +0.024 A 
ATOM     26  C   UNL     1       1.228  -3.489   0.328  0.00  0.00    +0.035 A 
ATOM     27  C   UNL     1       1.279  -2.748   1.503  0.00  0.00    -0.029 A 
ATOM     28  C   UNL     1       2.439  -2.083   1.848  0.00  0.00    +0.008 A 
ATOM     29  C   UNL     1       0.072  -2.675   2.402  0.00  0.00    +0.045 C 
ENDBRANCH  20  26
ENDBRANCH   1  20
TORSDOF 5
