REMARK  Name = ZINC14623540
REMARK  12 active torsions:
REMARK  status: ('A' for Active; 'I' for Inactive)
REMARK    1  A    between atoms: C_1  and  C_2
REMARK    2  A    between atoms: C_2  and  C_3
REMARK    3  A    between atoms: C_3  and  C_4
REMARK    4  A    between atoms: C_4  and  N_5
REMARK    5  A    between atoms: C_6  and  N_29
REMARK    6  A    between atoms: C_7  and  N_14
REMARK    7  A    between atoms: N_14  and  C_15
REMARK    8  A    between atoms: C_15  and  C_16
REMARK    9  A    between atoms: C_16  and  C_17
REMARK   10  A    between atoms: C_17  and  C_18
REMARK   11  A    between atoms: C_17  and  C_19
REMARK   12  A    between atoms: C_20  and  C_22
REMARK                            x       y       z     vdW  Elec       q    Type
REMARK                         _______ _______ _______ _____ _____    ______ ____
ROOT
ATOM      1  N   UNL     1      -0.709   2.732  -2.569  0.00  0.00    -0.280 N 
ATOM      2  C   UNL     1       0.430   3.367  -2.130  0.00  0.00    +0.127 A 
ATOM      3  C   UNL     1       1.074   2.894  -1.005  0.00  0.00    +0.140 A 
ATOM      4  C   UNL     1       0.544   1.773  -0.340  0.00  0.00    +0.277 A 
ATOM      5  O   UNL     1       1.093   1.334   0.657  0.00  0.00    -0.266 OA
ATOM      6  N   UNL     1      -0.574   1.187  -0.811  0.00  0.00    -0.273 N 
ATOM      7  H   UNL     1      -0.954   0.393  -0.337  0.00  0.00    +0.173 HD
ATOM      8  C   UNL     1      -1.186   1.659  -1.912  0.00  0.00    +0.331 A 
ATOM      9  O   UNL     1      -2.191   1.108  -2.319  0.00  0.00    -0.246 OA
ENDROOT
BRANCH   3  10
ATOM     10  N   UNL     1       2.243   3.524  -0.530  0.00  0.00    -0.260 N 
ATOM     11  C   UNL     1       2.216   4.829  -0.193  0.00  0.00    +0.251 C 
ATOM     12  O   UNL     1       3.241   5.391   0.140  0.00  0.00    -0.270 OA
BRANCH  11  13
ATOM     13  C   UNL     1       0.941   5.575  -0.229  0.00  0.00    +0.038 A 
ATOM     14  C   UNL     1       0.947   6.970  -0.298  0.00  0.00    +0.013 A 
ATOM     15  C   UNL     1      -0.246   7.661  -0.331  0.00  0.00    +0.002 A 
ATOM     16  C   UNL     1      -1.448   6.976  -0.297  0.00  0.00    +0.015 A 
ATOM     17  C   UNL     1      -1.461   5.593  -0.229  0.00  0.00    +0.019 A 
ATOM     18  C   UNL     1      -0.274   4.889  -0.201  0.00  0.00    +0.028 A 
ATOM     19 BR   UNL     1      -3.109   4.666  -0.183  0.00  0.00    -0.050 Br
ENDBRANCH  11  13
BRANCH  10  20
ATOM     20  C   UNL     1       3.486   2.760  -0.403  0.00  0.00    +0.114 C 
BRANCH  20  21
ATOM     21  C   UNL     1       4.225   2.761  -1.743  0.00  0.00    +0.022 C 
BRANCH  21  22
ATOM     22  C   UNL     1       5.457   1.858  -1.647  0.00  0.00    -0.016 C 
ATOM     23  C   UNL     1       6.107   1.734  -3.026  0.00  0.00    +0.007 C 
ATOM     24  C   UNL     1       6.459   2.466  -0.664  0.00  0.00    +0.007 C 
ENDBRANCH  21  22
ENDBRANCH  20  21
ENDBRANCH  10  20
ENDBRANCH   3  10
BRANCH   2  25
ATOM     25  N   UNL     1       0.919   4.460  -2.804  0.00  0.00    -0.343 N 
ATOM     26  H   UNL     1       1.771   4.847  -2.547  0.00  0.00    +0.144 HD
ATOM     27  H   UNL     1       0.413   4.845  -3.537  0.00  0.00    +0.144 HD
ENDBRANCH   2  25
BRANCH   1  28
ATOM     28  C   UNL     1      -1.403   3.223  -3.762  0.00  0.00    +0.128 C 
BRANCH  28  29
ATOM     29  C   UNL     1      -0.842   2.525  -5.002  0.00  0.00    +0.021 C 
BRANCH  29  31
ATOM     30  C   UNL     1      -1.005   2.339  -7.488  0.00  0.00    +0.004 C 
ATOM     31  C   UNL     1      -1.567   3.038  -6.248  0.00  0.00    -0.002 C 
ENDBRANCH  29  31
ENDBRANCH  28  29
ENDBRANCH   1  28
TORSDOF 9
