REMARK  Name = ZINC22822589
REMARK  3 active torsions:
REMARK  status: ('A' for Active; 'I' for Inactive)
REMARK    1  A    between atoms: C_1  and  C_2
REMARK    2  A    between atoms: C_6  and  C_8
REMARK    3  A    between atoms: C_13  and  C_28
REMARK                            x       y       z     vdW  Elec       q    Type
REMARK                         _______ _______ _______ _____ _____    ______ ____
ROOT
ATOM      1  C   UNL     1      -4.220   2.461   2.343  0.00  0.00    +0.032 C 
ATOM      2  C   UNL     1      -4.895   1.563   3.383  0.00  0.00    +0.060 C 
ATOM      3  C   UNL     1      -6.376   1.837   3.402  0.00  0.00    +0.020 C 
ATOM      4  C   UNL     1      -6.866   3.059   3.099  0.00  0.00    +0.041 C 
ATOM      5  C   UNL     1      -8.352   3.309   3.123  0.00  0.00    +0.173 C 
ATOM      6  N   UNL     1      -9.055   2.271   3.864  0.00  0.00    -0.243 NA
ATOM      7  C   UNL     1      -8.521   1.124   4.136  0.00  0.00    +0.186 C 
ATOM      8  N   UNL     1      -7.237   0.826   3.738  0.00  0.00    -0.290 N 
ATOM      9  N   UNL     1      -9.249   0.186   4.835  0.00  0.00    -0.266 N 
ATOM     10  C   UNL     1     -10.541   0.474   5.240  0.00  0.00    +0.165 A 
ATOM     11  N   UNL     1     -11.383  -0.281   5.907  0.00  0.00    -0.225 NA
ATOM     12  C   UNL     1     -12.625   0.134   6.238  0.00  0.00    +0.080 A 
ATOM     13  C   UNL     1     -13.622  -0.575   6.948  0.00  0.00    +0.029 A 
ATOM     14  C   UNL     1     -14.840  -0.002   7.202  0.00  0.00    +0.002 A 
ATOM     15  C   UNL     1     -15.141   1.283   6.776  0.00  0.00    +0.001 A 
ATOM     16  C   UNL     1     -14.190   2.005   6.078  0.00  0.00    +0.017 A 
ATOM     17  C   UNL     1     -12.966   1.440   5.819  0.00  0.00    +0.041 A 
ATOM     18  S   UNL     1     -11.485   1.972   4.995  0.00  0.00    -0.052 S 
ATOM     19  C   UNL     1      -6.010   4.118   2.754  0.00  0.00    +0.164 C 
ATOM     20  O   UNL     1      -6.481   5.209   2.500  0.00  0.00    -0.292 OA
ATOM     21  C   UNL     1      -4.519   3.922   2.694  0.00  0.00    +0.088 C 
ATOM     22  H   UNL     1      -6.901  -0.221   3.689  0.00  0.00    +0.154 HD
ATOM     23  H   UNL     1      -8.804  -0.792   5.071  0.00  0.00    +0.157 HD
ENDROOT
BRANCH   5  24
ATOM     24  C   UNL     1      -8.869   3.340   1.707  0.00  0.00    -0.013 A 
ATOM     25  C   UNL     1      -9.141   2.157   1.045  0.00  0.00    +0.044 A 
ATOM     26  C   UNL     1      -9.620   2.184  -0.254  0.00  0.00    +0.126 A 
ATOM     27  C   UNL     1      -9.817   3.396  -0.893  0.00  0.00    +0.076 A 
ATOM     28  C   UNL     1      -9.539   4.580  -0.231  0.00  0.00    +0.126 A 
ATOM     29  C   UNL     1      -9.066   4.551   1.070  0.00  0.00    +0.044 A 
ATOM     30  F   UNL     1      -9.730   5.763  -0.854  0.00  0.00    -0.205 F 
ATOM     31  F   UNL     1      -9.890   1.028  -0.898  0.00  0.00    -0.205 F 
ENDBRANCH   5  24
BRANCH   1  37
ATOM     32  C   UNL     1      -0.013   1.086   0.008  0.00  0.00    +0.044 C 
ATOM     33  C   UNL     1      -0.718   1.572   1.248  0.00  0.00    -0.050 A 
ATOM     34  C   UNL     1       0.001   1.806   2.405  0.00  0.00    +0.003 A 
ATOM     35  C   UNL     1      -0.646   2.252   3.542  0.00  0.00    +0.001 A 
ATOM     36  C   UNL     1      -2.012   2.464   3.522  0.00  0.00    +0.004 A 
ATOM     37  C   UNL     1      -2.731   2.230   2.365  0.00  0.00    -0.043 A 
ATOM     38  C   UNL     1      -2.083   1.789   1.226  0.00  0.00    +0.007 A 
ENDBRANCH   1  37
TORSDOF 2
