REMARK  Name = ZINC02395560
REMARK  10 active torsions:
REMARK  status: ('A' for Active; 'I' for Inactive)
REMARK    1  A    between atoms: C_1  and  C_2
REMARK    2  A    between atoms: C_2  and  N_3
REMARK    3  A    between atoms: C_14  and  N_16
REMARK    4  A    between atoms: C_17  and  N_37
REMARK    5  A    between atoms: C_18  and  C_29
REMARK    6  A    between atoms: N_31  and  C_32
REMARK    7  A    between atoms: C_32  and  C_33
REMARK    8  A    between atoms: C_33  and  C_34
REMARK    9  A    between atoms: C_34  and  C_35
REMARK   10  A    between atoms: C_34  and  C_36
REMARK                            x       y       z     vdW  Elec       q    Type
REMARK                         _______ _______ _______ _____ _____    ______ ____
ROOT
ATOM      1  N   UNL     1      -0.709   8.842   0.052  0.00  0.00    -0.280 N 
ATOM      2  C   UNL     1      -1.525   9.215   1.078  0.00  0.00    +0.117 A 
ATOM      3  C   UNL     1      -2.162  10.415   0.780  0.00  0.00    +0.104 A 
ATOM      4  C   UNL     1      -1.693  10.818  -0.556  0.00  0.00    +0.123 A 
ATOM      5  C   UNL     1      -0.756   9.770  -0.971  0.00  0.00    +0.166 A 
ATOM      6  N   UNL     1      -0.171   9.854  -2.146  0.00  0.00    -0.225 NA
ATOM      7  C   UNL     1      -0.426  10.898  -2.945  0.00  0.00    +0.092 A 
ATOM      8  C   UNL     1       0.201  10.999  -4.202  0.00  0.00    +0.030 A 
ATOM      9  C   UNL     1      -0.065  12.062  -5.007  0.00  0.00    +0.002 A 
ATOM     10  C   UNL     1      -0.952  13.060  -4.607  0.00  0.00    +0.002 A 
ATOM     11  C   UNL     1      -1.577  12.998  -3.401  0.00  0.00    +0.030 A 
ATOM     12  C   UNL     1      -1.328  11.912  -2.540  0.00  0.00    +0.090 A 
ATOM     13  N   UNL     1      -1.937  11.840  -1.350  0.00  0.00    -0.241 NA
ENDROOT
BRANCH   1  25
ATOM     14  N   UNL     1       2.180   4.106   0.003  0.00  0.00    -0.340 N 
ATOM     15  C   UNL     1       1.164   3.167   0.007  0.00  0.00    +0.050 A 
ATOM     16  C   UNL     1       1.175   1.775   0.000  0.00  0.00    +0.026 A 
ATOM     17  C   UNL     1      -0.013   1.076   0.008  0.00  0.00    +0.002 A 
ATOM     18  C   UNL     1      -1.226   1.747   0.017  0.00  0.00    +0.001 A 
ATOM     19  C   UNL     1      -1.257   3.124   0.030  0.00  0.00    +0.010 A 
ATOM     20  C   UNL     1      -0.065   3.844   0.022  0.00  0.00    +0.008 A 
ATOM     21  C   UNL     1       0.251   5.285   0.027  0.00  0.00    +0.010 A 
ATOM     22  C   UNL     1       1.650   5.386   0.014  0.00  0.00    +0.050 A 
ATOM     23  C   UNL     1       2.245   6.643   0.015  0.00  0.00    +0.028 A 
ATOM     24  C   UNL     1       1.464   7.778   0.026  0.00  0.00    +0.028 A 
ATOM     25  C   UNL     1       0.076   7.679   0.039  0.00  0.00    +0.050 A 
ATOM     26  C   UNL     1      -0.532   6.436   0.039  0.00  0.00    +0.037 A 
BRANCH  14  28
ATOM     27  C   UNL     1       4.096   3.689  -1.459  0.00  0.00    +0.027 C 
ATOM     28  C   UNL     1       3.611   3.791  -0.011  0.00  0.00    +0.119 C 
ENDBRANCH  14  28
ENDBRANCH   1  25
BRANCH   3  29
ATOM     29  C   UNL     1      -3.112  11.134   1.626  0.00  0.00    +0.250 C 
ATOM     30  O   UNL     1      -2.711  11.966   2.420  0.00  0.00    -0.270 OA
ATOM     31  N   UNL     1      -4.431  10.876   1.529  0.00  0.00    -0.311 N 
ATOM     32  H   UNL     1      -4.750  10.213   0.897  0.00  0.00    +0.149 HD
BRANCH  31  33
ATOM     33  C   UNL     1      -5.383  11.597   2.378  0.00  0.00    +0.105 C 
BRANCH  33  34
ATOM     34  C   UNL     1      -6.804  11.120   2.070  0.00  0.00    +0.022 C 
BRANCH  34  35
ATOM     35  C   UNL     1      -7.798  11.873   2.956  0.00  0.00    -0.016 C 
ATOM     36  C   UNL     1      -7.783  13.358   2.592  0.00  0.00    +0.007 C 
ATOM     37  C   UNL     1      -9.204  11.309   2.739  0.00  0.00    +0.007 C 
ENDBRANCH  34  35
ENDBRANCH  33  34
ENDBRANCH  31  33
ENDBRANCH   3  29
BRANCH   2  38
ATOM     38  N   UNL     1      -1.694   8.507   2.240  0.00  0.00    -0.343 N 
ATOM     39  H   UNL     1      -1.213   7.676   2.375  0.00  0.00    +0.144 HD
ATOM     40  H   UNL     1      -2.295   8.838   2.926  0.00  0.00    +0.144 HD
ENDBRANCH   2  38
TORSDOF 7
