REMARK  Name = ZINC36807060
REMARK  6 active torsions:
REMARK  status: ('A' for Active; 'I' for Inactive)
REMARK    1  A    between atoms: C_1  and  C_2
REMARK    2  A    between atoms: C_3  and  C_12
REMARK    3  A    between atoms: C_12  and  S_13
REMARK    4  A    between atoms: S_13  and  C_14
REMARK    5  A    between atoms: C_17  and  C_20
REMARK    6  A    between atoms: N_18  and  N_19
REMARK                            x       y       z     vdW  Elec       q    Type
REMARK                         _______ _______ _______ _____ _____    ______ ____
ROOT
ATOM      1  S   UNL     1       1.691   0.424  -3.034  0.00  0.00    -0.078 S 
ENDROOT
BRANCH   1   2
ATOM      2  C   UNL     1       1.502   1.326  -4.536  0.00  0.00    +0.209 A 
ATOM      3  N   UNL     1       0.367   1.662  -5.106  0.00  0.00    -0.120 NA
ATOM      4  N   UNL     1       0.592   2.314  -6.190  0.00  0.00    -0.123 NA
ATOM      5  C   UNL     1       1.887   2.435  -6.380  0.00  0.00    +0.217 A 
ATOM      6  N   UNL     1       2.510   1.810  -5.322  0.00  0.00    -0.221 N 
BRANCH   5   7
ATOM      7  C   UNL     1       2.546   3.115  -7.506  0.00  0.00    +0.173 A 
ATOM      8  C   UNL     1       1.953   3.976  -8.379  0.00  0.00    +0.053 A 
ATOM      9  C   UNL     1       2.949   4.385  -9.287  0.00  0.00    +0.042 A 
ATOM     10  C   UNL     1       4.090   3.761  -8.929  0.00  0.00    +0.196 A 
ATOM     11  O   UNL     1       3.844   2.999  -7.851  0.00  0.00    -0.460 OA
ENDBRANCH   5   7
BRANCH   6  12
ATOM     12  N   UNL     1       3.854   1.695  -5.106  0.00  0.00    -0.294 N 
ATOM     13  H   UNL     1       4.219   0.858  -5.535  0.00  0.00    +0.163 HD
ATOM     14  H   UNL     1       4.345   2.513  -5.436  0.00  0.00    +0.163 HD
ENDBRANCH   6  12
ENDBRANCH   1   2
BRANCH   1  15
ATOM     15  C   UNL     1      -0.012   0.088  -2.507  0.00  0.00    +0.134 C 
BRANCH  15  18
ATOM     16  C   UNL     1      -0.018   1.503   0.010  0.00  0.00    +0.067 C 
ATOM     17  C   UNL     1       0.002  -0.004   0.002  0.00  0.00    +0.061 A 
ATOM     18  C   UNL     1       0.006  -0.688  -1.216  0.00  0.00    +0.073 A 
ATOM     19  N   UNL     1       0.024  -2.001  -1.247  0.00  0.00    -0.247 NA
ATOM     20  C   UNL     1       0.039  -2.692  -0.102  0.00  0.00    +0.090 A 
ATOM     21  C   UNL     1       0.059  -4.097  -0.102  0.00  0.00    +0.030 A 
ATOM     22  C   UNL     1       0.075  -4.771   1.080  0.00  0.00    +0.002 A 
ATOM     23  C   UNL     1       0.071  -4.088   2.296  0.00  0.00    +0.002 A 
ATOM     24  C   UNL     1       0.051  -2.728   2.334  0.00  0.00    +0.030 A 
ATOM     25  C   UNL     1       0.035  -1.997   1.134  0.00  0.00    +0.089 A 
ATOM     26  N   UNL     1       0.022  -0.660   1.140  0.00  0.00    -0.249 NA
ENDBRANCH  15  18
ENDBRANCH   1  15
TORSDOF 5
