REMARK  Name = ZINC00825474
REMARK  6 active torsions:
REMARK  status: ('A' for Active; 'I' for Inactive)
REMARK    1  A    between atoms: C_1  and  C_2
REMARK    2  A    between atoms: C_5  and  C_8
REMARK    3  A    between atoms: C_14  and  C_16
REMARK    4  A    between atoms: C_16  and  C_17
REMARK    5  A    between atoms: N_19  and  N_20
REMARK    6  A    between atoms: C_21  and  C_22
REMARK                            x       y       z     vdW  Elec       q    Type
REMARK                         _______ _______ _______ _____ _____    ______ ____
ROOT
ATOM      1  C   UNL     1       1.178  -0.662  -0.012  0.00  0.00    +0.250 C 
ATOM      2  O   UNL     1       2.223  -0.040  -0.018  0.00  0.00    -0.270 OA
ATOM      3  N   UNL     1       0.002  -0.004   0.002  0.00  0.00    -0.259 N 
ATOM      4  C   UNL     1      -0.017   1.385   0.010  0.00  0.00    +0.188 A 
ATOM      5  N   UNL     1       0.987   2.252   0.005  0.00  0.00    -0.126 NA
ATOM      6  N   UNL     1       0.789   3.498   0.013  0.00  0.00    -0.144 NA
ATOM      7  C   UNL     1      -0.422   4.017   0.027  0.00  0.00    +0.112 A 
ATOM      8  S   UNL     1      -1.403   2.519   0.021  0.00  0.00    -0.035 S 
ATOM      9  H   UNL     1      -0.831  -0.500   0.007  0.00  0.00    +0.157 HD
ENDROOT
BRANCH   1  14
ATOM     10  C   UNL     1       1.256  -6.416  -0.043  0.00  0.00    +0.044 C 
ATOM     11  C   UNL     1       1.236  -4.909  -0.035  0.00  0.00    -0.050 A 
ATOM     12  C   UNL     1       2.426  -4.204  -0.043  0.00  0.00    +0.004 A 
ATOM     13  C   UNL     1       2.415  -2.824  -0.035  0.00  0.00    +0.013 A 
ATOM     14  C   UNL     1       1.198  -2.140  -0.020  0.00  0.00    +0.037 A 
ATOM     15  C   UNL     1       0.001  -2.857  -0.007  0.00  0.00    +0.013 A 
ATOM     16  C   UNL     1       0.027  -4.237  -0.021  0.00  0.00    +0.004 A 
ENDBRANCH   1  14
BRANCH   7  17
ATOM     17  C   UNL     1      -0.858   5.460   0.038  0.00  0.00    +0.162 C 
BRANCH  17  18
ATOM     18  C   UNL     1      -1.017   5.947  -1.379  0.00  0.00    +0.239 C 
ATOM     19  O   UNL     1      -0.798   5.197  -2.307  0.00  0.00    -0.274 OA
ATOM     20  N   UNL     1      -1.403   7.217  -1.615  0.00  0.00    -0.207 N 
ATOM     21  H   UNL     1      -1.578   7.817  -0.873  0.00  0.00    +0.177 HD
BRANCH  20  22
ATOM     22  N   UNL     1      -1.550   7.671  -2.932  0.00  0.00    -0.188 NA
ATOM     23  C   UNL     1      -1.921   8.893  -3.160  0.00  0.00    +0.138 C 
BRANCH  23  24
ATOM     24  C   UNL     1      -2.077   9.370  -4.546  0.00  0.00    -0.005 A 
ATOM     25  C   UNL     1      -1.820   8.511  -5.617  0.00  0.00    +0.010 A 
ATOM     26  C   UNL     1      -1.973   8.962  -6.912  0.00  0.00    +0.016 A 
ATOM     27  C   UNL     1      -2.369  10.267  -7.151  0.00  0.00    +0.018 A 
ATOM     28  C   UNL     1      -2.620  11.126  -6.094  0.00  0.00    +0.016 A 
ATOM     29  C   UNL     1      -2.477  10.686  -4.795  0.00  0.00    +0.010 A 
ATOM     30 BR   UNL     1      -2.568  10.880  -8.929  0.00  0.00    -0.050 Br
ENDBRANCH  23  24
ENDBRANCH  20  22
ENDBRANCH  17  18
ENDBRANCH   7  17
TORSDOF 5
