REMARK  Name = ZINC17307002
REMARK  13 active torsions:
REMARK  status: ('A' for Active; 'I' for Inactive)
REMARK    1  A    between atoms: C_1  and  C_2
REMARK    2  A    between atoms: C_2  and  O_3
REMARK    3  A    between atoms: O_3  and  C_4
REMARK    4  A    between atoms: C_5  and  C_37
REMARK    5  A    between atoms: C_7  and  S_11
REMARK    6  A    between atoms: C_9  and  C_10
REMARK    7  A    between atoms: S_11  and  N_14
REMARK    8  A    between atoms: N_14  and  C_15
REMARK    9  A    between atoms: C_18  and  N_21
REMARK   10  A    between atoms: C_24  and  C_36
REMARK   11  A    between atoms: C_26  and  N_28
REMARK   12  A    between atoms: N_28  and  C_29
REMARK   13  A    between atoms: C_32  and  C_35
REMARK                            x       y       z     vdW  Elec       q    Type
REMARK                         _______ _______ _______ _____ _____    ______ ____
ROOT
ATOM      1  C   UNL     1       3.722   6.951   3.423  0.00  0.00    +0.048 A 
ATOM      2  C   UNL     1       3.942   5.668   3.907  0.00  0.00    +0.026 A 
ATOM      3  C   UNL     1       3.801   5.405   5.255  0.00  0.00    +0.025 A 
ATOM      4  C   UNL     1       3.427   6.421   6.125  0.00  0.00    +0.034 A 
ATOM      5  C   UNL     1       3.203   7.702   5.641  0.00  0.00    +0.025 A 
ATOM      6  C   UNL     1       3.349   7.967   4.293  0.00  0.00    +0.026 A 
ENDROOT
BRANCH   4   7
ATOM      7  N   UNL     1       3.278   6.152   7.492  0.00  0.00    -0.284 N 
ATOM      8  C   UNL     1       2.806   4.918   7.908  0.00  0.00    +0.221 A 
ATOM      9  N   UNL     1       2.388   4.048   7.000  0.00  0.00    -0.219 NA
ATOM     10  C   UNL     1       1.934   2.856   7.359  0.00  0.00    +0.045 A 
ATOM     11  C   UNL     1       1.889   2.525   8.700  0.00  0.00    +0.067 A 
ATOM     12  C   UNL     1       2.332   3.465   9.633  0.00  0.00    +0.128 A 
ATOM     13  N   UNL     1       2.780   4.640   9.202  0.00  0.00    -0.199 NA
ATOM     14  C   UNL     1       1.467   1.873   6.316  0.00  0.00    +0.066 C 
ATOM     15  H   UNL     1       3.505   6.830   8.147  0.00  0.00    +0.155 HD
BRANCH  12  16
ATOM     16  N   UNL     1       2.305   3.176  10.989  0.00  0.00    -0.299 N 
ATOM     17  H   UNL     1       2.063   2.287  11.290  0.00  0.00    +0.154 HD
BRANCH  16  18
ATOM     18  C   UNL     1       2.628   4.167  11.921  0.00  0.00    +0.032 A 
ATOM     19  C   UNL     1       2.274   5.489  11.682  0.00  0.00    +0.023 A 
ATOM     20  C   UNL     1       2.589   6.464  12.607  0.00  0.00    +0.005 A 
ATOM     21  C   UNL     1       3.266   6.128  13.765  0.00  0.00    -0.050 A 
ATOM     22  C   UNL     1       3.625   4.814  14.004  0.00  0.00    +0.005 A 
ATOM     23  C   UNL     1       3.308   3.833  13.085  0.00  0.00    +0.023 A 
ATOM     24  C   UNL     1       3.614   7.196  14.770  0.00  0.00    +0.044 C 
ENDBRANCH  16  18
ENDBRANCH  12  16
ENDBRANCH   4   7
BRANCH   1  25
ATOM     25  N   UNL     1       3.871   7.220   2.058  0.00  0.00    -0.216 N 
ATOM     26  H   UNL     1       3.187   7.719   1.584  0.00  0.00    +0.174 HD
BRANCH  25  27
ATOM     27  S   UNL     1       5.214   6.685   1.250  0.00  0.00    +0.072 S 
ATOM     28  O   UNL     1       5.123   7.195  -0.073  0.00  0.00    -0.150 OA
ATOM     29  O   UNL     1       5.326   5.295   1.524  0.00  0.00    -0.150 OA
BRANCH  27  33
ATOM     30  C   UNL     1       8.806   8.675   3.160  0.00  0.00    +0.126 A 
ATOM     31  C   UNL     1       8.197   9.253   2.056  0.00  0.00    -0.007 A 
ATOM     32  C   UNL     1       7.105   8.640   1.471  0.00  0.00    +0.035 A 
ATOM     33  C   UNL     1       6.612   7.459   1.993  0.00  0.00    +0.109 A 
ATOM     34  C   UNL     1       7.213   6.884   3.098  0.00  0.00    +0.035 A 
ATOM     35  C   UNL     1       8.309   7.489   3.682  0.00  0.00    -0.007 A 
ATOM     36  C   UNL     1       8.964   6.862   4.886  0.00  0.00    +0.047 C 
ATOM     37  C   UNL     1       8.730  10.544   1.490  0.00  0.00    +0.047 C 
BRANCH  30  38
ATOM     38  O   UNL     1       9.883   9.272   3.734  0.00  0.00    -0.492 OA
BRANCH  38  40
ATOM     39  C   UNL     1      12.252   9.666   4.002  0.00  0.00    +0.048 C 
ATOM     40  C   UNL     1      11.171   8.896   3.242  0.00  0.00    +0.226 C 
ENDBRANCH  38  40
ENDBRANCH  30  38
ENDBRANCH  27  33
ENDBRANCH  25  27
ENDBRANCH   1  25
TORSDOF 8
