REMARK  Name = ZINC59038839
REMARK  8 active torsions:
REMARK  status: ('A' for Active; 'I' for Inactive)
REMARK    1  A    between atoms: C_1  and  C_2
REMARK    2  A    between atoms: C_2  and  C_25
REMARK    3  A    between atoms: N_3  and  N_4
REMARK    4  A    between atoms: C_7  and  S_10
REMARK    5  A    between atoms: S_10  and  C_11
REMARK    6  A    between atoms: C_11  and  C_12
REMARK    7  A    between atoms: N_14  and  C_15
REMARK    8  A    between atoms: C_16  and  C_23
REMARK                            x       y       z     vdW  Elec       q    Type
REMARK                         _______ _______ _______ _____ _____    ______ ____
ROOT
ATOM      1  N   UNL     1       0.024   0.034   2.342  0.00  0.00    -0.205 N 
ATOM      2  C   UNL     1       0.044  -0.664   3.535  0.00  0.00    +0.232 A 
ATOM      3  N   UNL     1       0.069  -1.974   3.666  0.00  0.00    -0.186 NA
ATOM      4  C   UNL     1       0.084  -2.296   4.963  0.00  0.00    +0.211 A 
ATOM      5  N   UNL     1       0.069  -1.195   5.676  0.00  0.00    -0.144 NA
ATOM      6  N   UNL     1       0.049  -0.122   4.771  0.00  0.00    -0.245 N 
ATOM      7  H   UNL     1       0.011   1.003   2.347  0.00  0.00    +0.177 HD
ATOM      8  H   UNL     1       0.038   0.823   4.992  0.00  0.00    +0.192 HD
ENDROOT
BRANCH   1  11
ATOM      9  C   UNL     1      -0.018   1.503   0.010  0.00  0.00    +0.068 C 
ATOM     10  C   UNL     1       0.002  -0.004   0.002  0.00  0.00    +0.070 C 
ATOM     11  N   UNL     1       0.022  -0.660   1.125  0.00  0.00    -0.184 NA
BRANCH  10  12
ATOM     12  C   UNL     1      -0.000  -0.731  -1.272  0.00  0.00    +0.035 A 
ATOM     13  C   UNL     1       0.011  -2.096  -1.498  0.00  0.00    +0.017 A 
ATOM     14  C   UNL     1       0.006  -2.543  -2.800  0.00  0.00    +0.008 A 
ATOM     15  C   UNL     1      -0.009  -1.639  -3.813  0.00  0.00    +0.046 A 
ATOM     16  S   UNL     1      -0.025  -0.085  -2.937  0.00  0.00    -0.095 S 
ENDBRANCH  10  12
ENDBRANCH   1  11
BRANCH   4  17
ATOM     17  S   UNL     1       0.118  -3.935   5.611  0.00  0.00    -0.075 S 
BRANCH  17  18
ATOM     18  C   UNL     1       0.126  -3.696   7.409  0.00  0.00    +0.173 C 
BRANCH  18  19
ATOM     19  C   UNL     1       0.155  -5.038   8.094  0.00  0.00    +0.228 C 
ATOM     20  O   UNL     1       0.169  -6.055   7.434  0.00  0.00    -0.275 OA
ATOM     21  N   UNL     1       0.166  -5.107   9.440  0.00  0.00    -0.278 N 
ATOM     22  H   UNL     1       0.154  -4.294   9.968  0.00  0.00    +0.155 HD
BRANCH  21  23
ATOM     23  C   UNL     1       0.192  -6.344  10.071  0.00  0.00    +0.090 A 
ATOM     24  C   UNL     1       0.201  -6.605  11.427  0.00  0.00    +0.084 A 
ATOM     25  C   UNL     1       0.231  -8.007  11.840  0.00  0.00    -0.018 A 
ATOM     26  C   UNL     1       0.248  -8.880  10.816  0.00  0.00    -0.004 A 
ATOM     27  S   UNL     1       0.215  -7.863   9.361  0.00  0.00    -0.077 S 
ATOM     28  C   UNL     1       0.282 -10.306  11.295  0.00  0.00    +0.043 C 
ATOM     29  C   UNL     1       0.718 -10.210  12.774  0.00  0.00    +0.010 C 
ATOM     30  C   UNL     1       0.246  -8.791  13.150  0.00  0.00    +0.037 C 
BRANCH  24  31
ATOM     31  C   UNL     1       0.181  -5.545  12.390  0.00  0.00    +0.102 C 
ATOM     32  N   UNL     1       0.166  -4.705  13.154  0.00  0.00    -0.191 NA
ENDBRANCH  24  31
ENDBRANCH  21  23
ENDBRANCH  18  19
ENDBRANCH  17  18
ENDBRANCH   4  17
TORSDOF 7
