REMARK  Name = ZINC56358323
REMARK  3 active torsions:
REMARK  status: ('A' for Active; 'I' for Inactive)
REMARK    1  A    between atoms: C_6  and  C_7
REMARK    2  A    between atoms: C_7  and  C_9
REMARK    3  A    between atoms: C_7  and  N_12
REMARK                            x       y       z     vdW  Elec       q    Type
REMARK                         _______ _______ _______ _____ _____    ______ ____
ROOT
ATOM      1  C   UNL     1      -1.293  -0.774   0.009  0.00  0.00    +0.108 C 
ENDROOT
BRANCH   1   7
ATOM      2  C   UNL     1      -0.017   1.378   0.010  0.00  0.00    +0.009 A 
ATOM      3  C   UNL     1       1.170   2.088   0.002  0.00  0.00    +0.050 A 
ATOM      4  C   UNL     1       2.382   1.415  -0.013  0.00  0.00    +0.162 A 
ATOM      5  C   UNL     1       2.401   0.025  -0.018  0.00  0.00    +0.162 A 
ATOM      6  C   UNL     1       1.207  -0.681  -0.011  0.00  0.00    +0.055 A 
ATOM      7  C   UNL     1       0.002  -0.004   0.002  0.00  0.00    -0.023 A 
ATOM      8  O   UNL     1       3.579  -0.656  -0.024  0.00  0.00    -0.485 OA
ATOM      9  C   UNL     1       4.746   0.081  -0.406  0.00  0.00    +0.270 C 
ATOM     10  C   UNL     1       4.733   1.422   0.340  0.00  0.00    +0.270 C 
ATOM     11  O   UNL     1       3.542   2.127  -0.024  0.00  0.00    -0.485 OA
ENDBRANCH   1   7
BRANCH   1  12
ATOM     12  N   UNL     1      -2.261  -0.109  -0.868  0.00  0.00    -0.292 N 
ATOM     13  C   UNL     1      -3.265  -0.817  -1.423  0.00  0.00    +0.303 C 
ATOM     14  O   UNL     1      -3.367  -2.007  -1.196  0.00  0.00    -0.253 OA
ATOM     15  N   UNL     1      -4.155  -0.205  -2.229  0.00  0.00    -0.286 N 
ATOM     16  C   UNL     1      -4.146   1.220  -2.591  0.00  0.00    +0.109 C 
ATOM     17  C   UNL     1      -5.362   1.468  -3.507  0.00  0.00    +0.020 C 
ATOM     18  C   UNL     1      -6.309   0.291  -3.153  0.00  0.00    +0.020 C 
ATOM     19  C   UNL     1      -5.296  -0.855  -2.899  0.00  0.00    +0.109 C 
ATOM     20  H   UNL     1      -2.179   0.840  -1.048  0.00  0.00    +0.151 HD
ENDBRANCH   1  12
BRANCH   1  21
ATOM     21  C   UNL     1      -1.848  -0.827   1.434  0.00  0.00    +0.014 C 
ATOM     22  C   UNL     1      -1.854  -2.184   2.139  0.00  0.00    +0.006 C 
ATOM     23  C   UNL     1      -3.167  -1.570   1.651  0.00  0.00    +0.006 C 
ENDBRANCH   1  21
TORSDOF 3
