REMARK  Name = ZINC59044984
REMARK  6 active torsions:
REMARK  status: ('A' for Active; 'I' for Inactive)
REMARK    1  A    between atoms: C_5  and  N_7
REMARK    2  A    between atoms: C_8  and  C_10
REMARK    3  A    between atoms: C_10  and  S_11
REMARK    4  A    between atoms: S_11  and  C_12
REMARK    5  A    between atoms: C_15  and  C_18
REMARK    6  A    between atoms: N_16  and  N_17
REMARK                            x       y       z     vdW  Elec       q    Type
REMARK                         _______ _______ _______ _____ _____    ______ ____
ROOT
ATOM      1  C   UNL     1      -1.370  -6.656   0.437  0.00  0.00    +0.209 A 
ATOM      2  N   UNL     1      -0.230  -7.309   0.429  0.00  0.00    -0.121 NA
ATOM      3  N   UNL     1      -0.444  -8.572   0.527  0.00  0.00    -0.127 NA
ATOM      4  C   UNL     1      -1.733  -8.804   0.604  0.00  0.00    +0.182 A 
ATOM      5  N   UNL     1      -2.366  -7.583   0.555  0.00  0.00    -0.224 N 
ENDROOT
BRANCH   4   6
ATOM      6  C   UNL     1      -2.383 -10.126   0.727  0.00  0.00    +0.021 A 
ATOM      7  C   UNL     1      -3.750 -10.261   0.482  0.00  0.00    +0.013 A 
ATOM      8  C   UNL     1      -4.351 -11.497   0.598  0.00  0.00    +0.016 A 
ATOM      9  C   UNL     1      -3.600 -12.603   0.958  0.00  0.00    +0.018 A 
ATOM     10  C   UNL     1      -2.243 -12.476   1.204  0.00  0.00    +0.016 A 
ATOM     11  C   UNL     1      -1.630 -11.246   1.084  0.00  0.00    +0.013 A 
ATOM     12 BR   UNL     1      -4.431 -14.294   1.116  0.00  0.00    -0.050 Br
ENDBRANCH   4   6
BRANCH   5  13
ATOM     13  N   UNL     1      -3.711  -7.348   0.610  0.00  0.00    -0.295 N 
ATOM     14  H   UNL     1      -4.116  -7.352  -0.314  0.00  0.00    +0.163 HD
ATOM     15  H   UNL     1      -4.171  -8.016   1.210  0.00  0.00    +0.163 HD
ENDBRANCH   5  13
BRANCH   1  16
ATOM     16  S   UNL     1      -1.576  -4.910   0.325  0.00  0.00    -0.075 S 
BRANCH  16  17
ATOM     17  C   UNL     1       0.119  -4.276   0.191  0.00  0.00    +0.173 C 
BRANCH  17  19
ATOM     18  N   UNL     1       1.237  -2.080  -0.022  0.00  0.00    -0.284 N 
ATOM     19  C   UNL     1       0.086  -2.773   0.087  0.00  0.00    +0.228 C 
ATOM     20  O   UNL     1      -0.976  -2.187   0.102  0.00  0.00    -0.275 OA
ATOM     21  H   UNL     1       2.080  -2.551  -0.115  0.00  0.00    +0.155 HD
BRANCH  18  26
ATOM     22  C   UNL     1       0.153   1.372   0.637  0.00  0.00    +0.002 A 
ATOM     23  C   UNL     1       1.173   2.086   0.035  0.00  0.00    +0.001 A 
ATOM     24  C   UNL     1       2.214   1.421  -0.586  0.00  0.00    +0.017 A 
ATOM     25  C   UNL     1       2.239   0.040  -0.607  0.00  0.00    +0.039 A 
ATOM     26  C   UNL     1       1.216  -0.681  -0.003  0.00  0.00    +0.047 A 
ATOM     27  C   UNL     1       0.172  -0.009   0.620  0.00  0.00    +0.024 A 
ATOM     28 BR   UNL     1       3.662  -0.869  -1.458  0.00  0.00    -0.048 Br
ENDBRANCH  18  26
ENDBRANCH  17  19
ENDBRANCH  16  17
ENDBRANCH   1  16
TORSDOF 6
