REMARK  Name = ZINC32102138
REMARK  8 active torsions:
REMARK  status: ('A' for Active; 'I' for Inactive)
REMARK    1  A    between atoms: C_1  and  C_2
REMARK    2  A    between atoms: C_2  and  C_3
REMARK    3  A    between atoms: C_2  and  C_4
REMARK    4  A    between atoms: C_4  and  N_5
REMARK    5  A    between atoms: N_23  and  C_24
REMARK    6  A    between atoms: C_24  and  C_25
REMARK    7  A    between atoms: C_24  and  C_26
REMARK    8  A    between atoms: C_24  and  C_27
REMARK                            x       y       z     vdW  Elec       q    Type
REMARK                         _______ _______ _______ _____ _____    ______ ____
ROOT
ATOM      1  N   UNL     1      -2.105  -0.148  -1.230  0.00  0.00    -0.270 N 
ATOM      2  C   UNL     1      -2.811   1.031  -1.395  0.00  0.00    +0.041 A 
ATOM      3  C   UNL     1      -3.037   2.062  -0.483  0.00  0.00    +0.024 A 
ATOM      4  C   UNL     1      -3.790   3.142  -0.920  0.00  0.00    +0.002 A 
ATOM      5  C   UNL     1      -4.300   3.206  -2.201  0.00  0.00    +0.000 A 
ATOM      6  C   UNL     1      -4.081   2.185  -3.119  0.00  0.00    +0.007 A 
ATOM      7  C   UNL     1      -3.334   1.108  -2.692  0.00  0.00    -0.006 A 
ATOM      8  C   UNL     1      -2.907  -0.144  -3.389  0.00  0.00    +0.112 C 
ATOM      9  C   UNL     1      -2.105  -0.899  -2.352  0.00  0.00    +0.235 C 
ATOM     10  O   UNL     1      -1.565  -1.975  -2.500  0.00  0.00    -0.274 OA
ATOM     11  C   UNL     1      -2.031   0.169  -4.601  0.00  0.00    +0.122 C 
ATOM     12  C   UNL     1      -2.865   0.564  -5.788  0.00  0.00    +0.220 C 
ATOM     13  O   UNL     1      -2.456   1.432  -6.530  0.00  0.00    -0.275 OA
ATOM     14  N   UNL     1      -4.053  -0.018  -6.056  0.00  0.00    -0.270 N 
ATOM     15  C   UNL     1      -4.607  -0.867  -5.098  0.00  0.00    +0.128 A 
ATOM     16  C   UNL     1      -4.093  -0.956  -3.829  0.00  0.00    +0.032 A 
ATOM     17  C   UNL     1      -4.853  -1.879  -3.126  0.00  0.00    +0.141 A 
ATOM     18  N   UNL     1      -5.795  -2.325  -3.922  0.00  0.00    -0.177 NA
ATOM     19  N   UNL     1      -5.662  -1.691  -5.169  0.00  0.00    -0.245 N 
ATOM     20  H   UNL     1      -4.511   0.151  -6.894  0.00  0.00    +0.156 HD
ENDROOT
BRANCH  19  21
ATOM     21  C   UNL     1      -6.522  -1.894  -6.337  0.00  0.00    +0.057 C 
ATOM     22  C   UNL     1      -5.681  -2.411  -7.506  0.00  0.00    +0.036 C 
ATOM     23  C   UNL     1      -7.609  -2.916  -5.999  0.00  0.00    +0.036 C 
ATOM     24  C   UNL     1      -7.174  -0.566  -6.727  0.00  0.00    +0.036 C 
ENDBRANCH  19  21
BRANCH   1  25
ATOM     25  C   UNL     1      -1.433  -0.534   0.013  0.00  0.00    +0.116 C 
BRANCH  25  27
ATOM     26  C   UNL     1      -0.019   1.526   0.010  0.00  0.00    +0.009 C 
ATOM     27  C   UNL     1       0.002  -0.004   0.002  0.00  0.00    +0.001 C 
ATOM     28  C   UNL     1       0.742  -0.511   1.242  0.00  0.00    +0.009 C 
ENDBRANCH  25  27
ENDBRANCH   1  25
TORSDOF 3
