REMARK  Name = ZINC46794481
REMARK  8 active torsions:
REMARK  status: ('A' for Active; 'I' for Inactive)
REMARK    1  A    between atoms: C_1  and  C_2
REMARK    2  A    between atoms: N_8  and  C_9
REMARK    3  A    between atoms: C_9  and  C_10
REMARK    4  A    between atoms: C_15  and  C_16
REMARK    5  A    between atoms: C_16  and  N_17
REMARK    6  A    between atoms: C_18  and  C_20
REMARK    7  A    between atoms: C_23  and  S_26
REMARK    8  A    between atoms: S_26  and  N_29
REMARK                            x       y       z     vdW  Elec       q    Type
REMARK                         _______ _______ _______ _____ _____    ______ ____
ROOT
ATOM      1  N   UNL     1       4.392  -2.176   0.331  0.00  0.00    -0.307 N 
ATOM      2  C   UNL     1       4.610  -2.878  -0.799  0.00  0.00    +0.244 C 
ATOM      3  O   UNL     1       3.885  -3.811  -1.084  0.00  0.00    -0.270 OA
ATOM      4  H   UNL     1       4.970  -1.432   0.559  0.00  0.00    +0.149 HD
ENDROOT
BRANCH   2   5
ATOM      5  C   UNL     1       5.731  -2.512  -1.690  0.00  0.00    +0.037 A 
ATOM      6  C   UNL     1       6.569  -1.445  -1.362  0.00  0.00    +0.015 A 
ATOM      7  C   UNL     1       7.614  -1.110  -2.199  0.00  0.00    +0.029 A 
ATOM      8  C   UNL     1       7.832  -1.829  -3.361  0.00  0.00    +0.106 A 
ATOM      9  C   UNL     1       7.005  -2.887  -3.692  0.00  0.00    +0.029 A 
ATOM     10  C   UNL     1       5.960  -3.237  -2.861  0.00  0.00    +0.015 A 
BRANCH   8  11
ATOM     11  S   UNL     1       9.168  -1.393  -4.423  0.00  0.00    +0.061 S 
ATOM     12  O   UNL     1       8.829  -1.871  -5.718  0.00  0.00    -0.153 OA
ATOM     13  O   UNL     1       9.461  -0.027  -4.168  0.00  0.00    -0.153 OA
BRANCH  11  14
ATOM     14  N   UNL     1      10.489  -2.261  -3.929  0.00  0.00    -0.166 NA
ATOM     15  C   UNL     1      11.416  -1.734  -2.914  0.00  0.00    +0.128 C 
ATOM     16  C   UNL     1      11.398  -2.682  -1.713  0.00  0.00    +0.121 C 
ATOM     17  N   UNL     1      11.509  -4.067  -2.147  0.00  0.00    -0.313 N 
ATOM     18  C   UNL     1      11.201  -4.505  -3.369  0.00  0.00    +0.229 C 
ATOM     19  O   UNL     1      11.260  -5.697  -3.588  0.00  0.00    -0.274 OA
ATOM     20  C   UNL     1      10.781  -3.592  -4.482  0.00  0.00    +0.205 C 
ATOM     21  H   UNL     1      11.830  -4.718  -1.503  0.00  0.00    +0.149 HD
ENDBRANCH  11  14
ENDBRANCH   8  11
ENDBRANCH   2   5
BRANCH   1  22
ATOM     22  C   UNL     1       3.281  -2.538   1.215  0.00  0.00    +0.140 C 
BRANCH  22  28
ATOM     23  C   UNL     1       2.526  -0.328   2.116  0.00  0.00    -0.059 A 
ATOM     24  C   UNL     1       2.426   0.595   3.140  0.00  0.00    +0.002 A 
ATOM     25  C   UNL     1       2.979   0.319   4.376  0.00  0.00    +0.000 A 
ATOM     26  C   UNL     1       3.634  -0.880   4.588  0.00  0.00    +0.000 A 
ATOM     27  C   UNL     1       3.734  -1.803   3.565  0.00  0.00    +0.005 A 
ATOM     28  C   UNL     1       3.176  -1.529   2.330  0.00  0.00    -0.029 A 
BRANCH  23  29
ATOM     29  C   UNL     1       1.923  -0.027   0.768  0.00  0.00    -0.042 C 
BRANCH  29  36
ATOM     30  C   UNL     1       1.772  -0.650  -1.965  0.00  0.00    -0.013 C 
ATOM     31  C   UNL     1       2.401   0.657  -1.479  0.00  0.00    -0.071 C 
ATOM     32  C   UNL     1       3.505   1.083  -2.448  0.00  0.00    -0.016 C 
ATOM     33  C   UNL     1       4.131   2.391  -1.957  0.00  0.00    -0.003 C 
ATOM     34  C   UNL     1       4.655   2.192  -0.532  0.00  0.00    -0.019 C 
ATOM     35  C   UNL     1       3.507   1.725   0.367  0.00  0.00    -0.078 C 
ATOM     36  N   UNL     1       2.970   0.457  -0.141  0.00  0.00    +0.384 N 
ATOM     37  H   UNL     1       3.711  -0.226  -0.190  0.00  0.00    -0.081 HD
ENDBRANCH  29  36
ENDBRANCH  23  29
ENDBRANCH  22  28
ENDBRANCH   1  22
TORSDOF 7
