REMARK  Name = ZINC66767174
REMARK  5 active torsions:
REMARK  status: ('A' for Active; 'I' for Inactive)
REMARK    1  A    between atoms: C_1  and  C_2
REMARK    2  A    between atoms: C_2  and  C_3
REMARK    3  A    between atoms: C_3  and  C_5
REMARK    4  A    between atoms: C_3  and  N_15
REMARK    5  A    between atoms: C_16  and  C_18
REMARK                            x       y       z     vdW  Elec       q    Type
REMARK                         _______ _______ _______ _____ _____    ______ ____
ROOT
ATOM      1  N   UNL     1       2.125  -0.091  -1.209  0.00  0.00    -0.302 N 
ATOM      2  C   UNL     1       2.487   1.134  -1.640  0.00  0.00    +0.245 C 
ATOM      3  O   UNL     1       1.647   1.901  -2.067  0.00  0.00    -0.270 OA
ATOM      4  H   UNL     1       2.795  -0.703  -0.868  0.00  0.00    +0.150 HD
ENDROOT
BRANCH   2   5
ATOM      5  C   UNL     1       3.904   1.543  -1.592  0.00  0.00    +0.039 A 
ATOM      6  C   UNL     1       4.871   0.658  -1.106  0.00  0.00    +0.014 A 
ATOM      7  C   UNL     1       6.194   1.038  -1.059  0.00  0.00    +0.017 A 
ATOM      8  C   UNL     1       6.566   2.303  -1.497  0.00  0.00    +0.029 A 
ATOM      9  C   UNL     1       5.606   3.191  -1.986  0.00  0.00    +0.048 A 
ATOM     10  C   UNL     1       4.279   2.814  -2.039  0.00  0.00    +0.037 A 
ATOM     11  N   UNL     1       6.005   4.462  -2.428  0.00  0.00    -0.285 N 
ATOM     12  C   UNL     1       7.013   4.590  -3.299  0.00  0.00    +0.218 C 
ATOM     13  O   UNL     1       7.472   5.691  -3.522  0.00  0.00    -0.275 OA
ATOM     14  C   UNL     1       7.586   3.398  -4.007  0.00  0.00    +0.107 C 
ATOM     15  C   UNL     1       8.751   2.801  -3.198  0.00  0.00    +0.083 C 
ATOM     16  S   UNL     1       8.256   2.808  -1.442  0.00  0.00    -0.123 S 
ATOM     17  H   UNL     1       5.548   5.253  -2.100  0.00  0.00    +0.155 HD
ENDBRANCH   2   5
BRANCH   1  18
ATOM     18  C   UNL     1       0.718  -0.497  -1.257  0.00  0.00    +0.139 C 
BRANCH  18  19
ATOM     19  C   UNL     1       0.632  -2.000  -1.327  0.00  0.00    +0.129 A 
ATOM     20  N   UNL     1       0.142  -2.704  -2.384  0.00  0.00    -0.340 N 
ATOM     21  H   UNL     1      -0.206  -2.333  -3.210  0.00  0.00    +0.167 HD
ATOM     22  C   UNL     1       0.234  -4.043  -2.063  0.00  0.00    +0.066 A 
ATOM     23  C   UNL     1      -0.099  -5.220  -2.721  0.00  0.00    +0.028 A 
ATOM     24  C   UNL     1       0.127  -6.433  -2.105  0.00  0.00    +0.002 A 
ATOM     25  C   UNL     1       0.682  -6.485  -0.835  0.00  0.00    +0.002 A 
ATOM     26  C   UNL     1       1.015  -5.337  -0.172  0.00  0.00    +0.030 A 
ATOM     27  C   UNL     1       0.796  -4.096  -0.776  0.00  0.00    +0.089 A 
ATOM     28  N   UNL     1       1.019  -2.814  -0.389  0.00  0.00    -0.231 NA
ENDBRANCH  18  19
BRANCH  18  30
ATOM     29  C   UNL     1      -0.019   1.526   0.010  0.00  0.00    +0.006 C 
ATOM     30  C   UNL     1       0.002  -0.004   0.002  0.00  0.00    +0.027 C 
ENDBRANCH  18  30
ENDBRANCH   1  18
TORSDOF 4
