REMARK  Name = ZINC24279756
REMARK  10 active torsions:
REMARK  status: ('A' for Active; 'I' for Inactive)
REMARK    1  A    between atoms: C_1  and  C_2
REMARK    2  A    between atoms: C_2  and  C_4
REMARK    3  A    between atoms: C_2  and  N_13
REMARK    4  A    between atoms: N_13  and  C_14
REMARK    5  A    between atoms: N_13  and  C_15
REMARK    6  A    between atoms: C_15  and  N_16
REMARK    7  A    between atoms: C_22  and  C_25
REMARK    8  A    between atoms: C_25  and  C_26
REMARK    9  A    between atoms: C_25  and  C_27
REMARK   10  A    between atoms: C_25  and  C_28
REMARK                            x       y       z     vdW  Elec       q    Type
REMARK                         _______ _______ _______ _____ _____    ______ ____
ROOT
ATOM      1  N   UNL     1      -1.064  -4.477   2.236  0.00  0.00    -0.211 N 
ATOM      2  C   UNL     1      -0.491  -4.338   1.023  0.00  0.00    +0.248 C 
ATOM      3  O   UNL     1      -0.191  -5.220   0.247  0.00  0.00    -0.273 OA
ATOM      4  C   UNL     1      -0.301  -2.850   0.834  0.00  0.00    +0.113 C 
ATOM      5  C   UNL     1       1.180  -2.519   0.681  0.00  0.00    +0.035 C 
ATOM      6  C   UNL     1       1.353  -1.007   0.519  0.00  0.00    +0.006 C 
ATOM      7  C   UNL     1       0.578  -0.534  -0.712  0.00  0.00    -0.005 C 
ATOM      8  C   UNL     1      -0.909  -0.851  -0.532  0.00  0.00    +0.006 C 
ATOM      9  C   UNL     1      -1.092  -2.363  -0.374  0.00  0.00    +0.035 C 
ATOM     10  N   UNL     1      -0.834  -2.263   2.070  0.00  0.00    -0.285 N 
ATOM     11  C   UNL     1      -1.258  -3.292   2.829  0.00  0.00    +0.310 C 
ATOM     12  O   UNL     1      -1.759  -3.160   3.928  0.00  0.00    -0.252 OA
ATOM     13  H   UNL     1      -0.824  -1.172   2.210  0.00  0.00    +0.151 HD
ENDROOT
BRANCH   7  14
ATOM     14  C   UNL     1       0.760   0.975  -0.881  0.00  0.00    -0.035 C 
ATOM     15  C   UNL     1       2.247   1.292  -1.062  0.00  0.00    +0.011 C 
ATOM     16  C   UNL     1      -0.015   1.448  -2.112  0.00  0.00    +0.011 C 
ATOM     17  C   UNL     1       0.233   1.695   0.361  0.00  0.00    +0.011 C 
ENDBRANCH   7  14
BRANCH   1  18
ATOM     18  C   UNL     1      -1.429  -5.765   2.831  0.00  0.00    +0.205 C 
BRANCH  18  19
ATOM     19  N   UNL     1      -0.298  -6.282   3.613  0.00  0.00    -0.281 NA
ATOM     20  C   UNL     1      -0.300  -5.727   4.973  0.00  0.00    +0.107 C 
BRANCH  19  22
ATOM     21  C   UNL     1      -0.007  -8.292   2.244  0.00  0.00    +0.031 C 
ATOM     22  C   UNL     1      -0.307  -7.751   3.643  0.00  0.00    +0.110 C 
BRANCH  22  23
ATOM     23  C   UNL     1       0.745  -8.239   4.606  0.00  0.00    +0.096 A 
ATOM     24  N   UNL     1       1.978  -7.836   4.730  0.00  0.00    -0.242 NA
ATOM     25  C   UNL     1       2.822  -8.357   5.644  0.00  0.00    +0.079 A 
ATOM     26  C   UNL     1       4.172  -8.026   5.900  0.00  0.00    +0.029 A 
ATOM     27  C   UNL     1       4.873  -8.672   6.870  0.00  0.00    +0.002 A 
ATOM     28  C   UNL     1       4.298  -9.674   7.639  0.00  0.00    +0.001 A 
ATOM     29  C   UNL     1       2.981 -10.028   7.419  0.00  0.00    +0.017 A 
ATOM     30  C   UNL     1       2.263  -9.381   6.442  0.00  0.00    +0.039 A 
ATOM     31  S   UNL     1       0.607  -9.480   5.812  0.00  0.00    -0.071 S 
ENDBRANCH  22  23
ENDBRANCH  19  22
ENDBRANCH  18  19
ENDBRANCH   1  18
TORSDOF 5
