REMARK  Name = ZINC09420116
REMARK  9 active torsions:
REMARK  status: ('A' for Active; 'I' for Inactive)
REMARK    1  A    between atoms: C_1  and  C_2
REMARK    2  A    between atoms: C_2  and  C_3
REMARK    3  A    between atoms: C_3  and  C_4
REMARK    4  A    between atoms: C_4  and  N_5
REMARK    5  A    between atoms: C_13  and  C_17
REMARK    6  A    between atoms: C_13  and  N_21
REMARK    7  A    between atoms: C_22  and  C_24
REMARK    8  A    between atoms: C_24  and  C_25
REMARK    9  A    between atoms: C_25  and  C_26
REMARK                            x       y       z     vdW  Elec       q    Type
REMARK                         _______ _______ _______ _____ _____    ______ ____
ROOT
ATOM      1  N   UNL     1       1.815  -2.914   1.343  0.00  0.00    -0.281 N 
ATOM      2  C   UNL     1       3.139  -3.009   1.716  0.00  0.00    +0.120 A 
ATOM      3  C   UNL     1       3.426  -3.265   3.025  0.00  0.00    +0.096 A 
ATOM      4  C   UNL     1       2.392  -3.425   3.955  0.00  0.00    +0.262 A 
ATOM      5  N   UNL     1       1.111  -3.324   3.542  0.00  0.00    -0.275 N 
ATOM      6  C   UNL     1       0.836  -3.066   2.251  0.00  0.00    +0.331 A 
ATOM      7  O   UNL     1      -0.324  -2.973   1.896  0.00  0.00    -0.246 OA
ATOM      8  O   UNL     1       2.645  -3.655   5.125  0.00  0.00    -0.267 OA
ATOM      9  C   UNL     1       4.932  -3.314   3.135  0.00  0.00    +0.240 C 
ATOM     10  C   UNL     1       5.399  -3.050   1.717  0.00  0.00    +0.256 C 
ATOM     11  O   UNL     1       6.547  -2.997   1.329  0.00  0.00    -0.272 OA
ATOM     12  N   UNL     1       4.289  -2.888   0.975  0.00  0.00    -0.269 N 
ATOM     13  H   UNL     1       0.387  -3.433   4.179  0.00  0.00    +0.173 HD
ATOM     14  H   UNL     1       4.300  -2.705   0.023  0.00  0.00    +0.156 HD
ENDROOT
BRANCH   9  15
ATOM     15  C   UNL     1       5.438  -2.223   4.080  0.00  0.00    +0.424 C 
ATOM     16  F   UNL     1       4.982  -2.481   5.378  0.00  0.00    -0.167 F 
ATOM     17  F   UNL     1       6.837  -2.210   4.071  0.00  0.00    -0.167 F 
ATOM     18  F   UNL     1       4.957  -0.979   3.657  0.00  0.00    -0.167 F 
ENDBRANCH   9  15
BRANCH   9  19
ATOM     19  N   UNL     1       5.374  -4.635   3.587  0.00  0.00    -0.291 N 
ATOM     20  C   UNL     1       5.007  -5.738   2.904  0.00  0.00    +0.214 C 
ATOM     21  O   UNL     1       4.389  -5.631   1.866  0.00  0.00    -0.276 OA
ATOM     22  H   UNL     1       5.930  -4.717   4.377  0.00  0.00    +0.150 HD
BRANCH  20  23
ATOM     23  C   UNL     1       5.366  -7.104   3.430  0.00  0.00    +0.096 C 
BRANCH  23  24
ATOM     24  C   UNL     1       4.836  -8.174   2.474  0.00  0.00    +0.013 C 
BRANCH  24  25
ATOM     25  C   UNL     1       5.200  -9.561   3.008  0.00  0.00    -0.011 C 
ATOM     26  C   UNL     1       6.721  -9.728   3.000  0.00  0.00    +0.003 C 
ATOM     27  C   UNL     1       7.085 -11.114   3.534  0.00  0.00    +0.000 C 
ATOM     28  C   UNL     1       6.450 -12.186   2.646  0.00  0.00    +0.000 C 
ATOM     29  C   UNL     1       4.929 -12.019   2.655  0.00  0.00    +0.000 C 
ATOM     30  C   UNL     1       4.565 -10.633   2.120  0.00  0.00    +0.003 C 
ENDBRANCH  24  25
ENDBRANCH  23  24
ENDBRANCH  20  23
ENDBRANCH   9  19
BRANCH   1  31
ATOM     31  C   UNL     1       1.473  -2.640  -0.055  0.00  0.00    +0.128 C 
BRANCH  31  32
ATOM     32  C   UNL     1       1.386  -1.127  -0.271  0.00  0.00    +0.021 C 
BRANCH  32  34
ATOM     33  C   UNL     1       0.941   0.671  -1.947  0.00  0.00    +0.004 C 
ATOM     34  C   UNL     1       1.028  -0.841  -1.731  0.00  0.00    -0.002 C 
ENDBRANCH  32  34
ENDBRANCH  31  32
ENDBRANCH   1  31
TORSDOF 8
