REMARK  Name = ZINC16735793
REMARK  8 active torsions:
REMARK  status: ('A' for Active; 'I' for Inactive)
REMARK    1  A    between atoms: C_1  and  C_2
REMARK    2  A    between atoms: N_13  and  C_26
REMARK    3  A    between atoms: C_14  and  S_16
REMARK    4  A    between atoms: S_16  and  C_17
REMARK    5  A    between atoms: C_17  and  C_19
REMARK    6  A    between atoms: C_17  and  C_20
REMARK    7  A    between atoms: N_22  and  C_23
REMARK    8  A    between atoms: C_23  and  C_24
REMARK                            x       y       z     vdW  Elec       q    Type
REMARK                         _______ _______ _______ _____ _____    ______ ____
ROOT
ATOM      1  C   UNL     1      -9.819   8.163  -0.475  0.00  0.00    +0.008 C 
ATOM      2  C   UNL     1      -8.834   7.049  -0.833  0.00  0.00    -0.009 C 
ATOM      3  C   UNL     1      -9.421   5.694  -0.425  0.00  0.00    +0.008 C 
ATOM      4  C   UNL     1      -8.566   4.564  -1.001  0.00  0.00    +0.037 C 
ATOM      5  C   UNL     1      -7.111   4.797  -0.605  0.00  0.00    -0.023 A 
ATOM      6  C   UNL     1      -6.693   6.014  -0.202  0.00  0.00    -0.004 A 
ATOM      7  S   UNL     1      -4.967   5.815   0.150  0.00  0.00    -0.073 S 
ATOM      8  C   UNL     1      -4.811   4.092  -0.249  0.00  0.00    +0.117 A 
ATOM      9  C   UNL     1      -6.110   3.729  -0.643  0.00  0.00    +0.076 A 
ATOM     10  C   UNL     1      -6.286   2.363  -1.029  0.00  0.00    +0.268 A 
ATOM     11  O   UNL     1      -7.379   1.958  -1.386  0.00  0.00    -0.267 OA
ATOM     12  N   UNL     1      -5.228   1.532  -0.993  0.00  0.00    -0.253 N 
ATOM     13  C   UNL     1      -3.996   1.969  -0.596  0.00  0.00    +0.178 A 
ATOM     14  N   UNL     1      -3.809   3.221  -0.230  0.00  0.00    -0.215 NA
ATOM     15  C   UNL     1      -7.514   7.261  -0.078  0.00  0.00    +0.046 C 
ENDROOT
BRANCH  12  16
ATOM     16  C   UNL     1      -5.394   0.192  -1.370  0.00  0.00    +0.087 A 
ATOM     17  C   UNL     1      -5.734  -0.761  -0.421  0.00  0.00    +0.029 A 
ATOM     18  C   UNL     1      -5.902  -2.080  -0.796  0.00  0.00    +0.002 A 
ATOM     19  C   UNL     1      -5.720  -2.454  -2.115  0.00  0.00    +0.003 A 
ATOM     20  C   UNL     1      -5.375  -1.510  -3.064  0.00  0.00    +0.040 A 
ATOM     21  C   UNL     1      -5.211  -0.186  -2.696  0.00  0.00    +0.147 A 
ATOM     22  F   UNL     1      -4.874   0.737  -3.623  0.00  0.00    -0.203 F 
ENDBRANCH  12  16
BRANCH  13  23
ATOM     23  S   UNL     1      -2.642   0.843  -0.565  0.00  0.00    -0.075 S 
BRANCH  23  24
ATOM     24  C   UNL     1      -1.330   1.944   0.019  0.00  0.00    +0.137 C 
ATOM     25  C   UNL     1      -1.646   2.404   1.444  0.00  0.00    +0.029 C 
BRANCH  24  26
ATOM     26  C   UNL     1      -0.014   1.209   0.009  0.00  0.00    +0.226 C 
ATOM     27  O   UNL     1       0.002  -0.004   0.002  0.00  0.00    -0.275 OA
ATOM     28  N   UNL     1       1.143   1.898   0.001  0.00  0.00    -0.311 N 
ATOM     29  H   UNL     1       1.130   2.868   0.007  0.00  0.00    +0.149 HD
BRANCH  28  30
ATOM     30  C   UNL     1       2.422   1.183  -0.015  0.00  0.00    +0.131 C 
BRANCH  30  31
ATOM     31  C   UNL     1       3.554   2.178  -0.020  0.00  0.00    -0.016 C 
ATOM     32  C   UNL     1       4.484   2.116   0.900  0.00  0.00    +0.005 C 
ENDBRANCH  30  31
ENDBRANCH  28  30
ENDBRANCH  24  26
ENDBRANCH  23  24
ENDBRANCH  13  23
TORSDOF 6
