REMARK  Name = ZINC57390627
REMARK  8 active torsions:
REMARK  status: ('A' for Active; 'I' for Inactive)
REMARK    1  A    between atoms: C_1  and  C_2
REMARK    2  A    between atoms: C_8  and  N_10
REMARK    3  A    between atoms: N_10  and  C_11
REMARK    4  A    between atoms: C_11  and  N_13
REMARK    5  A    between atoms: N_13  and  N_14
REMARK    6  A    between atoms: C_15  and  C_17
REMARK    7  A    between atoms: C_21  and  S_23
REMARK    8  A    between atoms: S_23  and  N_26
REMARK                            x       y       z     vdW  Elec       q    Type
REMARK                         _______ _______ _______ _____ _____    ______ ____
ROOT
ATOM      1  N   UNL     1       4.668   0.942   1.166  0.00  0.00    -0.231 N 
ATOM      2  C   UNL     1       5.933   1.409   1.156  0.00  0.00    +0.260 C 
ATOM      3  O   UNL     1       6.545   1.528   2.200  0.00  0.00    -0.269 OA
ATOM      4  H   UNL     1       4.180   0.848   0.333  0.00  0.00    +0.173 HD
ENDROOT
BRANCH   2   5
ATOM      5  C   UNL     1       6.575   1.776  -0.122  0.00  0.00    +0.040 A 
ATOM      6  C   UNL     1       5.872   1.646  -1.322  0.00  0.00    +0.016 A 
ATOM      7  C   UNL     1       6.476   1.990  -2.512  0.00  0.00    +0.041 A 
ATOM      8  C   UNL     1       7.779   2.465  -2.520  0.00  0.00    +0.150 A 
ATOM      9  C   UNL     1       8.481   2.596  -1.332  0.00  0.00    +0.141 A 
ATOM     10  C   UNL     1       7.885   2.260  -0.135  0.00  0.00    +0.044 A 
ATOM     11  F   UNL     1       8.366   2.801  -3.689  0.00  0.00    -0.203 F 
BRANCH   9  12
ATOM     12  S   UNL     1      10.137   3.199  -1.351  0.00  0.00    +0.064 S 
ATOM     13  O   UNL     1      10.131   4.376  -2.146  0.00  0.00    -0.153 OA
ATOM     14  O   UNL     1      10.587   3.192  -0.003  0.00  0.00    -0.153 OA
BRANCH  12  15
ATOM     15  N   UNL     1      11.055   2.084  -2.162  0.00  0.00    -0.176 NA
ATOM     16  C   UNL     1      11.696   0.976  -1.441  0.00  0.00    +0.109 C 
ATOM     17  C   UNL     1      11.294  -0.344  -2.108  0.00  0.00    +0.017 C 
ATOM     18  C   UNL     1      11.635  -0.282  -3.599  0.00  0.00    +0.003 C 
ATOM     19  C   UNL     1      10.846   0.852  -4.258  0.00  0.00    +0.017 C 
ATOM     20  C   UNL     1      11.238   2.182  -3.616  0.00  0.00    +0.109 C 
ENDBRANCH  12  15
ENDBRANCH   9  12
ENDBRANCH   2   5
BRANCH   1  21
ATOM     21  N   UNL     1       4.059   0.594   2.379  0.00  0.00    -0.246 N 
ATOM     22  H   UNL     1       4.548   0.689   3.211  0.00  0.00    +0.172 HD
BRANCH  21  23
ATOM     23  C   UNL     1       2.795   0.128   2.388  0.00  0.00    +0.147 C 
ATOM     24  S   UNL     1       2.051  -0.298   3.870  0.00  0.00    -0.017 S 
BRANCH  23  25
ATOM     25  N   UNL     1       2.116  -0.004   1.231  0.00  0.00    -0.322 N 
ATOM     26  H   UNL     1       2.538   0.237   0.392  0.00  0.00    +0.148 HD
BRANCH  25  33
ATOM     27  C   UNL     1      -0.019   1.526   0.010  0.00  0.00    +0.009 C 
ATOM     28  C   UNL     1       0.002  -0.004   0.002  0.00  0.00    +0.006 C 
ATOM     29  C   UNL     1       0.718  -0.497  -1.257  0.00  0.00    +0.005 C 
ATOM     30  C   UNL     1       0.739  -2.027  -1.265  0.00  0.00    +0.000 C 
ATOM     31  C   UNL     1       1.479  -2.534  -0.026  0.00  0.00    +0.002 C 
ATOM     32  C   UNL     1       0.763  -2.041   1.233  0.00  0.00    +0.022 C 
ATOM     33  C   UNL     1       0.742  -0.511   1.242  0.00  0.00    +0.075 C 
ENDBRANCH  25  33
ENDBRANCH  23  25
ENDBRANCH  21  23
ENDBRANCH   1  21
TORSDOF 7
