REMARK  Name = ZINC40752237
REMARK  7 active torsions:
REMARK  status: ('A' for Active; 'I' for Inactive)
REMARK    1  A    between atoms: C_1  and  C_2
REMARK    2  A    between atoms: C_5  and  O_9
REMARK    3  A    between atoms: C_7  and  C_8
REMARK    4  A    between atoms: O_9  and  C_10
REMARK    5  A    between atoms: C_11  and  N_27
REMARK    6  A    between atoms: C_12  and  O_16
REMARK    7  A    between atoms: O_16  and  C_17
REMARK                            x       y       z     vdW  Elec       q    Type
REMARK                         _______ _______ _______ _____ _____    ______ ____
ROOT
ATOM      1  C   UNL     1      -0.149  -4.750  -1.224  0.00  0.00    +0.248 A 
ATOM      2  C   UNL     1      -0.183  -6.144  -1.283  0.00  0.00    +0.150 A 
ATOM      3  C   UNL     1      -0.301  -6.748  -2.535  0.00  0.00    +0.248 A 
ATOM      4  N   UNL     1      -0.376  -5.979  -3.616  0.00  0.00    -0.199 NA
ATOM      5  C   UNL     1      -0.339  -4.665  -3.517  0.00  0.00    +0.229 A 
ATOM      6  N   UNL     1      -0.234  -4.056  -2.353  0.00  0.00    -0.199 NA
ENDROOT
BRANCH   2   7
ATOM      7  N   UNL     1      -0.101  -6.917  -0.115  0.00  0.00    -0.350 N 
ATOM      8  H   UNL     1      -0.019  -6.483   0.749  0.00  0.00    +0.143 HD
ATOM      9  H   UNL     1      -0.127  -7.885  -0.171  0.00  0.00    +0.143 HD
ENDBRANCH   2   7
BRANCH   1  10
ATOM     10  O   UNL     1      -0.035  -4.114  -0.031  0.00  0.00    -0.436 OA
BRANCH  10  15
ATOM     11  C   UNL     1      -0.331   1.510   0.006  0.00  0.00    +0.044 C 
ATOM     12  C   UNL     1      -0.252   0.006  -0.004  0.00  0.00    -0.047 A 
ATOM     13  C   UNL     1      -1.403  -0.745  -0.154  0.00  0.00    +0.007 A 
ATOM     14  C   UNL     1      -1.333  -2.125  -0.164  0.00  0.00    +0.046 A 
ATOM     15  C   UNL     1      -0.106  -2.757  -0.022  0.00  0.00    +0.131 A 
ATOM     16  C   UNL     1       1.047  -2.002   0.129  0.00  0.00    +0.050 A 
ATOM     17  C   UNL     1       0.973  -0.622   0.133  0.00  0.00    -0.044 A 
ATOM     18  C   UNL     1       2.226   0.200   0.290  0.00  0.00    +0.044 C 
ENDBRANCH  10  15
ENDBRANCH   1  10
BRANCH   3  19
ATOM     19  O   UNL     1      -0.339  -8.099  -2.647  0.00  0.00    -0.434 OA
BRANCH  19  20
ATOM     20  C   UNL     1      -0.332  -8.636  -3.895  0.00  0.00    +0.156 A 
ATOM     21  C   UNL     1      -1.512  -9.012  -4.494  0.00  0.00    +0.048 A 
ATOM     22  C   UNL     1      -1.520  -9.563  -5.772  0.00  0.00    +0.004 A 
ATOM     23  C   UNL     1      -0.361  -9.744  -6.464  0.00  0.00    +0.010 A 
ATOM     24  C   UNL     1       0.864  -9.373  -5.886  0.00  0.00    +0.004 A 
ATOM     25  C   UNL     1       0.885  -8.807  -4.588  0.00  0.00    +0.113 A 
ATOM     26  N   UNL     1       2.048  -8.448  -4.037  0.00  0.00    -0.251 NA
ATOM     27  C   UNL     1       3.182  -8.605  -4.676  0.00  0.00    +0.111 A 
ATOM     28  C   UNL     1       3.232  -9.151  -5.957  0.00  0.00    +0.020 A 
ATOM     29  C   UNL     1       2.080  -9.548  -6.574  0.00  0.00    +0.011 A 
ENDBRANCH  19  20
ENDBRANCH   3  19
TORSDOF 5
