REMARK  Name = ZINC20823095
REMARK  5 active torsions:
REMARK  status: ('A' for Active; 'I' for Inactive)
REMARK    1  A    between atoms: C_1  and  C_2
REMARK    2  A    between atoms: C_2  and  C_22
REMARK    3  A    between atoms: N_5  and  C_9
REMARK    4  A    between atoms: C_9  and  C_10
REMARK    5  A    between atoms: C_13  and  C_15
REMARK                            x       y       z     vdW  Elec       q    Type
REMARK                         _______ _______ _______ _____ _____    ______ ____
ROOT
ATOM      1  C   UNL     1       3.836  -3.886   3.659  0.00  0.00    +0.047 C 
ATOM      2  C   UNL     1       2.883  -2.716   3.409  0.00  0.00    +0.136 C 
ATOM      3  C   UNL     1       3.153  -2.094   2.053  0.00  0.00    +0.251 C 
ATOM      4  O   UNL     1       4.181  -1.571   1.679  0.00  0.00    -0.272 OA
ATOM      5  N   UNL     1       2.012  -2.241   1.351  0.00  0.00    -0.215 N 
ATOM      6  C   UNL     1       1.071  -2.870   2.065  0.00  0.00    +0.310 C 
ATOM      7  O   UNL     1      -0.041  -3.121   1.643  0.00  0.00    -0.252 OA
ATOM      8  N   UNL     1       1.493  -3.192   3.300  0.00  0.00    -0.281 N 
ATOM      9  H   UNL     1       1.018  -3.701   4.152  0.00  0.00    +0.152 HD
ENDROOT
BRANCH   2  10
ATOM     10  C   UNL     1       3.007  -1.690   4.506  0.00  0.00    +0.003 A 
ATOM     11  C   UNL     1       1.901  -1.349   5.262  0.00  0.00    +0.009 A 
ATOM     12  C   UNL     1       2.015  -0.408   6.268  0.00  0.00    +0.020 A 
ATOM     13  C   UNL     1       3.235   0.194   6.518  0.00  0.00    +0.042 A 
ATOM     14  C   UNL     1       4.342  -0.147   5.762  0.00  0.00    +0.040 A 
ATOM     15  C   UNL     1       4.229  -1.093   4.759  0.00  0.00    +0.048 A 
ATOM     16 CL   UNL     1       5.620  -1.527   3.815  0.00  0.00    -0.083 Cl
ATOM     17 CL   UNL     1       3.378   1.376   7.782  0.00  0.00    -0.083 Cl
ENDBRANCH   2  10
BRANCH   5  18
ATOM     18  C   UNL     1       1.827  -1.776  -0.026  0.00  0.00    +0.215 C 
BRANCH  18  19
ATOM     19  C   UNL     1       1.297  -0.365  -0.012  0.00  0.00    +0.235 A 
ATOM     20  N   UNL     1       2.011   0.726  -0.013  0.00  0.00    -0.110 NA
ATOM     21  N   UNL     1       1.232   1.750  -0.000  0.00  0.00    -0.107 NA
ATOM     22  C   UNL     1      -0.016   1.344   0.009  0.00  0.00    +0.248 A 
ATOM     23  O   UNL     1       0.002  -0.004   0.002  0.00  0.00    -0.419 OA
BRANCH  22  24
ATOM     24  C   UNL     1      -1.218   2.204   0.020  0.00  0.00    +0.039 A 
ATOM     25  C   UNL     1      -2.491   1.631   0.018  0.00  0.00    +0.014 A 
ATOM     26  C   UNL     1      -3.608   2.439   0.032  0.00  0.00    +0.016 A 
ATOM     27  C   UNL     1      -3.470   3.817   0.039  0.00  0.00    +0.018 A 
ATOM     28  C   UNL     1      -2.210   4.391   0.036  0.00  0.00    +0.016 A 
ATOM     29  C   UNL     1      -1.085   3.594   0.027  0.00  0.00    +0.014 A 
ATOM     30 BR   UNL     1      -5.007   4.918   0.053  0.00  0.00    -0.050 Br
ENDBRANCH  22  24
ENDBRANCH  18  19
ENDBRANCH   5  18
TORSDOF 4
