REMARK  Name = ZINC66265379
REMARK  3 active torsions:
REMARK  status: ('A' for Active; 'I' for Inactive)
REMARK    1  A    between atoms: N_11  and  C_12
REMARK    2  A    between atoms: C_12  and  C_14
REMARK    3  A    between atoms: C_17  and  C_19
REMARK                            x       y       z     vdW  Elec       q    Type
REMARK                         _______ _______ _______ _____ _____    ______ ____
ROOT
ATOM      1  C   UNL     1      -0.018   1.375  -0.018  0.00  0.00    +0.002 A 
ATOM      2  C   UNL     1       1.167   2.090  -0.015  0.00  0.00    +0.002 A 
ATOM      3  C   UNL     1       2.379   1.429  -0.020  0.00  0.00    +0.028 A 
ATOM      4  C   UNL     1       2.409   0.041  -0.029  0.00  0.00    +0.065 A 
ATOM      5  C   UNL     1       1.214  -0.680  -0.032  0.00  0.00    +0.065 A 
ATOM      6  C   UNL     1       0.001  -0.005  -0.026  0.00  0.00    +0.028 A 
ATOM      7  N   UNL     1       1.548  -2.031  -0.041  0.00  0.00    -0.326 N 
ATOM      8  H   UNL     1       0.921  -2.771  -0.044  0.00  0.00    +0.169 HD
ATOM      9  C   UNL     1       2.905  -2.134  -0.043  0.00  0.00    +0.199 A 
ATOM     10  N   UNL     1       3.448  -0.885  -0.036  0.00  0.00    -0.326 N 
ATOM     11  N   UNL     1       3.590  -3.269  -0.050  0.00  0.00    -0.142 NA
ATOM     12  H   UNL     1       4.395  -0.677  -0.036  0.00  0.00    +0.169 HD
ENDROOT
BRANCH  11  13
ATOM     13  C   UNL     1       4.926  -3.246  -0.165  0.00  0.00    +0.278 C 
ATOM     14  O   UNL     1       5.520  -2.180  -0.166  0.00  0.00    -0.267 OA
BRANCH  13  15
ATOM     15  C   UNL     1       5.675  -4.504  -0.289  0.00  0.00    +0.096 A 
ATOM     16  C   UNL     1       7.041  -4.714  -0.412  0.00  0.00    +0.132 A 
ATOM     17  N   UNL     1       7.492  -5.934  -0.509  0.00  0.00    -0.246 NA
ATOM     18  C   UNL     1       6.671  -6.983  -0.494  0.00  0.00    +0.115 A 
ATOM     19  S   UNL     1       5.079  -6.190  -0.317  0.00  0.00    -0.062 S 
BRANCH  18  20
ATOM     20  C   UNL     1       6.990  -8.414  -0.592  0.00  0.00    +0.044 A 
ATOM     21  C   UNL     1       8.225  -9.025  -0.718  0.00  0.00    +0.018 A 
ATOM     22  C   UNL     1       8.271 -10.397  -0.792  0.00  0.00    +0.008 A 
ATOM     23  C   UNL     1       7.112 -11.105  -0.739  0.00  0.00    +0.046 A 
ATOM     24  S   UNL     1       5.887  -9.818  -0.571  0.00  0.00    -0.095 S 
ENDBRANCH  18  20
ENDBRANCH  13  15
ENDBRANCH  11  13
TORSDOF 3
