REMARK  Name = ZINC47515741
REMARK  4 active torsions:
REMARK  status: ('A' for Active; 'I' for Inactive)
REMARK    1  A    between atoms: C_4  and  C_7
REMARK    2  A    between atoms: C_8  and  C_9
REMARK    3  A    between atoms: N_11  and  C_12
REMARK    4  A    between atoms: C_17  and  N_18
REMARK                            x       y       z     vdW  Elec       q    Type
REMARK                         _______ _______ _______ _____ _____    ______ ____
ROOT
ATOM      1  C   UNL     1       6.269  -4.724  -0.165  0.00  0.00    +0.055 A 
ATOM      2  C   UNL     1       7.437  -3.977  -0.149  0.00  0.00    +0.025 A 
ATOM      3  C   UNL     1       8.662  -4.608  -0.249  0.00  0.00    +0.002 A 
ATOM      4  C   UNL     1       8.728  -5.985  -0.365  0.00  0.00    +0.002 A 
ATOM      5  C   UNL     1       7.569  -6.737  -0.382  0.00  0.00    +0.025 A 
ATOM      6  C   UNL     1       6.335  -6.112  -0.277  0.00  0.00    +0.056 A 
ENDROOT
BRANCH   6   7
ATOM      7  N   UNL     1       5.159  -6.873  -0.288  0.00  0.00    -0.268 N 
ATOM      8  C   UNL     1       5.145  -8.084  -0.879  0.00  0.00    +0.306 C 
ATOM      9  O   UNL     1       6.122  -8.474  -1.490  0.00  0.00    -0.252 OA
ATOM     10  N   UNL     1       4.049  -8.864  -0.793  0.00  0.00    -0.285 N 
ATOM     11  C   UNL     1       2.803  -8.516  -0.095  0.00  0.00    +0.109 C 
ATOM     12  C   UNL     1       1.845  -9.718  -0.242  0.00  0.00    +0.020 C 
ATOM     13  C   UNL     1       2.810 -10.898  -0.530  0.00  0.00    +0.020 C 
ATOM     14  C   UNL     1       3.899 -10.204  -1.390  0.00  0.00    +0.109 C 
ATOM     15  H   UNL     1       4.354  -6.529   0.130  0.00  0.00    +0.156 HD
ENDBRANCH   6   7
BRANCH   1  18
ATOM     16  C   UNL     1       4.934  -2.881   0.531  0.00  0.00    +0.241 C 
ATOM     17  O   UNL     1       5.910  -2.392   1.070  0.00  0.00    -0.270 OA
ATOM     18  N   UNL     1       5.026  -4.086  -0.064  0.00  0.00    -0.280 N 
ATOM     19  H   UNL     1       4.232  -4.512  -0.422  0.00  0.00    +0.155 HD
BRANCH  16  21
ATOM     20  C   UNL     1       3.569  -0.953   1.126  0.00  0.00    +0.013 C 
ATOM     21  C   UNL     1       3.661  -2.159   0.530  0.00  0.00    +0.068 C 
BRANCH  20  25
ATOM     22  C   UNL     1      -0.122   1.139   1.121  0.00  0.00    +0.000 A 
ATOM     23  C   UNL     1       0.986   1.698   1.735  0.00  0.00    +0.001 A 
ATOM     24  C   UNL     1       2.189   1.024   1.741  0.00  0.00    +0.008 A 
ATOM     25  C   UNL     1       2.288  -0.227   1.125  0.00  0.00    -0.025 A 
ATOM     26  C   UNL     1       1.165  -0.785   0.506  0.00  0.00    +0.008 A 
ATOM     27  C   UNL     1      -0.031  -0.099   0.509  0.00  0.00    +0.001 A 
ENDBRANCH  20  25
ENDBRANCH  16  21
ENDBRANCH   1  18
TORSDOF 4
