REMARK  Name = ZINC64422224
REMARK  5 active torsions:
REMARK  status: ('A' for Active; 'I' for Inactive)
REMARK    1  A    between atoms: C_1  and  S_2
REMARK    2  A    between atoms: S_2  and  C_5
REMARK    3  A    between atoms: C_12  and  N_15
REMARK    4  A    between atoms: C_16  and  C_18
REMARK    5  A    between atoms: C_18  and  N_19
REMARK                            x       y       z     vdW  Elec       q    Type
REMARK                         _______ _______ _______ _____ _____    ______ ____
ROOT
ATOM      1  N   UNL     1       5.106  -0.639  -5.649  0.00  0.00    -0.287 N 
ATOM      2  C   UNL     1       6.447  -0.715  -5.764  0.00  0.00    +0.235 C 
ATOM      3  O   UNL     1       7.056  -1.590  -5.186  0.00  0.00    -0.274 OA
ATOM      4  H   UNL     1       4.618   0.060  -6.111  0.00  0.00    +0.151 HD
ENDROOT
BRANCH   1  12
ATOM      5  C   UNL     1       0.845  -0.437  -1.483  0.00  0.00    +0.089 A 
ATOM      6  C   UNL     1       0.145  -0.615  -2.662  0.00  0.00    +0.029 A 
ATOM      7  C   UNL     1       0.791  -0.954  -3.828  0.00  0.00    +0.026 A 
ATOM      8  C   UNL     1       2.186  -1.131  -3.863  0.00  0.00    +0.043 A 
ATOM      9  C   UNL     1       2.866  -0.944  -2.655  0.00  0.00    +0.034 A 
ATOM     10  C   UNL     1       2.221  -0.599  -1.489  0.00  0.00    +0.043 A 
ATOM     11  S   UNL     1       4.578  -1.237  -3.037  0.00  0.00    -0.082 S 
ATOM     12  C   UNL     1       4.385  -1.613  -4.825  0.00  0.00    +0.224 C 
ATOM     13  N   UNL     1       2.932  -1.472  -4.990  0.00  0.00    -0.316 N 
ATOM     14  H   UNL     1       2.508  -1.613  -5.851  0.00  0.00    +0.149 HD
BRANCH   5  16
ATOM     15  C   UNL     1      -0.022   1.810   0.012  0.00  0.00    +0.200 C 
ATOM     16  S   UNL     1       0.002  -0.004   0.002  0.00  0.00    -0.006 S 
ATOM     17  O   UNL     1       0.835  -0.488   1.046  0.00  0.00    -0.170 OA
ATOM     18  O   UNL     1      -1.315  -0.510  -0.168  0.00  0.00    -0.170 OA
ENDBRANCH   5  16
ENDBRANCH   1  12
BRANCH   2  19
ATOM     19  C   UNL     1       7.188   0.286  -6.611  0.00  0.00    +0.225 C 
BRANCH  19  20
ATOM     20  N   UNL     1       8.623  -0.009  -6.574  0.00  0.00    -0.252 N 
ATOM     21  C   UNL     1       9.391   0.556  -5.617  0.00  0.00    +0.265 A 
ATOM     22  O   UNL     1       8.907   1.304  -4.790  0.00  0.00    -0.267 OA
ATOM     23  C   UNL     1      10.831   0.241  -5.602  0.00  0.00    +0.063 A 
ATOM     24  C   UNL     1      11.688   0.783  -4.648  0.00  0.00    +0.015 A 
ATOM     25  C   UNL     1      13.028   0.458  -4.676  0.00  0.00    +0.001 A 
ATOM     26  C   UNL     1      13.521  -0.402  -5.645  0.00  0.00    +0.002 A 
ATOM     27  C   UNL     1      12.681  -0.946  -6.597  0.00  0.00    +0.026 A 
ATOM     28  C   UNL     1      11.332  -0.630  -6.584  0.00  0.00    +0.056 A 
ATOM     29  N   UNL     1      10.454  -1.156  -7.521  0.00  0.00    -0.307 N 
ATOM     30  H   UNL     1      10.785  -1.759  -8.205  0.00  0.00    +0.170 HD
ATOM     31  C   UNL     1       9.147  -0.841  -7.488  0.00  0.00    +0.330 A 
ATOM     32  O   UNL     1       8.410  -1.325  -8.324  0.00  0.00    -0.246 OA
ENDBRANCH  19  20
ENDBRANCH   2  19
TORSDOF 4
