REMARK  Name = ZINC36277121
REMARK  6 active torsions:
REMARK  status: ('A' for Active; 'I' for Inactive)
REMARK    1  A    between atoms: C_1  and  C_2
REMARK    2  A    between atoms: C_2  and  O_3
REMARK    3  A    between atoms: O_3  and  C_4
REMARK    4  A    between atoms: C_7  and  C_10
REMARK    5  A    between atoms: C_11  and  C_21
REMARK    6  A    between atoms: C_15  and  N_20
REMARK                            x       y       z     vdW  Elec       q    Type
REMARK                         _______ _______ _______ _____ _____    ______ ____
ROOT
ATOM      1  C   UNL     1      -1.354  -6.165   0.132  0.00  0.00    +0.005 A 
ATOM      2  C   UNL     1      -1.578  -6.843   1.281  0.00  0.00    -0.003 A 
ATOM      3  S   UNL     1      -1.807  -8.524   0.734  0.00  0.00    -0.073 S 
ATOM      4  C   UNL     1      -1.599  -8.283  -1.011  0.00  0.00    +0.116 A 
ATOM      5  C   UNL     1      -1.361  -6.898  -1.130  0.00  0.00    +0.055 A 
ATOM      6  C   UNL     1      -1.160  -6.425  -2.454  0.00  0.00    +0.130 A 
ATOM      7  N   UNL     1      -1.211  -7.282  -3.462  0.00  0.00    -0.202 NA
ATOM      8  C   UNL     1      -1.444  -8.570  -3.278  0.00  0.00    +0.225 A 
ATOM      9  N   UNL     1      -1.628  -9.069  -2.069  0.00  0.00    -0.210 NA
ATOM     10 CL   UNL     1      -1.496  -9.629  -4.652  0.00  0.00    -0.041 Cl
ATOM     11  C   UNL     1      -1.623  -6.306   2.688  0.00  0.00    +0.052 C 
ENDROOT
BRANCH   1  15
ATOM     12  C   UNL     1      -0.660  -1.969   0.193  0.00  0.00    +0.121 A 
ATOM     13  C   UNL     1       0.388  -2.841  -0.073  0.00  0.00    +0.046 A 
ATOM     14  C   UNL     1       0.166  -4.202  -0.094  0.00  0.00    +0.012 A 
ATOM     15  C   UNL     1      -1.112  -4.702   0.153  0.00  0.00    -0.016 A 
ATOM     16  C   UNL     1      -2.162  -3.824   0.421  0.00  0.00    +0.012 A 
ATOM     17  C   UNL     1      -1.932  -2.464   0.446  0.00  0.00    +0.046 A 
BRANCH  12  18
ATOM     18  O   UNL     1      -0.438  -0.628   0.213  0.00  0.00    -0.492 OA
BRANCH  18  20
ATOM     19  C   UNL     1       0.949   1.340   0.010  0.00  0.00    +0.048 C 
ATOM     20  C   UNL     1       0.895  -0.187  -0.055  0.00  0.00    +0.225 C 
ENDBRANCH  18  20
ENDBRANCH  12  18
ENDBRANCH   1  15
BRANCH   6  21
ATOM     21  N   UNL     1      -0.915  -5.084  -2.688  0.00  0.00    -0.343 N 
ATOM     22  H   UNL     1      -1.018  -4.439  -1.970  0.00  0.00    +0.144 HD
ATOM     23  H   UNL     1      -0.640  -4.788  -3.570  0.00  0.00    +0.144 HD
ENDBRANCH   6  21
TORSDOF 4
