REMARK  Name = ZINC61595177
REMARK  8 active torsions:
REMARK  status: ('A' for Active; 'I' for Inactive)
REMARK    1  A    between atoms: C_1  and  C_2
REMARK    2  A    between atoms: C_2  and  C_3
REMARK    3  A    between atoms: C_2  and  N_4
REMARK    4  A    between atoms: C_10  and  S_11
REMARK    5  A    between atoms: S_11  and  C_12
REMARK    6  A    between atoms: C_12  and  C_14
REMARK    7  A    between atoms: C_12  and  C_16
REMARK    8  A    between atoms: C_14  and  N_15
REMARK                            x       y       z     vdW  Elec       q    Type
REMARK                         _______ _______ _______ _____ _____    ______ ____
ROOT
ATOM      1  C   UNL     1      -2.369  -2.995  -3.167  0.00  0.00    +0.067 C 
ENDROOT
BRANCH   1   2
ATOM      2  C   UNL     1      -1.793  -3.841  -4.273  0.00  0.00    -0.035 A 
ATOM      3  C   UNL     1      -1.270  -3.239  -5.402  0.00  0.00    +0.005 A 
ATOM      4  C   UNL     1      -0.741  -4.014  -6.417  0.00  0.00    +0.001 A 
ATOM      5  C   UNL     1      -0.735  -5.392  -6.303  0.00  0.00    +0.015 A 
ATOM      6  C   UNL     1      -1.257  -5.994  -5.173  0.00  0.00    +0.018 A 
ATOM      7  C   UNL     1      -1.782  -5.218  -4.155  0.00  0.00    +0.020 A 
ATOM      8 BR   UNL     1      -1.250  -7.879  -5.016  0.00  0.00    -0.050 Br
ENDBRANCH   1   2
BRANCH   1   9
ATOM      9  S   UNL     1      -1.087  -1.883  -2.525  0.00  0.00    -0.080 S 
BRANCH   9  16
ATOM     10  N   UNL     1      -1.206  -0.298  -0.222  0.00  0.00    -0.268 N 
ATOM     11  C   UNL     1      -2.093   0.050   0.731  0.00  0.00    +0.345 A 
ATOM     12  O   UNL     1      -1.886   0.800   1.668  0.00  0.00    -0.245 OA
ATOM     13  N   UNL     1      -3.253  -0.582   0.457  0.00  0.00    -0.226 N 
ATOM     14  H   UNL     1      -4.074  -0.522   0.970  0.00  0.00    +0.194 HD
ATOM     15  N   UNL     1      -3.054  -1.339  -0.706  0.00  0.00    -0.145 NA
ATOM     16  C   UNL     1      -1.828  -1.155  -1.102  0.00  0.00    +0.193 A 
BRANCH  10  18
ATOM     17  C   UNL     1       0.209   1.686  -0.430  0.00  0.00    +0.031 C 
ATOM     18  C   UNL     1       0.183   0.161  -0.309  0.00  0.00    +0.088 C 
ATOM     19  C   UNL     1       0.941  -0.265   0.950  0.00  0.00    +0.031 C 
ENDBRANCH  10  18
ENDBRANCH   9  16
ENDBRANCH   1   9
BRANCH   1  20
ATOM     20  C   UNL     1      -3.535  -2.168  -3.712  0.00  0.00    -0.067 C 
BRANCH  20  21
ATOM     21  N   UNL     1      -4.628  -3.065  -4.109  0.00  0.00    +0.379 N 
ATOM     22  H   UNL     1      -4.880  -3.654  -3.329  0.00  0.00    -0.090 HD
ATOM     23  H   UNL     1      -5.428  -2.517  -4.388  0.00  0.00    -0.090 HD
ATOM     24  H   UNL     1      -4.328  -3.640  -4.882  0.00  0.00    -0.090 HD
ENDBRANCH  20  21
ENDBRANCH   1  20
TORSDOF 6
