REMARK  Name = ZINC25699966
REMARK  9 active torsions:
REMARK  status: ('A' for Active; 'I' for Inactive)
REMARK    1  A    between atoms: C_1  and  C_2
REMARK    2  A    between atoms: C_2  and  N_3
REMARK    3  A    between atoms: C_7  and  C_31
REMARK    4  A    between atoms: C_8  and  C_30
REMARK    5  A    between atoms: C_12  and  S_13
REMARK    6  A    between atoms: S_13  and  C_14
REMARK    7  A    between atoms: C_14  and  C_16
REMARK    8  A    between atoms: C_14  and  C_17
REMARK    9  A    between atoms: C_17  and  C_19
REMARK                            x       y       z     vdW  Elec       q    Type
REMARK                         _______ _______ _______ _____ _____    ______ ____
ROOT
ATOM      1  C   UNL     1      -3.337  -2.381   0.018  0.00  0.00    +0.122 C 
ATOM      2  C   UNL     1      -3.378  -1.596   1.331  0.00  0.00    +0.028 C 
ENDROOT
BRANCH   1   3
ATOM      3  C   UNL     1      -4.577  -3.229  -0.099  0.00  0.00    +0.176 C 
ATOM      4  O   UNL     1      -4.555  -4.388   0.258  0.00  0.00    -0.291 OA
BRANCH   3   5
ATOM      5  C   UNL     1      -5.811  -2.652  -0.647  0.00  0.00    +0.020 A 
ATOM      6  C   UNL     1      -5.838  -1.315  -1.060  0.00  0.00    +0.015 A 
ATOM      7  C   UNL     1      -6.996  -0.774  -1.575  0.00  0.00    +0.048 A 
ATOM      8  C   UNL     1      -8.139  -1.553  -1.685  0.00  0.00    +0.142 A 
ATOM      9  C   UNL     1      -8.120  -2.889  -1.275  0.00  0.00    +0.076 A 
ATOM     10  C   UNL     1      -6.963  -3.440  -0.763  0.00  0.00    +0.038 A 
ATOM     11  N   UNL     1      -9.287  -3.658  -1.393  0.00  0.00    -0.280 N 
ATOM     12  C   UNL     1     -10.290  -3.209  -2.179  0.00  0.00    +0.255 C 
ATOM     13  O   UNL     1     -11.319  -3.843  -2.274  0.00  0.00    -0.272 OA
ATOM     14  C   UNL     1     -10.124  -1.916  -2.936  0.00  0.00    +0.325 C 
ATOM     15  O   UNL     1      -9.284  -1.028  -2.194  0.00  0.00    -0.481 OA
ATOM     16  H   UNL     1      -9.374  -4.612  -0.852  0.00  0.00    +0.155 HD
ENDBRANCH   3   5
ENDBRANCH   1   3
BRANCH   1  17
ATOM     17  S   UNL     1      -1.873  -3.446  -0.001  0.00  0.00    -0.076 S 
BRANCH  17  27
ATOM     18  N   UNL     1       0.704  -2.611  -0.020  0.00  0.00    -0.288 N 
ATOM     19  C   UNL     1       1.700  -1.706  -0.025  0.00  0.00    +0.263 A 
ATOM     20  O   UNL     1       2.864  -2.069  -0.038  0.00  0.00    -0.267 OA
ATOM     21  C   UNL     1       1.375  -0.313  -0.013  0.00  0.00    +0.075 A 
ATOM     22  C   UNL     1       2.262   0.838  -0.015  0.00  0.00    -0.026 A 
ATOM     23  C   UNL     1       1.735   2.071  -0.003  0.00  0.00    -0.008 A 
ATOM     24  S   UNL     1      -0.022   1.770   0.012  0.00  0.00    -0.073 S 
ATOM     25  C   UNL     1       0.002  -0.004   0.002  0.00  0.00    +0.117 A 
ATOM     26  N   UNL     1      -0.932  -0.947   0.005  0.00  0.00    -0.216 NA
ATOM     27  C   UNL     1      -0.605  -2.224  -0.005  0.00  0.00    +0.173 A 
ATOM     28  C   UNL     1       2.456   3.394  -0.004  0.00  0.00    +0.052 C 
ATOM     29  C   UNL     1       3.757   0.648  -0.031  0.00  0.00    +0.045 C 
BRANCH  18  31
ATOM     30  C   UNL     1       1.131  -4.528  -1.478  0.00  0.00    +0.027 C 
ATOM     31  C   UNL     1       1.030  -4.039  -0.032  0.00  0.00    +0.124 C 
ENDBRANCH  18  31
ENDBRANCH  17  27
ENDBRANCH   1  17
TORSDOF 5
