REMARK  Name = ZINC67555608
REMARK  2 active torsions:
REMARK  status: ('A' for Active; 'I' for Inactive)
REMARK    1  A    between atoms: C_1  and  C_2
REMARK    2  A    between atoms: C_7  and  C_10
REMARK                            x       y       z     vdW  Elec       q    Type
REMARK                         _______ _______ _______ _____ _____    ______ ____
ROOT
ATOM      1  C   UNL     1      -0.021   1.522   0.001  0.00  0.00    +0.039 C 
ATOM      2  C   UNL     1      -0.000  -0.008  -0.002  0.00  0.00    +0.133 C 
ATOM      3  C   UNL     1      -1.438  -0.540   0.015  0.00  0.00    +0.140 C 
ATOM      4  N   UNL     1      -2.041  -0.205   1.315  0.00  0.00    -0.280 N 
ATOM      5  C   UNL     1      -1.294  -0.553   2.534  0.00  0.00    +0.145 C 
ATOM      6  C   UNL     1       0.137  -0.021   2.394  0.00  0.00    +0.166 C 
ATOM      7  O   UNL     1       0.691  -0.479   1.157  0.00  0.00    -0.366 OA
ATOM      8  C   UNL     1      -3.241   0.404   1.387  0.00  0.00    +0.308 C 
ATOM      9  O   UNL     1      -3.799   0.769   0.371  0.00  0.00    -0.252 OA
ATOM     10  N   UNL     1      -3.823   0.607   2.586  0.00  0.00    -0.247 N 
ATOM     11  C   UNL     1      -5.106   1.139   2.655  0.00  0.00    +0.189 A 
ATOM     12  N   UNL     1      -5.910   1.501   1.674  0.00  0.00    -0.126 NA
ATOM     13  N   UNL     1      -7.061   1.974   1.894  0.00  0.00    -0.148 NA
ATOM     14  C   UNL     1      -7.470   2.110   3.139  0.00  0.00    +0.183 A 
ATOM     15  S   UNL     1      -6.042   1.485   4.013  0.00  0.00    -0.039 S 
ATOM     16  H   UNL     1      -3.347   0.381   3.400  0.00  0.00    +0.158 HD
ENDROOT
BRANCH   6  17
ATOM     17  C   UNL     1       0.976  -0.525   3.540  0.00  0.00    -0.017 A 
ATOM     18  C   UNL     1       1.578  -1.767   3.462  0.00  0.00    +0.006 A 
ATOM     19  C   UNL     1       2.348  -2.229   4.513  0.00  0.00    +0.000 A 
ATOM     20  C   UNL     1       2.516  -1.449   5.641  0.00  0.00    +0.000 A 
ATOM     21  C   UNL     1       1.915  -0.207   5.719  0.00  0.00    +0.000 A 
ATOM     22  C   UNL     1       1.148   0.257   4.667  0.00  0.00    +0.006 A 
ENDBRANCH   6  17
TORSDOF 1
