REMARK  Name = ZINC02550888
REMARK  4 active torsions:
REMARK  status: ('A' for Active; 'I' for Inactive)
REMARK    1  A    between atoms: C_4  and  N_7
REMARK    2  A    between atoms: C_11  and  N_12
REMARK    3  A    between atoms: N_12  and  C_13
REMARK    4  A    between atoms: N_23  and  C_26
REMARK                            x       y       z     vdW  Elec       q    Type
REMARK                         _______ _______ _______ _____ _____    ______ ____
ROOT
ATOM      1  N   UNL     1       3.762   2.499  -1.542  0.00  0.00    -0.189 N 
ATOM      2  C   UNL     1       4.825   1.680  -1.400  0.00  0.00    +0.265 C 
ATOM      3  O   UNL     1       4.742   0.496  -1.668  0.00  0.00    -0.269 OA
ATOM      4  C   UNL     1       6.090   2.259  -0.912  0.00  0.00    +0.114 C 
ATOM      5  C   UNL     1       7.221   1.481  -0.742  0.00  0.00    +0.090 C 
ATOM      6  C   UNL     1       6.096   3.702  -0.614  0.00  0.00    +0.265 C 
ATOM      7  O   UNL     1       7.103   4.251  -0.207  0.00  0.00    -0.269 OA
ATOM      8  N   UNL     1       4.956   4.397  -0.803  0.00  0.00    -0.189 N 
ATOM      9  C   UNL     1       3.842   3.806  -1.256  0.00  0.00    +0.327 C 
ATOM     10  O   UNL     1       2.849   4.490  -1.410  0.00  0.00    -0.251 OA
ENDROOT
BRANCH   1  14
ATOM     11  C   UNL     1       0.154   0.931  -2.918  0.00  0.00    +0.000 A 
ATOM     12  C   UNL     1       1.252   0.975  -3.757  0.00  0.00    +0.002 A 
ATOM     13  C   UNL     1       2.449   1.494  -3.304  0.00  0.00    +0.024 A 
ATOM     14  C   UNL     1       2.549   1.971  -2.004  0.00  0.00    +0.046 A 
ATOM     15  C   UNL     1       1.445   1.926  -1.164  0.00  0.00    +0.024 A 
ATOM     16  C   UNL     1       0.251   1.406  -1.623  0.00  0.00    +0.002 A 
ENDBRANCH   1  14
BRANCH   8  17
ATOM     17  C   UNL     1       4.938   5.771  -0.525  0.00  0.00    +0.046 A 
ATOM     18  C   UNL     1       4.620   6.679  -1.527  0.00  0.00    +0.024 A 
ATOM     19  C   UNL     1       4.597   8.031  -1.249  0.00  0.00    +0.002 A 
ATOM     20  C   UNL     1       4.903   8.483   0.022  0.00  0.00    +0.000 A 
ATOM     21  C   UNL     1       5.225   7.581   1.020  0.00  0.00    +0.002 A 
ATOM     22  C   UNL     1       5.244   6.227   0.750  0.00  0.00    +0.024 A 
ENDBRANCH   8  17
BRANCH   5  23
ATOM     23  N   UNL     1       8.318   2.006  -0.157  0.00  0.00    -0.317 N 
ATOM     24  H   UNL     1       8.283   2.894   0.230  0.00  0.00    +0.152 HD
BRANCH  23  25
ATOM     25  C   UNL     1       9.505   1.268  -0.110  0.00  0.00    +0.068 A 
ATOM     26  C   UNL     1       9.467  -0.097   0.150  0.00  0.00    +0.063 A 
ATOM     27  C   UNL     1      10.642  -0.824   0.191  0.00  0.00    +0.022 A 
ATOM     28  C   UNL     1      11.855  -0.193  -0.016  0.00  0.00    +0.003 A 
ATOM     29  C   UNL     1      11.897   1.166  -0.269  0.00  0.00    +0.022 A 
ATOM     30  C   UNL     1      10.726   1.899  -0.317  0.00  0.00    +0.063 A 
ATOM     31 CL   UNL     1      10.780   3.604  -0.634  0.00  0.00    -0.082 Cl
ATOM     32 CL   UNL     1       7.946  -0.889   0.417  0.00  0.00    -0.082 Cl
ENDBRANCH  23  25
ENDBRANCH   5  23
TORSDOF 4
