REMARK  Name = ZINC08791624
REMARK  6 active torsions:
REMARK  status: ('A' for Active; 'I' for Inactive)
REMARK    1  A    between atoms: C_1  and  O_2
REMARK    2  A    between atoms: O_2  and  C_3
REMARK    3  A    between atoms: C_3  and  C_4
REMARK    4  A    between atoms: C_4  and  N_5
REMARK    5  A    between atoms: C_10  and  C_27
REMARK    6  A    between atoms: C_27  and  C_28
REMARK                            x       y       z     vdW  Elec       q    Type
REMARK                         _______ _______ _______ _____ _____    ______ ____
ROOT
ATOM      1  N   UNL     1       1.743  -3.284   0.444  0.00  0.00    -0.240 N 
ATOM      2  C   UNL     1       0.595  -2.622   0.173  0.00  0.00    +0.224 C 
ATOM      3  O   UNL     1       0.086  -2.494  -0.919  0.00  0.00    -0.275 OA
ATOM      4  C   UNL     1       0.046  -2.060   1.464  0.00  0.00    +0.073 C 
ATOM      5  C   UNL     1       0.148  -0.520   1.435  0.00  0.00    -0.053 C 
ATOM      6  C   UNL     1       1.694  -1.200   3.049  0.00  0.00    +0.050 C 
ATOM      7  C   UNL     1       1.078  -2.508   2.537  0.00  0.00    +0.088 C 
ATOM      8  C   UNL     1       2.097  -3.286   1.734  0.00  0.00    +0.225 C 
ATOM      9  O   UNL     1       3.082  -3.827   2.190  0.00  0.00    -0.275 OA
ATOM     10  C   UNL     1       1.055  -0.758   4.335  0.00  0.00    -0.026 A 
ATOM     11  C   UNL     1      -0.236  -0.439   4.691  0.00  0.00    +0.004 A 
ATOM     12  C   UNL     1      -0.523  -0.056   5.989  0.00  0.00    +0.002 A 
ATOM     13  C   UNL     1       0.491   0.006   6.928  0.00  0.00    +0.022 A 
ATOM     14  C   UNL     1       1.787  -0.312   6.576  0.00  0.00    +0.062 A 
ATOM     15  C   UNL     1       2.084  -0.698   5.270  0.00  0.00    +0.054 A 
ATOM     16  N   UNL     1       3.296  -1.061   4.678  0.00  0.00    -0.285 N 
ATOM     17  C   UNL     1       3.153  -1.370   3.374  0.00  0.00    +0.211 C 
ATOM     18  O   UNL     1       4.029  -1.717   2.611  0.00  0.00    -0.277 OA
ATOM     19 CL   UNL     1       3.052  -0.230   7.762  0.00  0.00    -0.082 Cl
ATOM     20  H   UNL     1       4.143  -1.088   5.150  0.00  0.00    +0.155 HD
ATOM     21  N   UNL     1       1.482  -0.245   1.970  0.00  0.00    +0.394 N 
ATOM     22  H   UNL     1       1.530   0.715   2.330  0.00  0.00    -0.083 HD
ATOM     23  H   UNL     1       2.192  -0.371   1.238  0.00  0.00    -0.083 HD
ENDROOT
BRANCH   1  24
ATOM     24  C   UNL     1       2.532  -3.951  -0.595  0.00  0.00    +0.144 C 
BRANCH  24  25
ATOM     25  C   UNL     1       2.052  -5.395  -0.751  0.00  0.00    +0.179 C 
BRANCH  25  27
ATOM     26  C   UNL     1       0.160  -6.707  -1.418  0.00  0.00    +0.194 C 
ATOM     27  O   UNL     1       0.707  -5.400  -1.236  0.00  0.00    -0.381 OA
ENDBRANCH  25  27
ENDBRANCH  24  25
ENDBRANCH   1  24
BRANCH   5  28
ATOM     28  C   UNL     1       0.002  -0.004   0.002  0.00  0.00    +0.022 C 
BRANCH  28  29
ATOM     29  C   UNL     1      -0.018   1.503   0.010  0.00  0.00    -0.024 A 
ATOM     30  C   UNL     1      -1.108   2.287   0.019  0.00  0.00    +0.087 A 
ATOM     31  N   UNL     1      -0.736   3.603   0.029  0.00  0.00    -0.360 N 
ATOM     32  H   UNL     1      -1.348   4.355   0.038  0.00  0.00    +0.165 HD
ATOM     33  C   UNL     1       0.637   3.701   0.016  0.00  0.00    +0.047 A 
ATOM     34  C   UNL     1       1.147   2.390   0.004  0.00  0.00    +0.003 A 
ATOM     35  C   UNL     1       2.527   2.179  -0.011  0.00  0.00    +0.010 A 
ATOM     36  C   UNL     1       3.377   3.250  -0.013  0.00  0.00    +0.001 A 
ATOM     37  C   UNL     1       2.879   4.545  -0.001  0.00  0.00    +0.002 A 
ATOM     38  C   UNL     1       1.521   4.776   0.013  0.00  0.00    +0.026 A 
ENDBRANCH  28  29
ENDBRANCH   5  28
TORSDOF 5
