REMARK  Name = ZINC11975002
REMARK  13 active torsions:
REMARK  status: ('A' for Active; 'I' for Inactive)
REMARK    1  A    between atoms: C_1  and  N_2
REMARK    2  A    between atoms: N_2  and  C_3
REMARK    3  A    between atoms: N_2  and  C_4
REMARK    4  A    between atoms: C_5  and  C_17
REMARK    5  A    between atoms: C_8  and  O_15
REMARK    6  A    between atoms: C_11  and  O_13
REMARK    7  A    between atoms: O_13  and  C_14
REMARK    8  A    between atoms: O_15  and  C_16
REMARK    9  A    between atoms: C_17  and  N_18
REMARK   10  A    between atoms: N_18  and  C_19
REMARK   11  A    between atoms: C_19  and  C_20
REMARK   12  A    between atoms: C_25  and  C_27
REMARK   13  A    between atoms: C_27  and  C_30
REMARK                            x       y       z     vdW  Elec       q    Type
REMARK                         _______ _______ _______ _____ _____    ______ ____
ROOT
ATOM      1  C   UNL     1     -12.036  10.458   5.083  0.00  0.00    +0.146 C 
ENDROOT
BRANCH   1   3
ATOM      2  C   UNL     1     -11.371   8.540   6.577  0.00  0.00    +0.104 A 
ATOM      3  C   UNL     1     -11.859   9.848   6.449  0.00  0.00    +0.009 A 
ATOM      4  C   UNL     1     -12.178  10.564   7.564  0.00  0.00    +0.022 A 
ATOM      5  C   UNL     1     -11.993   9.959   8.822  0.00  0.00    +0.044 A 
ATOM      6  C   UNL     1     -12.299  10.645  10.014  0.00  0.00    +0.129 A 
ATOM      7  C   UNL     1     -12.105  10.020  11.225  0.00  0.00    +0.050 A 
ATOM      8  C   UNL     1     -11.611   8.720  11.283  0.00  0.00    +0.051 A 
ATOM      9  C   UNL     1     -11.306   8.031  10.144  0.00  0.00    +0.144 A 
ATOM     10  C   UNL     1     -11.491   8.637   8.885  0.00  0.00    +0.093 A 
ATOM     11  N   UNL     1     -11.173   7.908   7.760  0.00  0.00    -0.340 N 
ATOM     12  H   UNL     1     -10.809   6.950   7.815  0.00  0.00    +0.167 HD
BRANCH   2  14
ATOM     13  C   UNL     1     -10.501   6.503   5.776  0.00  0.00    +0.130 C 
ATOM     14  N   UNL     1     -11.055   7.820   5.433  0.00  0.00    -0.322 N 
ATOM     15  C   UNL     1     -12.226   7.686   4.555  0.00  0.00    +0.130 C 
ENDBRANCH   2  14
BRANCH   9  16
ATOM     16  O   UNL     1     -10.825   6.762  10.224  0.00  0.00    -0.493 OA
ATOM     17  C   UNL     1     -10.663   6.211  11.533  0.00  0.00    +0.277 C 
ENDBRANCH   9  16
BRANCH   6  18
ATOM     18  O   UNL     1     -12.782  11.914   9.968  0.00  0.00    -0.494 OA
ATOM     19  C   UNL     1     -13.068  12.545  11.218  0.00  0.00    +0.277 C 
ENDBRANCH   6  18
ENDBRANCH   1   3
BRANCH   1  20
ATOM     20  N   UNL     1     -10.815  11.175   4.706  0.00  0.00    -0.289 N 
ATOM     21  C   UNL     1      -9.838  10.534   4.035  0.00  0.00    +0.227 C 
ATOM     22  O   UNL     1     -10.010   9.397   3.651  0.00  0.00    -0.275 OA
BRANCH  21  23
ATOM     23  C   UNL     1      -8.530  11.231   3.762  0.00  0.00    +0.072 C 
ATOM     24  C   UNL     1      -7.399  10.399   3.153  0.00  0.00    +0.022 C 
ATOM     25  C   UNL     1      -7.325  10.834   4.618  0.00  0.00    +0.022 C 
BRANCH  23  26
ATOM     26  C   UNL     1      -8.638  12.673   3.339  0.00  0.00    -0.032 A 
ATOM     27  C   UNL     1      -8.176  13.675   4.173  0.00  0.00    +0.006 A 
ATOM     28  C   UNL     1      -8.269  14.997   3.783  0.00  0.00    +0.020 A 
ATOM     29  C   UNL     1      -8.836  15.320   2.563  0.00  0.00    +0.041 A 
ATOM     30  C   UNL     1      -9.304  14.318   1.731  0.00  0.00    +0.020 A 
ATOM     31  C   UNL     1      -9.204  12.995   2.120  0.00  0.00    +0.006 A 
ATOM     32 CL   UNL     1      -8.960  16.981   2.075  0.00  0.00    -0.084 Cl
ENDBRANCH  23  26
ENDBRANCH  21  23
BRANCH  20  33
ATOM     33  C   UNL     1     -10.657  12.588   5.059  0.00  0.00    +0.182 C 
BRANCH  33  34
ATOM     34  C   UNL     1     -10.003  12.697   6.413  0.00  0.00    +0.122 A 
ATOM     35  C   UNL     1      -8.810  12.177   6.754  0.00  0.00    +0.046 A 
ATOM     36  C   UNL     1      -8.588  12.517   8.109  0.00  0.00    +0.041 A 
ATOM     37  C   UNL     1      -9.658  13.225   8.514  0.00  0.00    +0.195 A 
ATOM     38  O   UNL     1     -10.509  13.335   7.480  0.00  0.00    -0.466 OA
ENDBRANCH  33  34
ENDBRANCH  20  33
ENDBRANCH   1  20
TORSDOF 9
