REMARK  Name = ZINC06134969
REMARK  7 active torsions:
REMARK  status: ('A' for Active; 'I' for Inactive)
REMARK    1  A    between atoms: C_1  and  C_2
REMARK    2  A    between atoms: C_2  and  C_3
REMARK    3  A    between atoms: C_9  and  C_22
REMARK    4  A    between atoms: C_12  and  C_14
REMARK    5  A    between atoms: C_17  and  O_20
REMARK    6  A    between atoms: O_20  and  C_21
REMARK    7  A    between atoms: C_25  and  N_28
REMARK                            x       y       z     vdW  Elec       q    Type
REMARK                         _______ _______ _______ _____ _____    ______ ____
ROOT
ATOM      1  C   UNL     1      -5.019   3.733  -0.468  0.00  0.00    -0.047 A 
ATOM      2  C   UNL     1      -6.098   3.285   0.270  0.00  0.00    +0.005 A 
ATOM      3  C   UNL     1      -6.023   2.084   0.948  0.00  0.00    +0.024 A 
ATOM      4  C   UNL     1      -4.860   1.308   0.896  0.00  0.00    +0.042 A 
ATOM      5  C   UNL     1      -3.770   1.759   0.149  0.00  0.00    +0.024 A 
ATOM      6  C   UNL     1      -3.863   2.978  -0.532  0.00  0.00    +0.015 A 
ATOM      7  C   UNL     1      -2.503   1.004   0.020  0.00  0.00    +0.100 C 
ATOM      8  N   UNL     1      -2.454  -0.283  -0.086  0.00  0.00    -0.172 NA
ATOM      9  N   UNL     1      -3.620  -1.055   0.011  0.00  0.00    -0.263 N 
ATOM     10  C   UNL     1      -4.346  -0.980   1.187  0.00  0.00    +0.124 C 
ATOM     11  N   UNL     1      -4.862   0.137   1.599  0.00  0.00    -0.299 N 
ATOM     12  H   UNL     1      -3.965  -1.705  -0.808  0.00  0.00    +0.190 HD
ATOM     13  H   UNL     1      -5.326   0.095   2.596  0.00  0.00    +0.154 HD
ENDROOT
BRANCH  10  14
ATOM     14  C   UNL     1      -4.539  -2.200   1.991  0.00  0.00    +0.015 A 
ATOM     15  C   UNL     1      -5.263  -2.146   3.186  0.00  0.00    +0.015 A 
ATOM     16  C   UNL     1      -5.445  -3.289   3.932  0.00  0.00    +0.046 A 
ATOM     17  C   UNL     1      -4.900  -4.494   3.504  0.00  0.00    +0.120 A 
ATOM     18  C   UNL     1      -4.174  -4.552   2.320  0.00  0.00    +0.046 A 
ATOM     19  C   UNL     1      -3.992  -3.415   1.565  0.00  0.00    +0.015 A 
BRANCH  17  20
ATOM     20  O   UNL     1      -5.077  -5.618   4.244  0.00  0.00    -0.495 OA
ATOM     21  C   UNL     1      -5.834  -5.487   5.450  0.00  0.00    +0.277 C 
ENDBRANCH  17  20
ENDBRANCH  10  14
BRANCH   7  22
ATOM     22  C   UNL     1      -1.231   1.758   0.017  0.00  0.00    +0.003 A 
ATOM     23  C   UNL     1      -0.090   1.205  -0.568  0.00  0.00    +0.012 A 
ATOM     24  C   UNL     1       1.092   1.913  -0.573  0.00  0.00    +0.024 A 
ATOM     25  C   UNL     1       1.151   3.175   0.008  0.00  0.00    +0.030 A 
ATOM     26  C   UNL     1       0.018   3.726   0.596  0.00  0.00    +0.024 A 
ATOM     27  C   UNL     1      -1.167   3.024   0.605  0.00  0.00    +0.012 A 
BRANCH  25  28
ATOM     28  N   UNL     1       2.350   3.888   0.001  0.00  0.00    -0.326 N 
ATOM     29  C   UNL     1       3.429   3.112   0.629  0.00  0.00    +0.133 C 
ATOM     30  C   UNL     1       4.736   3.906   0.546  0.00  0.00    +0.178 C 
ATOM     31  O   UNL     1       4.553   5.181   1.169  0.00  0.00    -0.377 OA
ATOM     32  C   UNL     1       3.510   5.963   0.582  0.00  0.00    +0.178 C 
ATOM     33  C   UNL     1       2.191   5.191   0.665  0.00  0.00    +0.133 C 
ENDBRANCH  25  28
ENDBRANCH   7  22
BRANCH   1  35
ATOM     34  C   UNL     1      -4.618   6.174  -0.289  0.00  0.00    +0.009 C 
ATOM     35  C   UNL     1      -5.102   5.046  -1.203  0.00  0.00    +0.032 C 
ENDBRANCH   1  35
TORSDOF 5
