REMARK  Name = ZINC02246019
REMARK  10 active torsions:
REMARK  status: ('A' for Active; 'I' for Inactive)
REMARK    1  A    between atoms: C_1  and  C_2
REMARK    2  A    between atoms: C_7  and  C_8
REMARK    3  A    between atoms: N_9  and  N_10
REMARK    4  A    between atoms: C_11  and  N_36
REMARK    5  A    between atoms: C_12  and  C_23
REMARK    6  A    between atoms: N_25  and  C_26
REMARK    7  A    between atoms: C_26  and  C_27
REMARK    8  A    between atoms: C_27  and  C_28
REMARK    9  A    between atoms: C_31  and  O_34
REMARK   10  A    between atoms: O_34  and  C_35
REMARK                            x       y       z     vdW  Elec       q    Type
REMARK                         _______ _______ _______ _____ _____    ______ ____
ROOT
ATOM      1  N   UNL     1       1.091  -8.982  -2.777  0.00  0.00    -0.198 N 
ATOM      2  C   UNL     1       0.939  -7.630  -2.679  0.00  0.00    +0.134 A 
ATOM      3  C   UNL     1       2.175  -6.996  -2.758  0.00  0.00    +0.105 A 
ATOM      4  C   UNL     1       3.182  -8.059  -2.911  0.00  0.00    +0.124 A 
ATOM      5  C   UNL     1       2.425  -9.314  -2.917  0.00  0.00    +0.183 A 
ATOM      6  N   UNL     1       3.067 -10.456  -3.042  0.00  0.00    -0.224 NA
ATOM      7  C   UNL     1       4.401 -10.461  -3.163  0.00  0.00    +0.092 A 
ATOM      8  C   UNL     1       5.095 -11.678  -3.297  0.00  0.00    +0.030 A 
ATOM      9  C   UNL     1       6.450 -11.674  -3.419  0.00  0.00    +0.002 A 
ATOM     10  C   UNL     1       7.168 -10.479  -3.413  0.00  0.00    +0.002 A 
ATOM     11  C   UNL     1       6.531  -9.284  -3.285  0.00  0.00    +0.030 A 
ATOM     12  C   UNL     1       5.130  -9.246  -3.156  0.00  0.00    +0.090 A 
ATOM     13  N   UNL     1       4.494  -8.076  -3.030  0.00  0.00    -0.241 NA
ENDROOT
BRANCH   3  14
ATOM     14  C   UNL     1       2.424  -5.558  -2.695  0.00  0.00    +0.250 C 
ATOM     15  O   UNL     1       2.434  -4.896  -3.718  0.00  0.00    -0.270 OA
ATOM     16  N   UNL     1       2.643  -4.963  -1.506  0.00  0.00    -0.311 N 
ATOM     17  H   UNL     1       2.635  -5.489  -0.692  0.00  0.00    +0.149 HD
BRANCH  16  18
ATOM     18  C   UNL     1       2.893  -3.521  -1.443  0.00  0.00    +0.109 C 
BRANCH  18  19
ATOM     19  C   UNL     1       3.109  -3.103   0.013  0.00  0.00    +0.054 C 
BRANCH  19  20
ATOM     20  C   UNL     1       3.366  -1.620   0.077  0.00  0.00    -0.046 A 
ATOM     21  C   UNL     1       2.308  -0.741   0.224  0.00  0.00    +0.007 A 
ATOM     22  C   UNL     1       2.542   0.619   0.284  0.00  0.00    +0.046 A 
ATOM     23  C   UNL     1       3.839   1.103   0.196  0.00  0.00    +0.120 A 
ATOM     24  C   UNL     1       4.899   0.220   0.050  0.00  0.00    +0.046 A 
ATOM     25  C   UNL     1       4.660  -1.139  -0.010  0.00  0.00    +0.007 A 
BRANCH  23  26
ATOM     26  O   UNL     1       4.071   2.441   0.255  0.00  0.00    -0.495 OA
ATOM     27  C   UNL     1       5.431   2.869   0.158  0.00  0.00    +0.277 C 
ENDBRANCH  23  26
ENDBRANCH  19  20
ENDBRANCH  18  19
ENDBRANCH  16  18
ENDBRANCH   3  14
BRANCH   2  28
ATOM     28  N   UNL     1      -0.262  -6.987  -2.526  0.00  0.00    -0.342 N 
ATOM     29  H   UNL     1      -0.290  -6.019  -2.465  0.00  0.00    +0.144 HD
ATOM     30  H   UNL     1      -1.084  -7.500  -2.478  0.00  0.00    +0.144 HD
ENDBRANCH   2  28
BRANCH   1  32
ATOM     31  C   UNL     1      -0.347 -10.400  -1.601  0.00  0.00    +0.141 C 
ATOM     32  N   UNL     1       0.040  -9.906  -2.737  0.00  0.00    -0.171 NA
BRANCH  31  39
ATOM     33  C   UNL     1      -1.794 -11.024  -4.027  0.00  0.00    +0.044 C 
ATOM     34  C   UNL     1      -2.160 -11.684  -2.723  0.00  0.00    -0.042 A 
ATOM     35  C   UNL     1      -3.195 -12.596  -2.676  0.00  0.00    +0.004 A 
ATOM     36  C   UNL     1      -3.533 -13.203  -1.480  0.00  0.00    +0.000 A 
ATOM     37  C   UNL     1      -2.837 -12.900  -0.322  0.00  0.00    +0.001 A 
ATOM     38  C   UNL     1      -1.797 -11.995  -0.355  0.00  0.00    +0.010 A 
ATOM     39  C   UNL     1      -1.454 -11.374  -1.559  0.00  0.00    -0.002 A 
ENDBRANCH  31  39
ENDBRANCH   1  32
TORSDOF 8
