REMARK  Name = ZINC55349631
REMARK  4 active torsions:
REMARK  status: ('A' for Active; 'I' for Inactive)
REMARK    1  A    between atoms: C_4  and  C_7
REMARK    2  A    between atoms: C_8  and  C_9
REMARK    3  A    between atoms: N_14  and  C_16
REMARK    4  A    between atoms: C_16  and  N_17
REMARK                            x       y       z     vdW  Elec       q    Type
REMARK                         _______ _______ _______ _____ _____    ______ ____
ROOT
ATOM      1  C   UNL     1       5.024  -2.739  -0.018  0.00  0.00    +0.153 A 
ATOM      2  N   UNL     1       5.175  -4.114  -0.052  0.00  0.00    -0.318 N 
ATOM      3  H   UNL     1       4.456  -4.765  -0.053  0.00  0.00    +0.169 HD
ATOM      4  C   UNL     1       6.494  -4.393  -0.083  0.00  0.00    +0.177 A 
ATOM      5  S   UNL     1       7.194  -5.954  -0.131  0.00  0.00    -0.011 S 
ATOM      6  N   UNL     1       7.162  -3.221  -0.069  0.00  0.00    -0.226 N 
ATOM      7  N   UNL     1       6.212  -2.192  -0.034  0.00  0.00    -0.150 NA
ENDROOT
BRANCH   1   9
ATOM      8  C   UNL     1       3.735  -0.671   0.046  0.00  0.00    +0.011 C 
ATOM      9  C   UNL     1       3.747  -2.017   0.021  0.00  0.00    +0.048 C 
BRANCH   8  13
ATOM     10  C   UNL     1       0.043   1.416   0.160  0.00  0.00    +0.000 A 
ATOM     11  C   UNL     1       1.233   2.123   0.148  0.00  0.00    +0.001 A 
ATOM     12  C   UNL     1       2.437   1.451   0.111  0.00  0.00    +0.008 A 
ATOM     13  C   UNL     1       2.453   0.053   0.086  0.00  0.00    -0.025 A 
ATOM     14  C   UNL     1       1.247  -0.653   0.098  0.00  0.00    +0.008 A 
ATOM     15  C   UNL     1       0.051   0.033   0.135  0.00  0.00    +0.001 A 
ENDBRANCH   8  13
ENDBRANCH   1   9
BRANCH   6  16
ATOM     16  C   UNL     1       8.617  -3.055  -0.092  0.00  0.00    +0.233 C 
BRANCH  16  17
ATOM     17  N   UNL     1       9.038  -2.614  -1.429  0.00  0.00    -0.281 NA
ATOM     18  C   UNL     1       8.837  -1.168  -1.594  0.00  0.00    +0.105 C 
ATOM     19  C   UNL     1       9.114  -0.780  -3.050  0.00  0.00    +0.122 C 
ATOM     20  N   UNL     1      10.453  -1.267  -3.416  0.00  0.00    -0.314 N 
ATOM     21  C   UNL     1      10.776  -2.677  -3.153  0.00  0.00    +0.122 C 
ATOM     22  C   UNL     1      10.433  -2.991  -1.693  0.00  0.00    +0.105 C 
ATOM     23  C   UNL     1      11.388  -0.417  -3.995  0.00  0.00    +0.099 A 
ATOM     24  C   UNL     1      12.684  -0.869  -4.221  0.00  0.00    +0.042 A 
ATOM     25  C   UNL     1      13.604  -0.012  -4.799  0.00  0.00    +0.005 A 
ATOM     26  C   UNL     1      13.195   1.273  -5.132  0.00  0.00    +0.018 A 
ATOM     27  C   UNL     1      11.893   1.655  -4.879  0.00  0.00    +0.084 A 
ATOM     28  N   UNL     1      11.035   0.814  -4.332  0.00  0.00    -0.350 N 
ATOM     29  H   UNL     1      10.125   1.107  -4.169  0.00  0.00    +0.166 HD
ENDBRANCH  16  17
ENDBRANCH   6  16
TORSDOF 4
