REMARK  Name = ZINC20161019
REMARK  6 active torsions:
REMARK  status: ('A' for Active; 'I' for Inactive)
REMARK    1  A    between atoms: C_2  and  C_3
REMARK    2  A    between atoms: C_3  and  N_4
REMARK    3  A    between atoms: C_21  and  C_29
REMARK    4  A    between atoms: C_22  and  N_28
REMARK    5  A    between atoms: C_23  and  C_24
REMARK    6  A    between atoms: C_23  and  C_26
REMARK                            x       y       z     vdW  Elec       q    Type
REMARK                         _______ _______ _______ _____ _____    ______ ____
ROOT
ATOM      1  N   UNL     1       1.367  -1.676   1.111  0.00  0.00    -0.267 N 
ATOM      2  C   UNL     1       1.854  -1.351   2.366  0.00  0.00    +0.041 A 
ATOM      3  C   UNL     1       2.374  -0.142   2.829  0.00  0.00    +0.024 A 
ATOM      4  C   UNL     1       2.793  -0.096   4.149  0.00  0.00    +0.002 A 
ATOM      5  C   UNL     1       2.706  -1.193   4.982  0.00  0.00    +0.000 A 
ATOM      6  C   UNL     1       2.189  -2.404   4.533  0.00  0.00    +0.006 A 
ATOM      7  C   UNL     1       1.770  -2.457   3.221  0.00  0.00    -0.008 A 
ATOM      8  C   UNL     1       1.175  -3.567   2.414  0.00  0.00    +0.117 C 
ATOM      9  C   UNL     1       0.940  -2.954   1.050  0.00  0.00    +0.234 C 
ATOM     10  O   UNL     1       0.460  -3.508   0.083  0.00  0.00    -0.274 OA
ATOM     11  C   UNL     1      -0.149  -4.032   3.010  0.00  0.00    +0.042 C 
ATOM     12  C   UNL     1      -1.213  -2.961   2.943  0.00  0.00    +0.010 C 
ATOM     13  C   UNL     1      -1.375  -2.234   4.277  0.00  0.00    +0.005 C 
ATOM     14  C   UNL     1      -1.746  -3.268   5.349  0.00  0.00    +0.027 C 
ATOM     15  C   UNL     1      -0.612  -4.256   5.446  0.00  0.00    -0.022 C 
ATOM     16  C   UNL     1       0.108  -4.556   4.392  0.00  0.00    -0.028 C 
ATOM     17  C   UNL     1       1.288  -5.443   4.568  0.00  0.00    +0.074 C 
ATOM     18  C   UNL     1       2.227  -5.509   3.592  0.00  0.00    +0.055 C 
ATOM     19  C   UNL     1       2.138  -4.745   2.304  0.00  0.00    +0.199 C 
ENDROOT
BRANCH  18  20
ATOM     20  N   UNL     1       3.314  -6.313   3.792  0.00  0.00    -0.358 N 
ATOM     21  H   UNL     1       3.397  -6.819   4.616  0.00  0.00    +0.142 HD
ATOM     22  H   UNL     1       4.001  -6.379   3.111  0.00  0.00    +0.142 HD
ENDBRANCH  18  20
BRANCH  19  23
ATOM     23  C   UNL     1       1.672  -5.649   1.241  0.00  0.00    +0.092 C 
ATOM     24  N   UNL     1       1.312  -6.347   0.420  0.00  0.00    -0.194 NA
ENDBRANCH  19  23
BRANCH  19  25
ATOM     25  C   UNL     1       3.475  -4.240   1.952  0.00  0.00    +0.092 C 
ATOM     26  N   UNL     1       4.507  -3.851   1.679  0.00  0.00    -0.194 NA
ENDBRANCH  19  25
BRANCH  17  27
ATOM     27  C   UNL     1       1.432  -6.224   5.760  0.00  0.00    +0.101 C 
ATOM     28  N   UNL     1       1.546  -6.843   6.705  0.00  0.00    -0.191 NA
ENDBRANCH  17  27
BRANCH   1  29
ATOM     29  C   UNL     1       1.317  -0.740  -0.015  0.00  0.00    +0.140 C 
BRANCH  29  31
ATOM     30  C   UNL     1      -0.016   1.306   0.009  0.00  0.00    +0.005 C 
ATOM     31  C   UNL     1       0.002  -0.004   0.002  0.00  0.00    -0.015 C 
ENDBRANCH  29  31
ENDBRANCH   1  29
TORSDOF 6
