REMARK  Name = ZINC13410608
REMARK  2 active torsions:
REMARK  status: ('A' for Active; 'I' for Inactive)
REMARK    1  A    between atoms: C_4  and  N_7
REMARK    2  A    between atoms: N_12  and  C_15
REMARK                            x       y       z     vdW  Elec       q    Type
REMARK                         _______ _______ _______ _____ _____    ______ ____
ROOT
ATOM      1  N   UNL     1       2.438   5.232   2.517  0.00  0.00    -0.212 N 
ATOM      2  C   UNL     1       1.746   4.401   3.317  0.00  0.00    +0.350 A 
ATOM      3  O   UNL     1       1.770   4.399   4.532  0.00  0.00    -0.245 OA
ATOM      4  N   UNL     1       1.021   3.570   2.541  0.00  0.00    -0.244 N 
ATOM      5  H   UNL     1       0.427   2.866   2.847  0.00  0.00    +0.192 HD
ATOM      6  N   UNL     1       1.287   3.916   1.207  0.00  0.00    -0.226 N 
ATOM      7  C   UNL     1       2.167   4.938   1.232  0.00  0.00    +0.353 A 
ATOM      8  O   UNL     1       2.633   5.499   0.260  0.00  0.00    -0.244 OA
ENDROOT
BRANCH   6   9
ATOM      9  C   UNL     1       0.721   3.282   0.014  0.00  0.00    +0.137 C 
ATOM     10  C   UNL     1       1.054   1.815   0.002  0.00  0.00    -0.004 C 
ATOM     11  C   UNL     1      -0.013   1.076   0.008  0.00  0.00    -0.025 C 
ATOM     12  C   UNL     1      -1.272   1.899   0.018  0.00  0.00    +0.024 C 
ATOM     13  C   UNL     1      -0.812   3.383   0.041  0.00  0.00    +0.032 C 
ATOM     14  C   UNL     1      -1.292   3.933  -1.339  0.00  0.00    +0.018 C 
ATOM     15  C   UNL     1      -1.059   2.670  -2.248  0.00  0.00    +0.016 C 
ATOM     16  C   UNL     1      -1.977   1.751  -1.362  0.00  0.00    +0.019 C 
ATOM     17  C   UNL     1      -3.216   2.647  -1.252  0.00  0.00    -0.027 C 
ATOM     18  C   UNL     1      -2.822   3.905  -1.240  0.00  0.00    -0.027 C 
ENDBRANCH   6   9
BRANCH   1  22
ATOM     19  C   UNL     1       5.028   8.232   3.812  0.00  0.00    +0.000 A 
ATOM     20  C   UNL     1       4.372   7.440   4.736  0.00  0.00    +0.002 A 
ATOM     21  C   UNL     1       3.513   6.446   4.310  0.00  0.00    +0.026 A 
ATOM     22  C   UNL     1       3.309   6.241   2.952  0.00  0.00    +0.056 A 
ATOM     23  C   UNL     1       3.973   7.034   2.026  0.00  0.00    +0.026 A 
ATOM     24  C   UNL     1       4.827   8.031   2.458  0.00  0.00    +0.002 A 
ENDBRANCH   1  22
TORSDOF 2
