REMARK  Name = ZINC06200017
REMARK  6 active torsions:
REMARK  status: ('A' for Active; 'I' for Inactive)
REMARK    1  A    between atoms: C_1  and  C_2
REMARK    2  A    between atoms: C_4  and  O_25
REMARK    3  A    between atoms: C_8  and  C_11
REMARK    4  A    between atoms: C_17  and  O_21
REMARK    5  A    between atoms: C_19  and  O_20
REMARK    6  A    between atoms: O_21  and  C_22
REMARK                            x       y       z     vdW  Elec       q    Type
REMARK                         _______ _______ _______ _____ _____    ______ ____
ROOT
ATOM      1  C   UNL     1      -2.671   9.507   1.248  0.00  0.00    +0.041 C 
ATOM      2  C   UNL     1      -2.679   8.107   0.630  0.00  0.00    +0.149 C 
ATOM      3  C   UNL     1      -1.282   7.494   0.721  0.00  0.00    +0.177 C 
ATOM      4  C   UNL     1      -1.339   6.026   0.379  0.00  0.00    +0.040 C 
ATOM      5  C   UNL     1      -2.493   5.347   0.383  0.00  0.00    +0.038 C 
ATOM      6  C   UNL     1      -3.806   6.010   0.713  0.00  0.00    +0.150 C 
ATOM      7  O   UNL     1      -3.586   7.265   1.353  0.00  0.00    -0.366 OA
ATOM      8  C   UNL     1      -4.597   6.234  -0.577  0.00  0.00    +0.043 C 
ATOM      9  C   UNL     1      -2.506   3.902   0.048  0.00  0.00    +0.196 C 
ATOM     10  O   UNL     1      -3.555   3.344  -0.211  0.00  0.00    -0.287 OA
ATOM     11  C   UNL     1      -1.244   3.149   0.031  0.00  0.00    +0.074 A 
ATOM     12  C   UNL     1      -0.028   3.862   0.024  0.00  0.00    +0.040 A 
ATOM     13  C   UNL     1       1.175   3.177   0.008  0.00  0.00    +0.058 A 
ATOM     14  C   UNL     1       1.178   1.780   0.000  0.00  0.00    +0.124 A 
ATOM     15  C   UNL     1      -0.013   1.076   0.008  0.00  0.00    +0.091 A 
ATOM     16  C   UNL     1      -1.230   1.752   0.017  0.00  0.00    +0.132 A 
ATOM     17  C   UNL     1      -0.073   5.340   0.035  0.00  0.00    +0.193 C 
ATOM     18  O   UNL     1       0.920   5.985  -0.236  0.00  0.00    -0.287 OA
ENDROOT
BRANCH  16  19
ATOM     19  O   UNL     1      -2.395   1.058   0.018  0.00  0.00    -0.506 OA
ATOM     20  H   UNL     1      -2.729   0.852   0.902  0.00  0.00    +0.292 HD
ENDBRANCH  16  19
BRANCH  14  21
ATOM     21  O   UNL     1       2.358   1.109  -0.014  0.00  0.00    -0.495 OA
ATOM     22  C   UNL     1       2.292  -0.319  -0.021  0.00  0.00    +0.277 C 
ENDBRANCH  14  21
BRANCH   3  23
ATOM     23  O   UNL     1      -0.780   7.650   2.050  0.00  0.00    -0.384 OA
ATOM     24  H   UNL     1       0.105   7.283   2.182  0.00  0.00    +0.210 HD
ENDBRANCH   3  23
TORSDOF 3
