REMARK  Name = ZINC17196515
REMARK  6 active torsions:
REMARK  status: ('A' for Active; 'I' for Inactive)
REMARK    1  A    between atoms: C_1  and  C_2
REMARK    2  A    between atoms: C_4  and  C_30
REMARK    3  A    between atoms: C_6  and  N_8
REMARK    4  A    between atoms: N_8  and  C_9
REMARK    5  A    between atoms: N_10  and  S_11
REMARK    6  A    between atoms: S_11  and  C_14
REMARK                            x       y       z     vdW  Elec       q    Type
REMARK                         _______ _______ _______ _____ _____    ______ ____
ROOT
ATOM      1  C   UNL     1       0.227  -1.980   3.663  0.00  0.00    +0.234 C 
ATOM      2  N   UNL     1       0.626  -2.709   4.666  0.00  0.00    -0.095 NA
ATOM      3  N   UNL     1      -0.029  -0.639   3.845  0.00  0.00    -0.270 N 
ATOM      4  C   UNL     1       1.038   0.355   3.671  0.00  0.00    +0.114 C 
ATOM      5  C   UNL     1       0.953   1.344   4.840  0.00  0.00    +0.024 C 
ATOM      6  C   UNL     1      -0.387   2.077   4.770  0.00  0.00    +0.038 C 
ATOM      7  C   UNL     1      -1.521   1.094   4.650  0.00  0.00    -0.026 A 
ATOM      8  C   UNL     1      -1.313  -0.200   4.194  0.00  0.00    +0.039 A 
ATOM      9  C   UNL     1      -2.383  -1.081   4.084  0.00  0.00    +0.024 A 
ATOM     10  C   UNL     1      -3.656  -0.668   4.426  0.00  0.00    +0.002 A 
ATOM     11  C   UNL     1      -3.864   0.622   4.878  0.00  0.00    +0.000 A 
ATOM     12  C   UNL     1      -2.798   1.498   4.997  0.00  0.00    +0.005 A 
ENDROOT
BRANCH   2  13
ATOM     13  S   UNL     1       0.961  -1.998   6.124  0.00  0.00    +0.102 S 
ATOM     14  O   UNL     1       2.070  -1.136   5.911  0.00  0.00    -0.146 OA
ATOM     15  O   UNL     1      -0.277  -1.532   6.643  0.00  0.00    -0.146 OA
BRANCH  13  16
ATOM     16  C   UNL     1       1.514  -3.272   7.209  0.00  0.00    +0.113 A 
ATOM     17  C   UNL     1       0.603  -3.966   7.982  0.00  0.00    +0.029 A 
ATOM     18  C   UNL     1       1.037  -4.965   8.834  0.00  0.00    +0.002 A 
ATOM     19  C   UNL     1       2.383  -5.270   8.911  0.00  0.00    +0.000 A 
ATOM     20  C   UNL     1       3.294  -4.577   8.137  0.00  0.00    +0.002 A 
ATOM     21  C   UNL     1       2.860  -3.581   7.283  0.00  0.00    +0.029 A 
ENDBRANCH  13  16
ENDBRANCH   2  13
BRANCH   1  22
ATOM     22  N   UNL     1       0.060  -2.551   2.420  0.00  0.00    -0.144 NA
BRANCH  22  28
ATOM     23  C   UNL     1      -1.096   1.783   0.727  0.00  0.00    +0.066 C 
ATOM     24  C   UNL     1      -0.915   0.301   0.522  0.00  0.00    +0.044 A 
ATOM     25  C   UNL     1      -1.160  -0.271  -0.716  0.00  0.00    +0.046 A 
ATOM     26  C   UNL     1      -0.980  -1.637  -0.862  0.00  0.00    +0.044 A 
ATOM     27  N   UNL     1      -0.582  -2.350   0.179  0.00  0.00    -0.218 NA
ATOM     28  C   UNL     1      -0.356  -1.772   1.349  0.00  0.00    +0.242 A 
ATOM     29  N   UNL     1      -0.514  -0.468   1.520  0.00  0.00    -0.218 NA
ATOM     30  C   UNL     1      -1.235  -2.303  -2.190  0.00  0.00    +0.066 C 
ENDBRANCH  22  28
ENDBRANCH   1  22
TORSDOF 4
