REMARK  Name = ZINC39696130
REMARK  11 active torsions:
REMARK  status: ('A' for Active; 'I' for Inactive)
REMARK    1  A    between atoms: C_1  and  C_2
REMARK    2  A    between atoms: C_2  and  C_3
REMARK    3  A    between atoms: C_6  and  C_9
REMARK    4  A    between atoms: C_9  and  C_11
REMARK    5  A    between atoms: C_9  and  N_12
REMARK    6  A    between atoms: C_13  and  C_15
REMARK    7  A    between atoms: C_26  and  C_28
REMARK    8  A    between atoms: C_32  and  O_35
REMARK    9  A    between atoms: C_33  and  C_34
REMARK   10  A    between atoms: O_35  and  C_36
REMARK   11  A    between atoms: C_36  and  C_38
REMARK                            x       y       z     vdW  Elec       q    Type
REMARK                         _______ _______ _______ _____ _____    ______ ____
ROOT
ATOM      1  C   UNL     1       5.281  -5.361  -4.936  0.00  0.00    +0.100 C 
ATOM      2  C   UNL     1       6.578  -4.544  -4.745  0.00  0.00    +0.121 C 
ATOM      3  N   UNL     1       7.659  -5.442  -5.215  0.00  0.00    -0.296 N 
ATOM      4  C   UNL     1       7.088  -6.115  -6.406  0.00  0.00    +0.115 C 
ATOM      5  C   UNL     1       5.620  -6.391  -6.027  0.00  0.00    -0.004 C 
ATOM      6  C   UNL     1       4.716  -6.191  -7.241  0.00  0.00    -0.010 C 
ATOM      7  C   UNL     1       5.032  -7.263  -8.288  0.00  0.00    -0.082 C 
ATOM      8  N   UNL     1       4.819  -8.594  -7.708  0.00  0.00    +0.379 N 
ATOM      9  C   UNL     1       5.757  -8.813  -6.600  0.00  0.00    -0.082 C 
ATOM     10  C   UNL     1       5.472  -7.808  -5.481  0.00  0.00    -0.010 C 
ATOM     11  C   UNL     1       8.885  -5.610  -4.679  0.00  0.00    +0.247 C 
ATOM     12  O   UNL     1       9.700  -6.319  -5.237  0.00  0.00    -0.270 OA
ATOM     13  H   UNL     1       3.873  -8.663  -7.365  0.00  0.00    -0.086 HD
ATOM     14  H   UNL     1       4.969  -9.296  -8.417  0.00  0.00    -0.086 HD
ENDROOT
BRANCH  11  15
ATOM     15  C   UNL     1       9.238  -4.932  -3.414  0.00  0.00    +0.043 A 
ATOM     16  C   UNL     1       8.748  -3.653  -3.144  0.00  0.00    +0.013 A 
ATOM     17  C   UNL     1       9.079  -3.023  -1.962  0.00  0.00    +0.004 A 
ATOM     18  C   UNL     1       9.895  -3.656  -1.042  0.00  0.00    +0.047 A 
ATOM     19  C   UNL     1      10.386  -4.928  -1.301  0.00  0.00    +0.135 A 
ATOM     20  C   UNL     1      10.056  -5.571  -2.482  0.00  0.00    +0.004 A 
ATOM     21  C   UNL     1      10.584  -6.955  -2.763  0.00  0.00    +0.048 C 
BRANCH  19  22
ATOM     22  O   UNL     1      11.188  -5.545  -0.393  0.00  0.00    -0.426 OA
BRANCH  22  23
ATOM     23  C   UNL     1      12.517  -5.415  -0.533  0.00  0.00    +0.309 C 
ATOM     24  O   UNL     1      12.965  -4.690  -1.390  0.00  0.00    -0.251 OA
ATOM     25  C   UNL     1      13.449  -6.173   0.376  0.00  0.00    +0.136 C 
ENDBRANCH  22  23
ENDBRANCH  19  22
ENDBRANCH  11  15
BRANCH   1  27
ATOM     26  N   UNL     1       2.881  -4.789  -5.108  0.00  0.00    -0.308 N 
ATOM     27  C   UNL     1       4.158  -4.465  -5.391  0.00  0.00    +0.219 C 
ATOM     28  O   UNL     1       4.404  -3.452  -6.010  0.00  0.00    -0.275 OA
ATOM     29  H   UNL     1       2.684  -5.600  -4.613  0.00  0.00    +0.149 HD
BRANCH  26  30
ATOM     30  C   UNL     1       1.789  -3.918  -5.550  0.00  0.00    +0.100 C 
ATOM     31  C   UNL     1       1.579  -2.803  -4.523  0.00  0.00    +0.033 C 
BRANCH  30  35
ATOM     32  C   UNL     1      -1.797  -6.208  -5.923  0.00  0.00    -0.048 A 
ATOM     33  C   UNL     1      -1.496  -5.239  -6.861  0.00  0.00    +0.004 A 
ATOM     34  C   UNL     1      -0.335  -4.497  -6.740  0.00  0.00    +0.006 A 
ATOM     35  C   UNL     1       0.523  -4.725  -5.681  0.00  0.00    -0.027 A 
ATOM     36  C   UNL     1       0.222  -5.695  -4.743  0.00  0.00    +0.006 A 
ATOM     37  C   UNL     1      -0.941  -6.433  -4.862  0.00  0.00    +0.004 A 
BRANCH  32  39
ATOM     38  C   UNL     1      -4.200  -6.306  -5.319  0.00  0.00    +0.009 C 
ATOM     39  C   UNL     1      -3.062  -7.017  -6.055  0.00  0.00    +0.032 C 
ENDBRANCH  32  39
ENDBRANCH  30  35
ENDBRANCH  26  30
ENDBRANCH   1  27
TORSDOF 7
