REMARK  Name = ZINC33362511
REMARK  8 active torsions:
REMARK  status: ('A' for Active; 'I' for Inactive)
REMARK    1  A    between atoms: C_1  and  C_2
REMARK    2  A    between atoms: C_2  and  C_3
REMARK    3  A    between atoms: C_3  and  N_4
REMARK    4  A    between atoms: N_4  and  C_5
REMARK    5  A    between atoms: C_6  and  C_17
REMARK    6  A    between atoms: C_13  and  C_16
REMARK    7  A    between atoms: N_21  and  C_25
REMARK    8  A    between atoms: C_25  and  C_26
REMARK                            x       y       z     vdW  Elec       q    Type
REMARK                         _______ _______ _______ _____ _____    ______ ____
ROOT
ATOM      1  C   UNL     1      -2.026   2.488   3.538  0.00  0.00    +0.037 C 
ATOM      2  C   UNL     1      -3.221   2.014   3.997  0.00  0.00    +0.077 C 
ATOM      3  C   UNL     1      -3.513   0.796   4.675  0.00  0.00    +0.259 C 
ATOM      4  O   UNL     1      -2.632  -0.007   4.926  0.00  0.00    -0.269 OA
ATOM      5  N   UNL     1      -4.766   0.564   5.026  0.00  0.00    -0.251 N 
ATOM      6  C   UNL     1      -5.744   1.451   4.740  0.00  0.00    +0.121 C 
ATOM      7  S   UNL     1      -7.417   1.355   5.090  0.00  0.00    -0.027 S 
ATOM      8  S   UNL     1      -4.848   2.751   3.905  0.00  0.00    -0.061 S 
ENDROOT
BRANCH   1  10
ATOM      9  C   UNL     1      -0.074   1.179   2.810  0.00  0.00    +0.134 A 
ATOM     10  C   UNL     1      -0.830   1.795   3.836  0.00  0.00    +0.081 A 
ATOM     11  C   UNL     1      -0.361   1.697   5.167  0.00  0.00    +0.267 A 
ATOM     12  O   UNL     1      -0.982   2.210   6.082  0.00  0.00    -0.267 OA
ATOM     13  N   UNL     1       0.790   1.032   5.407  0.00  0.00    -0.267 N 
ATOM     14  C   UNL     1       1.251   0.936   6.686  0.00  0.00    +0.096 A 
ATOM     15  C   UNL     1       2.399   0.277   6.960  0.00  0.00    +0.019 A 
ATOM     16  C   UNL     1       3.132  -0.320   5.924  0.00  0.00    +0.008 A 
ATOM     17  C   UNL     1       2.678  -0.230   4.642  0.00  0.00    -0.007 A 
ATOM     18  C   UNL     1       1.482   0.460   4.376  0.00  0.00    +0.145 A 
ATOM     19  N   UNL     1       1.046   0.542   3.118  0.00  0.00    -0.214 NA
ATOM     20  C   UNL     1       3.454  -0.866   3.517  0.00  0.00    +0.047 C 
BRANCH   9  21
ATOM     21  N   UNL     1      -0.496   1.247   1.501  0.00  0.00    -0.328 N 
ATOM     22  H   UNL     1      -1.427   1.777   1.250  0.00  0.00    +0.147 HD
BRANCH  21  23
ATOM     23  C   UNL     1       0.294   0.613   0.443  0.00  0.00    +0.102 C 
BRANCH  23  25
ATOM     24  C   UNL     1       0.434   0.171  -2.013  0.00  0.00    +0.005 C 
ATOM     25  C   UNL     1      -0.391   0.834  -0.907  0.00  0.00    +0.015 C 
ENDBRANCH  23  25
ENDBRANCH  21  23
ENDBRANCH   9  21
ENDBRANCH   1  10
BRANCH   5  26
ATOM     26  C   UNL     1      -5.099  -0.677   5.730  0.00  0.00    +0.150 C 
BRANCH  26  27
ATOM     27  C   UNL     1      -5.436  -1.749   4.726  0.00  0.00    -0.026 A 
ATOM     28  C   UNL     1      -4.438  -2.570   4.233  0.00  0.00    +0.009 A 
ATOM     29  C   UNL     1      -4.742  -3.555   3.312  0.00  0.00    +0.050 A 
ATOM     30  C   UNL     1      -6.048  -3.723   2.882  0.00  0.00    +0.166 A 
ATOM     31  C   UNL     1      -7.053  -2.897   3.379  0.00  0.00    +0.167 A 
ATOM     32  C   UNL     1      -6.742  -1.915   4.305  0.00  0.00    +0.054 A 
ATOM     33  O   UNL     1      -8.238  -3.260   2.808  0.00  0.00    -0.453 OA
ATOM     34  C   UNL     1      -7.884  -4.043   1.653  0.00  0.00    +0.466 C 
ATOM     35  O   UNL     1      -6.603  -4.603   1.999  0.00  0.00    -0.453 OA
ENDBRANCH  26  27
ENDBRANCH   5  26
TORSDOF 6
