REMARK  Name = ZINC36545265
REMARK  12 active torsions:
REMARK  status: ('A' for Active; 'I' for Inactive)
REMARK    1  A    between atoms: C_1  and  C_2
REMARK    2  A    between atoms: C_3  and  C_4
REMARK    3  A    between atoms: C_4  and  C_6
REMARK    4  A    between atoms: C_4  and  N_13
REMARK    5  A    between atoms: N_8  and  C_9
REMARK    6  A    between atoms: C_9  and  C_10
REMARK    7  A    between atoms: C_9  and  C_11
REMARK    8  A    between atoms: C_9  and  C_12
REMARK    9  A    between atoms: N_13  and  C_14
REMARK   10  A    between atoms: C_21  and  C_23
REMARK   11  A    between atoms: C_24  and  O_30
REMARK   12  A    between atoms: C_28  and  O_29
REMARK                            x       y       z     vdW  Elec       q    Type
REMARK                         _______ _______ _______ _____ _____    ______ ____
ROOT
ATOM      1  N   UNL     1       0.232  -2.643  -0.196  0.00  0.00    -0.250 N 
ATOM      2  C   UNL     1       0.820  -3.448   0.711  0.00  0.00    +0.259 C 
ATOM      3  O   UNL     1       0.233  -3.742   1.735  0.00  0.00    -0.269 OA
ENDROOT
BRANCH   1   4
ATOM      4  C   UNL     1       0.855  -2.402  -1.425  0.00  0.00    +0.056 A 
ATOM      5  C   UNL     1       0.615  -3.243  -2.503  0.00  0.00    +0.025 A 
ATOM      6  C   UNL     1       1.230  -3.002  -3.716  0.00  0.00    +0.002 A 
ATOM      7  C   UNL     1       2.086  -1.925  -3.857  0.00  0.00    +0.002 A 
ATOM      8  C   UNL     1       2.328  -1.085  -2.786  0.00  0.00    +0.022 A 
ATOM      9  C   UNL     1       1.711  -1.316  -1.571  0.00  0.00    +0.062 A 
ATOM     10 CL   UNL     1       2.010  -0.258  -0.228  0.00  0.00    -0.082 Cl
ENDBRANCH   1   4
BRANCH   2  11
ATOM     11  C   UNL     1       2.174  -3.972   0.462  0.00  0.00    +0.120 A 
ATOM     12  C   UNL     1       3.294  -3.317   0.994  0.00  0.00    +0.133 A 
ATOM     13  C   UNL     1       4.562  -3.818   0.754  0.00  0.00    +0.046 A 
ATOM     14  C   UNL     1       4.727  -4.960  -0.008  0.00  0.00    +0.007 A 
ATOM     15  C   UNL     1       3.630  -5.614  -0.537  0.00  0.00    +0.046 A 
ATOM     16  C   UNL     1       2.351  -5.134  -0.303  0.00  0.00    +0.133 A 
BRANCH  16  17
ATOM     17  O   UNL     1       1.276  -5.780  -0.819  0.00  0.00    -0.506 OA
ATOM     18  H   UNL     1       1.072  -5.538  -1.733  0.00  0.00    +0.292 HD
ENDBRANCH  16  17
BRANCH  12  19
ATOM     19  O   UNL     1       3.135  -2.195   1.741  0.00  0.00    -0.506 OA
ATOM     20  H   UNL     1       3.032  -2.364   2.687  0.00  0.00    +0.292 HD
ENDBRANCH  12  19
ENDBRANCH   2  11
BRANCH   1  21
ATOM     21  C   UNL     1      -1.059  -2.020   0.106  0.00  0.00    +0.190 C 
BRANCH  21  22
ATOM     22  C   UNL     1      -0.943  -1.212   1.374  0.00  0.00    +0.238 C 
ATOM     23  O   UNL     1       0.106  -1.184   1.981  0.00  0.00    -0.273 OA
ATOM     24  N   UNL     1      -2.006  -0.522   1.832  0.00  0.00    -0.309 N 
ATOM     25  H   UNL     1      -2.845  -0.544   1.346  0.00  0.00    +0.149 HD
BRANCH  24  26
ATOM     26  C   UNL     1      -1.893   0.263   3.064  0.00  0.00    +0.026 C 
ATOM     27  C   UNL     1      -0.806   1.327   2.894  0.00  0.00    +0.031 C 
ATOM     28  C   UNL     1      -3.231   0.944   3.359  0.00  0.00    +0.031 C 
ATOM     29  C   UNL     1      -1.524  -0.662   4.226  0.00  0.00    +0.031 C 
ENDBRANCH  24  26
ENDBRANCH  21  22
BRANCH  21  32
ATOM     30  C   UNL     1      -2.810  -5.428   0.331  0.00  0.00    +0.035 C 
ATOM     31  C   UNL     1      -1.812  -4.341   0.026  0.00  0.00    -0.032 C 
ATOM     32  C   UNL     1      -2.103  -3.091   0.287  0.00  0.00    +0.000 C 
ENDBRANCH  21  32
ENDBRANCH   1  21
TORSDOF 8
