REMARK  Name = ZINC66847944
REMARK  6 active torsions:
REMARK  status: ('A' for Active; 'I' for Inactive)
REMARK    1  A    between atoms: C_1  and  C_2
REMARK    2  A    between atoms: C_2  and  C_4
REMARK    3  A    between atoms: C_2  and  N_17
REMARK    4  A    between atoms: N_9  and  C_10
REMARK    5  A    between atoms: C_10  and  C_11
REMARK    6  A    between atoms: C_21  and  C_24
REMARK                            x       y       z     vdW  Elec       q    Type
REMARK                         _______ _______ _______ _____ _____    ______ ____
ROOT
ATOM      1  C   UNL     1       0.119   1.514   0.149  0.00  0.00    +0.034 C 
ATOM      2  C   UNL     1       0.002  -0.004   0.002  0.00  0.00    +0.141 C 
ENDROOT
BRANCH   2   3
ATOM      3  C   UNL     1       0.792  -0.455  -1.199  0.00  0.00    +0.237 C 
ATOM      4  O   UNL     1       1.857  -1.014  -1.049  0.00  0.00    -0.274 OA
ATOM      5  N   UNL     1       0.315  -0.236  -2.441  0.00  0.00    -0.239 N 
ATOM      6  C   UNL     1       1.022  -0.639  -3.515  0.00  0.00    +0.306 C 
ATOM      7  O   UNL     1       2.090  -1.200  -3.364  0.00  0.00    -0.252 OA
ATOM      8  N   UNL     1       0.545  -0.421  -4.756  0.00  0.00    -0.297 N 
ATOM      9  H   UNL     1      -0.537   0.211  -2.561  0.00  0.00    +0.159 HD
ATOM     10  H   UNL     1      -0.307   0.027  -4.877  0.00  0.00    +0.150 HD
BRANCH   8  11
ATOM     11  C   UNL     1       1.313  -0.859  -5.924  0.00  0.00    +0.137 C 
BRANCH  11  12
ATOM     12  C   UNL     1       0.554  -0.492  -7.201  0.00  0.00    +0.135 C 
ATOM     13  C   UNL     1       1.296  -1.056  -8.432  0.00  0.00    +0.035 C 
ATOM     14  C   UNL     1       1.135   0.089  -9.468  0.00  0.00    +0.031 C 
ATOM     15  C   UNL     1       1.183   1.331  -8.542  0.00  0.00    +0.160 C 
ATOM     16  O   UNL     1       0.500   0.932  -7.341  0.00  0.00    -0.375 OA
ENDBRANCH  11  12
ENDBRANCH   8  11
ENDBRANCH   2   3
BRANCH   2  17
ATOM     17  N   UNL     1       0.530  -0.655   1.208  0.00  0.00    -0.287 NA
ATOM     18  C   UNL     1      -0.420  -0.547   2.325  0.00  0.00    +0.113 C 
ATOM     19  C   UNL     1       0.142  -1.288   3.540  0.00  0.00    +0.176 C 
ATOM     20  O   UNL     1       1.426  -0.750   3.868  0.00  0.00    -0.369 OA
ATOM     21  C   UNL     1       2.377  -0.839   2.804  0.00  0.00    +0.162 C 
ATOM     22  C   UNL     1       1.837  -0.093   1.581  0.00  0.00    +0.121 C 
BRANCH  21  23
ATOM     23  C   UNL     1       3.679  -0.218   3.239  0.00  0.00    -0.015 A 
ATOM     24  C   UNL     1       3.674   0.881   4.079  0.00  0.00    +0.006 A 
ATOM     25  C   UNL     1       4.868   1.452   4.479  0.00  0.00    +0.003 A 
ATOM     26  C   UNL     1       6.068   0.926   4.039  0.00  0.00    +0.038 A 
ATOM     27  C   UNL     1       6.074  -0.174   3.198  0.00  0.00    +0.124 A 
ATOM     28  C   UNL     1       4.878  -0.749   2.803  0.00  0.00    +0.044 A 
ATOM     29  F   UNL     1       7.246  -0.689   2.767  0.00  0.00    -0.205 F 
ENDBRANCH  21  23
ENDBRANCH   2  17
TORSDOF 5
