REMARK  Name = ZINC35098903
REMARK  9 active torsions:
REMARK  status: ('A' for Active; 'I' for Inactive)
REMARK    1  A    between atoms: C_1  and  C_2
REMARK    2  A    between atoms: C_2  and  C_3
REMARK    3  A    between atoms: C_3  and  C_5
REMARK    4  A    between atoms: C_3  and  C_6
REMARK    5  A    between atoms: C_6  and  C_8
REMARK    6  A    between atoms: C_6  and  N_28
REMARK    7  A    between atoms: C_14  and  C_17
REMARK    8  A    between atoms: N_20  and  C_21
REMARK    9  A    between atoms: C_29  and  C_31
REMARK                            x       y       z     vdW  Elec       q    Type
REMARK                         _______ _______ _______ _____ _____    ______ ____
ROOT
ATOM      1  C   UNL     1      -0.691   1.006   2.521  0.00  0.00    +0.236 C 
ATOM      2  O   UNL     1      -0.400   1.635   3.516  0.00  0.00    -0.274 OA
ATOM      3  N   UNL     1      -1.649   1.463   1.691  0.00  0.00    -0.297 N 
ATOM      4  C   UNL     1      -2.094   0.656   0.546  0.00  0.00    +0.127 C 
ATOM      5  C   UNL     1      -1.944   1.492  -0.731  0.00  0.00    +0.128 C 
ATOM      6  N   UNL     1      -2.562   2.806  -0.507  0.00  0.00    -0.280 N 
ATOM      7  C   UNL     1      -2.117   3.613   0.637  0.00  0.00    +0.092 C 
ATOM      8  C   UNL     1      -2.272   2.775   1.918  0.00  0.00    +0.130 C 
ATOM      9  C   UNL     1      -0.651   4.008   0.448  0.00  0.00    +0.030 C 
ATOM     10  C   UNL     1      -3.520   3.264  -1.338  0.00  0.00    +0.307 C 
ATOM     11  O   UNL     1      -3.958   4.389  -1.199  0.00  0.00    -0.252 OA
ATOM     12  N   UNL     1      -3.993   2.473  -2.321  0.00  0.00    -0.269 N 
ATOM     13  H   UNL     1      -3.697   1.552  -2.388  0.00  0.00    +0.156 HD
ENDROOT
BRANCH  12  14
ATOM     14  C   UNL     1      -4.911   2.982  -3.248  0.00  0.00    +0.035 A 
ATOM     15  C   UNL     1      -4.821   4.304  -3.662  0.00  0.00    +0.025 A 
ATOM     16  C   UNL     1      -5.728   4.803  -4.577  0.00  0.00    +0.022 A 
ATOM     17  C   UNL     1      -6.726   3.987  -5.079  0.00  0.00    +0.041 A 
ATOM     18  C   UNL     1      -6.818   2.669  -4.668  0.00  0.00    +0.022 A 
ATOM     19  C   UNL     1      -5.910   2.163  -3.759  0.00  0.00    +0.025 A 
ATOM     20 CL   UNL     1      -7.864   4.618  -6.228  0.00  0.00    -0.084 Cl
ENDBRANCH  12  14
BRANCH   1  21
ATOM     21  C   UNL     1       0.019  -0.288   2.213  0.00  0.00    +0.162 C 
BRANCH  21  22
ATOM     22  N   UNL     1       0.661  -0.794   3.428  0.00  0.00    -0.304 N 
ATOM     23  C   UNL     1       0.912  -2.111   3.560  0.00  0.00    +0.217 C 
ATOM     24  O   UNL     1       0.605  -2.878   2.672  0.00  0.00    -0.275 OA
ATOM     25  H   UNL     1       0.907  -0.180   4.139  0.00  0.00    +0.149 HD
BRANCH  23  26
ATOM     26  C   UNL     1       1.573  -2.632   4.810  0.00  0.00    +0.075 C 
ATOM     27  C   UNL     1       2.946  -1.977   4.971  0.00  0.00    +0.013 C 
ATOM     28  C   UNL     1       3.617  -2.505   6.241  0.00  0.00    +0.001 C 
ATOM     29  C   UNL     1       3.785  -4.022   6.135  0.00  0.00    +0.000 C 
ATOM     30  C   UNL     1       2.412  -4.677   5.974  0.00  0.00    +0.001 C 
ATOM     31  C   UNL     1       1.741  -4.149   4.704  0.00  0.00    +0.013 C 
ENDBRANCH  23  26
ENDBRANCH  21  22
BRANCH  21  32
ATOM     32  C   UNL     1       1.081  -0.043   1.139  0.00  0.00    +0.015 C 
ATOM     33  C   UNL     1       2.157   0.894   1.689  0.00  0.00    +0.010 C 
BRANCH  32  35
ATOM     34  C   UNL     1       0.666  -2.270   0.085  0.00  0.00    +0.004 C 
ATOM     35  C   UNL     1       1.719  -1.376   0.741  0.00  0.00    +0.002 C 
ENDBRANCH  32  35
ENDBRANCH  21  32
ENDBRANCH   1  21
TORSDOF 6
