REMARK  Name = ZINC39518725
REMARK  4 active torsions:
REMARK  status: ('A' for Active; 'I' for Inactive)
REMARK    1  A    between atoms: C_3  and  C_25
REMARK    2  A    between atoms: C_5  and  C_7
REMARK    3  A    between atoms: N_16  and  C_17
REMARK    4  A    between atoms: C_17  and  C_18
REMARK                            x       y       z     vdW  Elec       q    Type
REMARK                         _______ _______ _______ _____ _____    ______ ____
ROOT
ATOM      1  C   UNL     1       1.216  -2.193  -0.021  0.00  0.00    +0.205 C 
ATOM      2  N   UNL     1       0.019  -2.714  -0.740  0.00  0.00    -0.267 NA
ATOM      3  C   UNL     1       0.547  -3.975  -1.276  0.00  0.00    +0.211 C 
ATOM      4  C   UNL     1       2.018  -3.667  -1.547  0.00  0.00    +0.094 C 
ATOM      5  N   UNL     1       2.374  -2.692  -0.782  0.00  0.00    -0.260 NA
ATOM      6  C   UNL     1       2.320  -4.548  -2.675  0.00  0.00    +0.156 C 
ATOM      7  N   UNL     1       1.204  -4.925  -3.235  0.00  0.00    -0.189 NA
ATOM      8  N   UNL     1       0.066  -4.342  -2.608  0.00  0.00    -0.232 N 
ATOM      9  H   UNL     1      -0.742  -2.884  -0.100  0.00  0.00    +0.126 HD
ENDROOT
BRANCH   1  14
ATOM     10  C   UNL     1      -0.017   1.379   0.010  0.00  0.00    +0.002 A 
ATOM     11  C   UNL     1       1.167   2.088   0.002  0.00  0.00    +0.019 A 
ATOM     12  C   UNL     1       2.385   1.407  -0.013  0.00  0.00    +0.052 A 
ATOM     13  C   UNL     1       2.397   0.010  -0.021  0.00  0.00    +0.026 A 
ATOM     14  C   UNL     1       1.206  -0.686  -0.013  0.00  0.00    -0.008 A 
ATOM     15  C   UNL     1       0.002  -0.004   0.002  0.00  0.00    +0.007 A 
BRANCH  12  16
ATOM     16  C   UNL     1       3.617   2.136  -0.021  0.00  0.00    +0.099 C 
ATOM     17  N   UNL     1       4.595   2.715  -0.028  0.00  0.00    -0.191 NA
ENDBRANCH  12  16
ENDBRANCH   1  14
BRANCH   8  18
ATOM     18  C   UNL     1      -1.274  -4.142  -3.165  0.00  0.00    +0.132 C 
BRANCH  18  19
ATOM     19  C   UNL     1      -1.340  -2.780  -3.859  0.00  0.00    +0.012 C 
ATOM     20  C   UNL     1      -2.772  -2.517  -4.342  0.00  0.00    +0.009 C 
ATOM     21  C   UNL     1      -2.849  -1.082  -4.869  0.00  0.00    +0.027 C 
ATOM     22  C   UNL     1      -1.722  -0.822  -5.825  0.00  0.00    -0.031 C 
ATOM     23  C   UNL     1      -0.659  -1.556  -5.911  0.00  0.00    -0.031 C 
ATOM     24  C   UNL     1      -0.406  -2.774  -5.071  0.00  0.00    +0.032 C 
ENDBRANCH  18  19
ENDBRANCH   8  18
TORSDOF 4
