REMARK  Name = ZINC37760985
REMARK  4 active torsions:
REMARK  status: ('A' for Active; 'I' for Inactive)
REMARK    1  A    between atoms: C_1  and  C_2
REMARK    2  A    between atoms: C_2  and  N_9
REMARK    3  A    between atoms: C_10  and  N_20
REMARK    4  A    between atoms: C_12  and  C_14
REMARK                            x       y       z     vdW  Elec       q    Type
REMARK                         _______ _______ _______ _____ _____    ______ ____
ROOT
ATOM      1  N   UNL     1       0.731  -0.456  -1.186  0.00  0.00    -0.265 N 
ATOM      2  C   UNL     1       0.357  -0.252  -2.477  0.00  0.00    +0.114 A 
ATOM      3  C   UNL     1       1.296  -0.823  -3.275  0.00  0.00    +0.073 A 
ATOM      4  C   UNL     1       2.278  -1.397  -2.442  0.00  0.00    +0.101 A 
ATOM      5  N   UNL     1       1.937  -1.168  -1.190  0.00  0.00    -0.292 N 
ATOM      6  H   UNL     1       2.434  -1.446  -0.405  0.00  0.00    +0.187 HD
ENDROOT
BRANCH   1   8
ATOM      7  C   UNL     1      -1.373  -0.675   0.017  0.00  0.00    +0.038 C 
ATOM      8  C   UNL     1       0.002  -0.004   0.002  0.00  0.00    +0.081 C 
ATOM      9  C   UNL     1       0.775  -0.445   1.244  0.00  0.00    +0.054 C 
ATOM     10  C   UNL     1       1.791   0.653   1.665  0.00  0.00    +0.168 C 
ATOM     11  S   UNL     1       0.767   2.157   1.347  0.00  0.00    -0.029 S 
ATOM     12  O   UNL     1       1.611   3.214   0.913  0.00  0.00    -0.174 OA
ATOM     13  O   UNL     1      -0.112   2.364   2.444  0.00  0.00    -0.174 OA
ATOM     14  C   UNL     1      -0.194   1.522  -0.089  0.00  0.00    +0.195 C 
ENDBRANCH   1   8
BRANCH   4  15
ATOM     15  C   UNL     1       3.484  -2.123  -2.894  0.00  0.00    +0.154 A 
ATOM     16  C   UNL     1       3.842  -2.348  -4.186  0.00  0.00    +0.052 A 
ATOM     17  C   UNL     1       5.052  -3.071  -4.152  0.00  0.00    +0.057 A 
ATOM     18  C   UNL     1       5.369  -3.249  -2.854  0.00  0.00    +0.171 A 
ATOM     19  O   UNL     1       4.422  -2.670  -2.097  0.00  0.00    -0.447 OA
ATOM     20 BR   UNL     1       6.897  -4.156  -2.207  0.00  0.00    -0.008 Br
ENDBRANCH   4  15
BRANCH   2  21
ATOM     21  N   UNL     1      -0.784   0.421  -2.904  0.00  0.00    -0.343 N 
ATOM     22  H   UNL     1      -1.398   0.796  -2.254  0.00  0.00    +0.144 HD
ATOM     23  H   UNL     1      -0.965   0.515  -3.853  0.00  0.00    +0.144 HD
ENDBRANCH   2  21
TORSDOF 3
