REMARK  Name = ZINC02552973
REMARK  8 active torsions:
REMARK  status: ('A' for Active; 'I' for Inactive)
REMARK    1  A    between atoms: C_1  and  C_2
REMARK    2  A    between atoms: C_2  and  O_3
REMARK    3  A    between atoms: O_3  and  C_4
REMARK    4  A    between atoms: C_7  and  C_10
REMARK    5  A    between atoms: N_12  and  C_13
REMARK    6  A    between atoms: C_13  and  C_14
REMARK    7  A    between atoms: N_16  and  N_17
REMARK    8  A    between atoms: C_18  and  C_19
REMARK                            x       y       z     vdW  Elec       q    Type
REMARK                         _______ _______ _______ _____ _____    ______ ____
ROOT
ATOM      1  C   UNL     1       1.243  -2.036   0.009  0.00  0.00    +0.249 C 
ATOM      2  O   UNL     1       0.201  -2.656   0.029  0.00  0.00    -0.272 OA
ATOM      3  N   UNL     1       1.225  -0.688   0.001  0.00  0.00    -0.206 N 
ATOM      4  H   UNL     1       2.058  -0.192  -0.015  0.00  0.00    +0.177 HD
ENDROOT
BRANCH   3   5
ATOM      5  N   UNL     1       0.002  -0.004   0.017  0.00  0.00    -0.188 NA
ATOM      6  C   UNL     1      -0.016   1.297   0.009  0.00  0.00    +0.139 C 
BRANCH   6   7
ATOM      7  C   UNL     1      -1.295   2.013   0.019  0.00  0.00    +0.010 A 
ATOM      8  C   UNL     1      -1.325   3.418   0.139  0.00  0.00    -0.009 A 
ATOM      9  C   UNL     1      -0.138   4.163   0.241  0.00  0.00    +0.009 A 
ATOM     10  C   UNL     1      -0.202   5.518   0.350  0.00  0.00    +0.001 A 
ATOM     11  C   UNL     1      -1.421   6.194   0.359  0.00  0.00    +0.001 A 
ATOM     12  C   UNL     1      -2.604   5.532   0.260  0.00  0.00    +0.008 A 
ATOM     13  C   UNL     1      -2.607   4.126   0.144  0.00  0.00    -0.017 A 
ATOM     14  C   UNL     1      -3.804   3.417   0.040  0.00  0.00    +0.017 A 
ATOM     15  C   UNL     1      -3.783   2.026  -0.074  0.00  0.00    -0.017 A 
ATOM     16  C   UNL     1      -2.509   1.304  -0.085  0.00  0.00    -0.009 A 
ATOM     17  C   UNL     1      -2.525  -0.097  -0.202  0.00  0.00    +0.009 A 
ATOM     18  C   UNL     1      -3.713  -0.750  -0.301  0.00  0.00    +0.001 A 
ATOM     19  C   UNL     1      -4.927  -0.065  -0.291  0.00  0.00    +0.001 A 
ATOM     20  C   UNL     1      -4.982   1.288  -0.181  0.00  0.00    +0.008 A 
ENDBRANCH   6   7
ENDBRANCH   3   5
BRANCH   1  21
ATOM     21  C   UNL     1       2.558  -2.771  -0.007  0.00  0.00    +0.202 C 
BRANCH  21  24
ATOM     22  C   UNL     1       3.346  -5.077  -0.006  0.00  0.00    +0.244 C 
ATOM     23  O   UNL     1       4.487  -4.656  -0.027  0.00  0.00    -0.270 OA
ATOM     24  N   UNL     1       2.310  -4.215   0.005  0.00  0.00    -0.303 N 
ATOM     25  H   UNL     1       1.400  -4.551   0.022  0.00  0.00    +0.150 HD
BRANCH  22  29
ATOM     26  C   UNL     1       2.628  -9.262   0.031  0.00  0.00    +0.121 A 
ATOM     27  C   UNL     1       3.932  -8.783   0.007  0.00  0.00    +0.046 A 
ATOM     28  C   UNL     1       4.170  -7.427  -0.005  0.00  0.00    +0.016 A 
ATOM     29  C   UNL     1       3.097  -6.532   0.007  0.00  0.00    +0.037 A 
ATOM     30  C   UNL     1       1.787  -7.017   0.036  0.00  0.00    +0.016 A 
ATOM     31  C   UNL     1       1.558  -8.375   0.042  0.00  0.00    +0.046 A 
BRANCH  26  32
ATOM     32  O   UNL     1       2.398 -10.600   0.043  0.00  0.00    -0.492 OA
BRANCH  32  34
ATOM     33  C   UNL     1       0.974 -12.552   0.078  0.00  0.00    +0.048 C 
ATOM     34  C   UNL     1       1.033 -11.024   0.068  0.00  0.00    +0.225 C 
ENDBRANCH  32  34
ENDBRANCH  26  32
ENDBRANCH  22  29
ENDBRANCH  21  24
ENDBRANCH   1  21
TORSDOF 7
