REMARK  Name = ZINC09466738
REMARK  10 active torsions:
REMARK  status: ('A' for Active; 'I' for Inactive)
REMARK    1  A    between atoms: C_1  and  C_2
REMARK    2  A    between atoms: N_4  and  C_5
REMARK    3  A    between atoms: C_5  and  C_7
REMARK    4  A    between atoms: C_5  and  C_18
REMARK    5  A    between atoms: C_7  and  C_8
REMARK    6  A    between atoms: C_18  and  O_20
REMARK    7  A    between atoms: O_20  and  C_21
REMARK    8  A    between atoms: C_21  and  C_22
REMARK    9  A    between atoms: N_24  and  C_25
REMARK   10  A    between atoms: C_26  and  C_34
REMARK                            x       y       z     vdW  Elec       q    Type
REMARK                         _______ _______ _______ _____ _____    ______ ____
ROOT
ATOM      1  C   UNL     1      -3.297   9.852  -5.260  0.00  0.00    +0.328 C 
ATOM      2  O   UNL     1      -3.359  10.827  -4.549  0.00  0.00    -0.249 OA
ENDROOT
BRANCH   1   3
ATOM      3  C   UNL     1      -3.614   9.970  -6.729  0.00  0.00    +0.186 C 
BRANCH   3   7
ATOM      4  C   UNL     1      -4.155  13.750  -6.993  0.00  0.00    +0.109 C 
ATOM      5  C   UNL     1      -4.274  12.309  -6.567  0.00  0.00    +0.211 C 
ATOM      6  O   UNL     1      -5.067  11.996  -5.705  0.00  0.00    -0.276 OA
ATOM      7  N   UNL     1      -3.499  11.370  -7.143  0.00  0.00    -0.302 N 
ATOM      8  H   UNL     1      -2.864  11.621  -7.833  0.00  0.00    +0.150 HD
ENDBRANCH   3   7
BRANCH   3   9
ATOM      9  C   UNL     1      -5.041   9.478  -6.983  0.00  0.00    +0.071 C 
BRANCH   9  10
ATOM     10  C   UNL     1      -5.316   9.480  -8.465  0.00  0.00    -0.020 A 
ATOM     11  C   UNL     1      -5.908  10.459  -9.166  0.00  0.00    +0.087 A 
ATOM     12  N   UNL     1      -5.986  10.106 -10.486  0.00  0.00    -0.360 N 
ATOM     13  H   UNL     1      -6.375  10.653 -11.187  0.00  0.00    +0.165 HD
ATOM     14  C   UNL     1      -5.431   8.860 -10.671  0.00  0.00    +0.047 A 
ATOM     15  C   UNL     1      -4.982   8.415  -9.414  0.00  0.00    +0.003 A 
ATOM     16  C   UNL     1      -4.364   7.169  -9.296  0.00  0.00    +0.010 A 
ATOM     17  C   UNL     1      -4.196   6.388 -10.405  0.00  0.00    +0.001 A 
ATOM     18  C   UNL     1      -4.634   6.823 -11.647  0.00  0.00    +0.002 A 
ATOM     19  C   UNL     1      -5.253   8.047 -11.785  0.00  0.00    +0.026 A 
ENDBRANCH   9  10
ENDBRANCH   3   9
ENDBRANCH   1   3
BRANCH   1  20
ATOM     20  O   UNL     1      -2.944   8.665  -4.742  0.00  0.00    -0.454 OA
BRANCH  20  21
ATOM     21  C   UNL     1      -2.653   8.627  -3.320  0.00  0.00    +0.328 C 
BRANCH  21  22
ATOM     22  C   UNL     1      -2.279   7.222  -2.922  0.00  0.00    +0.255 C 
ATOM     23  O   UNL     1      -2.260   6.341  -3.755  0.00  0.00    -0.272 OA
ATOM     24  N   UNL     1      -1.965   6.946  -1.641  0.00  0.00    -0.276 N 
ATOM     25  H   UNL     1      -1.980   7.652  -0.975  0.00  0.00    +0.155 HD
BRANCH  24  26
ATOM     26  C   UNL     1      -1.621   5.653  -1.274  0.00  0.00    +0.090 A 
ATOM     27  C   UNL     1      -1.271   5.177  -0.019  0.00  0.00    +0.084 A 
ATOM     28  C   UNL     1      -0.951   3.765   0.100  0.00  0.00    -0.018 A 
ATOM     29  C   UNL     1      -1.032   3.059  -1.049  0.00  0.00    -0.004 A 
ATOM     30  S   UNL     1      -1.524   4.240  -2.273  0.00  0.00    -0.077 S 
ATOM     31  C   UNL     1      -0.761   1.597  -1.232  0.00  0.00    +0.043 C 
ATOM     32  C   UNL     1      -0.013   1.086   0.008  0.00  0.00    +0.005 C 
ATOM     33  C   UNL     1      -0.735   1.583   1.264  0.00  0.00    +0.005 C 
ATOM     34  C   UNL     1      -0.551   3.094   1.407  0.00  0.00    +0.037 C 
BRANCH  27  35
ATOM     35  C   UNL     1      -1.226   6.046   1.118  0.00  0.00    +0.102 C 
ATOM     36  N   UNL     1      -1.191   6.736   2.020  0.00  0.00    -0.191 NA
ENDBRANCH  27  35
ENDBRANCH  24  26
ENDBRANCH  21  22
ENDBRANCH  20  21
ENDBRANCH   1  20
TORSDOF 9
