REMARK  Name = ZINC40499182
REMARK  6 active torsions:
REMARK  status: ('A' for Active; 'I' for Inactive)
REMARK    1  A    between atoms: C_1  and  C_2
REMARK    2  A    between atoms: C_2  and  C_26
REMARK    3  A    between atoms: C_3  and  O_25
REMARK    4  A    between atoms: C_5  and  N_18
REMARK    5  A    between atoms: C_9  and  C_14
REMARK    6  A    between atoms: C_15  and  C_16
REMARK                            x       y       z     vdW  Elec       q    Type
REMARK                         _______ _______ _______ _____ _____    ______ ____
ROOT
ATOM      1  C   UNL     1      -0.233   1.429  -0.331  0.00  0.00    +0.058 C 
ATOM      2  C   UNL     1      -0.248  -0.101  -0.292  0.00  0.00    +0.133 C 
ATOM      3  C   UNL     1      -1.644  -0.594   0.108  0.00  0.00    +0.185 C 
ATOM      4  C   UNL     1      -2.026   0.068   1.435  0.00  0.00    +0.156 C 
ATOM      5  C   UNL     1      -0.887  -0.066   2.414  0.00  0.00    +0.020 A 
ATOM      6  C   UNL     1      -1.145   0.118   3.758  0.00  0.00    +0.017 A 
ATOM      7  C   UNL     1      -0.114   0.006   4.694  0.00  0.00    -0.024 A 
ATOM      8  C   UNL     1       1.183  -0.293   4.262  0.00  0.00    +0.011 A 
ATOM      9  C   UNL     1       1.431  -0.476   2.922  0.00  0.00    +0.046 A 
ATOM     10  C   UNL     1       0.399  -0.366   1.991  0.00  0.00    +0.127 A 
ATOM     11  O   UNL     1       0.690  -0.566   0.680  0.00  0.00    -0.483 OA
ATOM     12  C   UNL     1       0.120  -0.655  -1.670  0.00  0.00    +0.058 C 
ENDROOT
BRANCH   4  13
ATOM     13  N   UNL     1      -2.309   1.487   1.208  0.00  0.00    -0.305 N 
ATOM     14  C   UNL     1      -1.557   2.430   1.833  0.00  0.00    +0.090 A 
ATOM     15  C   UNL     1      -1.800   3.747   1.640  0.00  0.00    +0.018 A 
ATOM     16  C   UNL     1      -2.837   4.150   0.786  0.00  0.00    +0.007 A 
ATOM     17  C   UNL     1      -3.590   3.202   0.159  0.00  0.00    +0.070 A 
ATOM     18  C   UNL     1      -3.307   1.843   0.378  0.00  0.00    +0.252 A 
ATOM     19  O   UNL     1      -3.971   0.984  -0.181  0.00  0.00    -0.268 OA
ENDBRANCH   4  13
BRANCH   7  20
ATOM     20  C   UNL     1      -0.389   0.202   6.125  0.00  0.00    +0.019 C 
ATOM     21  C   UNL     1       0.610   0.092   7.026  0.00  0.00    +0.089 C 
BRANCH  21  22
ATOM     22  C   UNL     1       0.342   0.283   8.420  0.00  0.00    +0.091 C 
ATOM     23  N   UNL     1       0.129   0.434   9.525  0.00  0.00    -0.191 NA
ENDBRANCH  21  22
ENDBRANCH   7  20
BRANCH   3  24
ATOM     24  O   UNL     1      -1.627  -2.014   0.265  0.00  0.00    -0.385 OA
ATOM     25  H   UNL     1      -1.376  -2.495  -0.536  0.00  0.00    +0.210 HD
ENDBRANCH   3  24
TORSDOF 4
