REMARK  Name = ZINC04382575
REMARK  9 active torsions:
REMARK  status: ('A' for Active; 'I' for Inactive)
REMARK    1  A    between atoms: C_1  and  C_2
REMARK    2  A    between atoms: C_2  and  C_3
REMARK    3  A    between atoms: C_2  and  C_4
REMARK    4  A    between atoms: C_2  and  N_5
REMARK    5  A    between atoms: C_6  and  S_19
REMARK    6  A    between atoms: N_7  and  N_8
REMARK    7  A    between atoms: C_9  and  C_10
REMARK    8  A    between atoms: C_15  and  O_16
REMARK    9  A    between atoms: S_19  and  C_20
REMARK                            x       y       z     vdW  Elec       q    Type
REMARK                         _______ _______ _______ _____ _____    ______ ____
ROOT
ATOM      1  N   UNL     1       3.072  -0.467  -2.835  0.00  0.00    -0.180 NA
ATOM      2  C   UNL     1       3.397  -1.154  -3.896  0.00  0.00    +0.144 C 
ENDROOT
BRANCH   2   3
ATOM      3  C   UNL     1       4.770  -1.096  -4.419  0.00  0.00    +0.039 A 
ATOM      4  C   UNL     1       5.035  -1.460  -5.743  0.00  0.00    +0.033 A 
ATOM      5  C   UNL     1       6.326  -1.402  -6.227  0.00  0.00    +0.043 A 
ATOM      6  C   UNL     1       7.361  -0.985  -5.406  0.00  0.00    +0.043 A 
ATOM      7  C   UNL     1       7.112  -0.623  -4.094  0.00  0.00    +0.084 A 
ATOM      8  C   UNL     1       5.821  -0.670  -3.594  0.00  0.00    +0.144 A 
ATOM      9 CL   UNL     1       8.418  -0.104  -3.076  0.00  0.00    -0.080 Cl
ATOM     10 CL   UNL     1       6.654  -1.855  -7.870  0.00  0.00    -0.083 Cl
BRANCH   8  11
ATOM     11  O   UNL     1       5.575  -0.309  -2.307  0.00  0.00    -0.505 OA
ATOM     12  H   UNL     1       5.716  -1.019  -1.666  0.00  0.00    +0.292 HD
ENDBRANCH   8  11
ENDBRANCH   2   3
BRANCH   1  15
ATOM     13  N   UNL     1       0.321  -0.022  -0.707  0.00  0.00    -0.319 N 
ATOM     14  C   UNL     1       1.411   0.265  -1.492  0.00  0.00    +0.148 C 
ATOM     15  N   UNL     1       1.937  -0.670  -2.257  0.00  0.00    -0.259 N 
ATOM     16  H   UNL     1      -0.117  -0.885  -0.781  0.00  0.00    +0.148 HD
ATOM     17  H   UNL     1       1.470  -1.510  -2.387  0.00  0.00    +0.191 HD
BRANCH  13  19
ATOM     18  C   UNL     1      -0.677   2.202  -0.520  0.00  0.00    +0.031 C 
ATOM     19  C   UNL     1      -0.181   0.973   0.244  0.00  0.00    +0.025 C 
ATOM     20  C   UNL     1       0.946   1.384   1.194  0.00  0.00    +0.031 C 
ATOM     21  C   UNL     1      -1.335   0.373   1.050  0.00  0.00    +0.031 C 
ENDBRANCH  13  19
BRANCH  14  22
ATOM     22  S   UNL     1       2.106   1.884  -1.475  0.00  0.00    -0.094 S 
ATOM     23  C   UNL     1       3.603   1.730  -2.487  0.00  0.00    +0.093 C 
ENDBRANCH  14  22
ENDBRANCH   1  15
TORSDOF 5
