REMARK  Name = ZINC20528087
REMARK  8 active torsions:
REMARK  status: ('A' for Active; 'I' for Inactive)
REMARK    1  A    between atoms: C_6  and  C_7
REMARK    2  A    between atoms: N_8  and  N_9
REMARK    3  A    between atoms: C_13  and  S_16
REMARK    4  A    between atoms: N_14  and  N_15
REMARK    5  A    between atoms: S_16  and  C_17
REMARK    6  A    between atoms: C_17  and  C_18
REMARK    7  A    between atoms: N_20  and  C_21
REMARK    8  A    between atoms: C_24  and  N_27
REMARK                            x       y       z     vdW  Elec       q    Type
REMARK                         _______ _______ _______ _____ _____    ______ ____
ROOT
ATOM      1  N   UNL     1       0.001  -0.004  -0.024  0.00  0.00    -0.204 N 
ATOM      2  C   UNL     1      -0.018   1.383  -0.013  0.00  0.00    +0.254 A 
ATOM      3  N   UNL     1      -1.089   2.140  -0.010  0.00  0.00    -0.109 NA
ATOM      4  N   UNL     1      -0.673   3.478   0.004  0.00  0.00    -0.119 NA
ATOM      5  C   UNL     1       0.638   3.495   0.001  0.00  0.00    +0.210 A 
ATOM      6  N   UNL     1       1.078   2.202  -0.009  0.00  0.00    -0.211 N 
ATOM      7  H   UNL     1       0.961  -0.541  -0.031  0.00  0.00    +0.177 HD
ENDROOT
BRANCH   6   8
ATOM      8  N   UNL     1       2.382   1.797  -0.016  0.00  0.00    -0.294 N 
ATOM      9  H   UNL     1       3.190   2.544  -0.012  0.00  0.00    +0.163 HD
ATOM     10  H   UNL     1       2.625   0.724  -0.024  0.00  0.00    +0.163 HD
ENDBRANCH   6   8
BRANCH   1  12
ATOM     11  C   UNL     1      -1.185  -2.019  -0.037  0.00  0.00    +0.138 C 
ATOM     12  N   UNL     1      -1.203  -0.721  -0.027  0.00  0.00    -0.188 NA
BRANCH  11  18
ATOM     13  C   UNL     1      -3.673  -2.094  -0.026  0.00  0.00    +0.012 A 
ATOM     14  C   UNL     1      -4.854  -2.805  -0.034  0.00  0.00    +0.039 A 
ATOM     15  C   UNL     1      -4.832  -4.191  -0.045  0.00  0.00    +0.123 A 
ATOM     16  C   UNL     1      -3.625  -4.870  -0.054  0.00  0.00    +0.039 A 
ATOM     17  C   UNL     1      -2.437  -4.170  -0.051  0.00  0.00    +0.012 A 
ATOM     18  C   UNL     1      -2.452  -2.773  -0.040  0.00  0.00    -0.005 A 
ATOM     19  F   UNL     1      -5.993  -4.882  -0.048  0.00  0.00    -0.205 F 
ENDBRANCH  11  18
ENDBRANCH   1  12
BRANCH   5  20
ATOM     20  S   UNL     1       1.655   4.934   0.010  0.00  0.00    -0.075 S 
BRANCH  20  21
ATOM     21  C   UNL     1       0.470   6.308   0.023  0.00  0.00    +0.173 C 
BRANCH  21  22
ATOM     22  C   UNL     1       1.218   7.616   0.032  0.00  0.00    +0.227 C 
ATOM     23  O   UNL     1       2.431   7.621   0.029  0.00  0.00    -0.275 OA
ATOM     24  N   UNL     1       0.540   8.781   0.042  0.00  0.00    -0.285 N 
ATOM     25  H   UNL     1      -0.558   8.778  -0.032  0.00  0.00    +0.155 HD
BRANCH  24  26
ATOM     26  C   UNL     1       1.231   9.993   0.147  0.00  0.00    +0.034 A 
ATOM     27  C   UNL     1       0.674  11.053   0.849  0.00  0.00    +0.025 A 
ATOM     28  C   UNL     1       1.362  12.246   0.957  0.00  0.00    +0.034 A 
ATOM     29  C   UNL     1       2.599  12.389   0.356  0.00  0.00    +0.126 A 
ATOM     30  C   UNL     1       3.154  11.337  -0.349  0.00  0.00    +0.034 A 
ATOM     31  C   UNL     1       2.474  10.139  -0.455  0.00  0.00    +0.025 A 
BRANCH  29  32
ATOM     32  N   UNL     1       3.330  13.671   0.467  0.00  0.00    +0.056 N 
ATOM     33  O   UNL     1       4.420  13.798  -0.062  0.00  0.00    -0.126 OA
ATOM     34  O   UNL     1       2.842  14.599   1.087  0.00  0.00    -0.126 OA
ENDBRANCH  29  32
ENDBRANCH  24  26
ENDBRANCH  21  22
ENDBRANCH  20  21
ENDBRANCH   5  20
TORSDOF 8
