REMARK  Name = ZINC66606415
REMARK  2 active torsions:
REMARK  status: ('A' for Active; 'I' for Inactive)
REMARK    1  A    between atoms: C_3  and  N_22
REMARK    2  A    between atoms: C_6  and  C_7
REMARK                            x       y       z     vdW  Elec       q    Type
REMARK                         _______ _______ _______ _____ _____    ______ ____
ROOT
ATOM      1  C   UNL     1      -1.259  -0.770   0.010  0.00  0.00    +0.144 A 
ATOM      2  N   UNL     1      -1.218  -2.138   0.008  0.00  0.00    -0.306 N 
ATOM      3  H   UNL     1      -0.359  -2.589   0.002  0.00  0.00    +0.170 HD
ATOM      4  C   UNL     1      -2.348  -2.869   0.016  0.00  0.00    +0.260 A 
ATOM      5  O   UNL     1      -2.297  -4.088   0.014  0.00  0.00    -0.267 OA
ATOM      6  C   UNL     1      -3.613  -2.195   0.026  0.00  0.00    +0.076 A 
ATOM      7  C   UNL     1      -4.952  -2.793   0.030  0.00  0.00    -0.012 A 
ATOM      8  C   UNL     1      -5.994  -1.921   0.048  0.00  0.00    +0.051 A 
ATOM      9  S   UNL     1      -5.267  -0.308   0.042  0.00  0.00    -0.062 S 
ATOM     10  C   UNL     1      -3.558  -0.791   0.028  0.00  0.00    +0.117 A 
ATOM     11  N   UNL     1      -2.409  -0.129   0.025  0.00  0.00    -0.222 NA
ATOM     12  S   UNL     1      -7.702  -2.333   0.079  0.00  0.00    -0.118 S 
ATOM     13  C   UNL     1      -7.650  -4.127  -0.253  0.00  0.00    +0.075 C 
ATOM     14  C   UNL     1      -6.499  -4.705   0.583  0.00  0.00    +0.016 C 
ATOM     15  C   UNL     1      -5.153  -4.300   0.005  0.00  0.00    +0.038 C 
ENDROOT
BRANCH   1  21
ATOM     16  C   UNL     1      -0.017   1.398   0.010  0.00  0.00    +0.016 A 
ATOM     17  C   UNL     1       1.189   2.070   0.002  0.00  0.00    +0.047 A 
ATOM     18  C   UNL     1       2.374   1.341  -0.013  0.00  0.00    +0.139 A 
ATOM     19  N   UNL     1       2.359   0.017  -0.020  0.00  0.00    -0.237 NA
ATOM     20  C   UNL     1       1.232  -0.664  -0.013  0.00  0.00    +0.124 A 
ATOM     21  C   UNL     1       0.002  -0.004   0.002  0.00  0.00    +0.036 A 
BRANCH  18  22
ATOM     22  N   UNL     1       3.596   2.015  -0.022  0.00  0.00    -0.290 N 
ATOM     23  C   UNL     1       4.840   1.448  -0.139  0.00  0.00    +0.114 A 
ATOM     24  C   UNL     1       5.733   2.455  -0.101  0.00  0.00    +0.130 A 
ATOM     25  N   UNL     1       5.060   3.608   0.034  0.00  0.00    -0.244 NA
ATOM     26  C   UNL     1       3.780   3.359   0.078  0.00  0.00    +0.205 A 
ENDBRANCH  18  22
ENDBRANCH   1  21
TORSDOF 2
