REMARK  Name = ZINC09344308
REMARK  2 active torsions:
REMARK  status: ('A' for Active; 'I' for Inactive)
REMARK    1  A    between atoms: C_14  and  N_37
REMARK    2  A    between atoms: N_26  and  C_29
REMARK                            x       y       z     vdW  Elec       q    Type
REMARK                         _______ _______ _______ _____ _____    ______ ____
ROOT
ATOM      1  C   UNL     1      -1.089   1.391  -2.402  0.00  0.00    +0.039 A 
ATOM      2  C   UNL     1       0.004   2.244  -2.365  0.00  0.00    +0.116 A 
ATOM      3  N   UNL     1       1.156   1.796  -1.895  0.00  0.00    -0.223 NA
ATOM      4  C   UNL     1       1.272   0.550  -1.462  0.00  0.00    +0.218 A 
ATOM      5  N   UNL     1       0.248  -0.290  -1.483  0.00  0.00    -0.223 NA
ATOM      6  C   UNL     1      -0.932   0.094  -1.941  0.00  0.00    +0.116 A 
ATOM      7  N   UNL     1       2.493   0.115  -0.976  0.00  0.00    -0.296 N 
ATOM      8  C   UNL     1       3.623   1.036  -0.945  0.00  0.00    +0.127 C 
ATOM      9  C   UNL     1       4.835   0.423  -1.620  0.00  0.00    +0.124 C 
ATOM     10  N   UNL     1       4.984  -0.999  -1.362  0.00  0.00    -0.322 N 
ATOM     11  C   UNL     1       6.223  -1.601  -1.666  0.00  0.00    +0.033 A 
ATOM     12  C   UNL     1       7.357  -0.805  -1.752  0.00  0.00    +0.025 A 
ATOM     13  C   UNL     1       8.577  -1.377  -2.058  0.00  0.00    +0.034 A 
ATOM     14  C   UNL     1       8.660  -2.740  -2.277  0.00  0.00    +0.127 A 
ATOM     15  C   UNL     1       7.532  -3.532  -2.188  0.00  0.00    +0.038 A 
ATOM     16  C   UNL     1       6.303  -2.968  -1.877  0.00  0.00    -0.023 A 
ATOM     17  C   UNL     1       5.104  -3.873  -1.767  0.00  0.00    +0.064 C 
ATOM     18  C   UNL     1       3.802  -3.067  -1.820  0.00  0.00    +0.149 C 
ATOM     19  C   UNL     1       3.943  -1.878  -0.869  0.00  0.00    +0.115 C 
ATOM     20  C   UNL     1       2.627  -1.252  -0.499  0.00  0.00    +0.132 C 
ATOM     21  C   UNL     1       3.577  -2.570  -3.220  0.00  0.00    +0.258 C 
ATOM     22  N   UNL     1       2.496  -2.885  -3.918  0.00  0.00    -0.126 NA
ATOM     23  C   UNL     1       1.544  -3.654  -3.438  0.00  0.00    +0.339 C 
ATOM     24  O   UNL     1       0.474  -3.929  -4.206  0.00  0.00    -0.250 OA
ATOM     25  N   UNL     1       1.613  -4.180  -2.181  0.00  0.00    -0.192 N 
ATOM     26  C   UNL     1       2.658  -3.935  -1.376  0.00  0.00    +0.245 C 
ATOM     27  O   UNL     1       2.681  -4.424  -0.267  0.00  0.00    -0.274 OA
ATOM     28  O   UNL     1       4.417  -1.854  -3.730  0.00  0.00    -0.272 OA
ENDROOT
BRANCH  25  29
ATOM     29  C   UNL     1       0.569  -4.996  -1.720  0.00  0.00    +0.046 A 
ATOM     30  C   UNL     1      -0.513  -4.432  -1.057  0.00  0.00    +0.027 A 
ATOM     31  C   UNL     1      -1.540  -5.237  -0.604  0.00  0.00    +0.040 A 
ATOM     32  C   UNL     1      -1.490  -6.605  -0.810  0.00  0.00    +0.124 A 
ATOM     33  C   UNL     1      -0.412  -7.170  -1.471  0.00  0.00    +0.040 A 
ATOM     34  C   UNL     1       0.614  -6.367  -1.931  0.00  0.00    +0.027 A 
ATOM     35  F   UNL     1      -2.495  -7.391  -0.366  0.00  0.00    -0.205 F 
ENDBRANCH  25  29
BRANCH  14  36
ATOM     36  N   UNL     1       9.965  -3.354  -2.610  0.00  0.00    +0.056 N 
ATOM     37  O   UNL     1      10.955  -2.665  -2.689  0.00  0.00    -0.126 OA
ATOM     38  O   UNL     1      10.041  -4.545  -2.803  0.00  0.00    -0.126 OA
ENDBRANCH  14  36
TORSDOF 2
