REMARK  Name = ZINC39217716
REMARK  7 active torsions:
REMARK  status: ('A' for Active; 'I' for Inactive)
REMARK    1  A    between atoms: C_2  and  C_3
REMARK    2  A    between atoms: C_3  and  N_4
REMARK    3  A    between atoms: C_18  and  S_22
REMARK    4  A    between atoms: S_22  and  C_23
REMARK    5  A    between atoms: C_23  and  C_24
REMARK    6  A    between atoms: C_32  and  N_36
REMARK    7  A    between atoms: C_33  and  C_34
REMARK                            x       y       z     vdW  Elec       q    Type
REMARK                         _______ _______ _______ _____ _____    ______ ____
ROOT
ATOM      1  N   UNL     1      -1.318  -1.700  -1.126  0.00  0.00    -0.266 N 
ATOM      2  C   UNL     1      -1.813  -1.375  -2.376  0.00  0.00    +0.041 A 
ATOM      3  C   UNL     1      -2.368  -0.176  -2.826  0.00  0.00    +0.024 A 
ATOM      4  C   UNL     1      -2.787  -0.127  -4.146  0.00  0.00    +0.002 A 
ATOM      5  C   UNL     1      -2.668  -1.212  -4.992  0.00  0.00    +0.000 A 
ATOM      6  C   UNL     1      -2.118  -2.412  -4.556  0.00  0.00    +0.007 A 
ATOM      7  C   UNL     1      -1.698  -2.468  -3.244  0.00  0.00    -0.005 A 
ATOM      8  C   UNL     1      -1.072  -3.571  -2.450  0.00  0.00    +0.129 C 
ATOM      9  C   UNL     1      -0.855  -2.966  -1.078  0.00  0.00    +0.237 C 
ATOM     10  O   UNL     1      -0.361  -3.517  -0.117  0.00  0.00    -0.274 OA
ATOM     11  C   UNL     1      -2.014  -4.771  -2.350  0.00  0.00    +0.167 C 
ATOM     12  C   UNL     1      -1.913  -5.548  -3.642  0.00  0.00    +0.137 C 
ATOM     13  N   UNL     1      -2.955  -5.798  -4.376  0.00  0.00    -0.211 NA
ATOM     14  C   UNL     1      -4.178  -5.360  -4.053  0.00  0.00    +0.182 C 
ATOM     15  N   UNL     1      -4.397  -4.627  -2.970  0.00  0.00    -0.154 NA
ATOM     16  C   UNL     1      -3.425  -4.307  -2.131  0.00  0.00    +0.250 C 
ATOM     17  O   UNL     1      -3.680  -3.622  -1.160  0.00  0.00    -0.273 OA
ATOM     18  N   UNL     1      -0.664  -5.965  -4.016  0.00  0.00    -0.183 NA
ATOM     19  C   UNL     1       0.395  -5.108  -3.781  0.00  0.00    +0.122 C 
ATOM     20  C   UNL     1       0.244  -3.982  -3.042  0.00  0.00    +0.087 C 
ENDROOT
BRANCH  19  21
ATOM     21  N   UNL     1       1.628  -5.404  -4.310  0.00  0.00    -0.344 N 
ATOM     22  H   UNL     1       1.748  -6.207  -4.840  0.00  0.00    +0.144 HD
ATOM     23  H   UNL     1       2.379  -4.810  -4.152  0.00  0.00    +0.144 HD
ENDBRANCH  19  21
BRANCH  20  24
ATOM     24  C   UNL     1       1.388  -3.151  -2.817  0.00  0.00    +0.099 C 
ATOM     25  N   UNL     1       2.296  -2.491  -2.638  0.00  0.00    -0.191 NA
ENDBRANCH  20  24
BRANCH   1  26
ATOM     26  C   UNL     1      -1.293  -0.775   0.010  0.00  0.00    +0.140 C 
BRANCH  26  28
ATOM     27  C   UNL     1      -0.016   1.306   0.009  0.00  0.00    +0.005 C 
ATOM     28  C   UNL     1       0.002  -0.004   0.002  0.00  0.00    -0.015 C 
ENDBRANCH  26  28
ENDBRANCH   1  26
BRANCH  14  29
ATOM     29  S   UNL     1      -5.537  -5.768  -5.099  0.00  0.00    -0.084 S 
BRANCH  29  30
ATOM     30  C   UNL     1      -6.961  -4.984  -4.295  0.00  0.00    +0.115 C 
BRANCH  30  31
ATOM     31  C   UNL     1      -8.206  -5.260  -5.098  0.00  0.00    -0.002 A 
ATOM     32  C   UNL     1      -8.585  -4.393  -6.105  0.00  0.00    +0.007 A 
ATOM     33  C   UNL     1      -9.726  -4.645  -6.842  0.00  0.00    +0.000 A 
ATOM     34  C   UNL     1     -10.491  -5.765  -6.572  0.00  0.00    +0.003 A 
ATOM     35  C   UNL     1     -10.114  -6.634  -5.566  0.00  0.00    +0.038 A 
ATOM     36  C   UNL     1      -8.968  -6.385  -4.830  0.00  0.00    +0.127 A 
ATOM     37  F   UNL     1      -8.596  -7.235  -3.849  0.00  0.00    -0.205 F 
ENDBRANCH  30  31
ENDBRANCH  29  30
ENDBRANCH  14  29
TORSDOF 7
