REMARK  Name = ZINC40730879
REMARK  10 active torsions:
REMARK  status: ('A' for Active; 'I' for Inactive)
REMARK    1  A    between atoms: C_1  and  C_2
REMARK    2  A    between atoms: C_2  and  N_3
REMARK    3  A    between atoms: N_3  and  C_4
REMARK    4  A    between atoms: N_3  and  S_6
REMARK    5  A    between atoms: C_4  and  C_5
REMARK    6  A    between atoms: S_6  and  C_9
REMARK    7  A    between atoms: C_12  and  N_15
REMARK    8  A    between atoms: C_17  and  N_30
REMARK    9  A    between atoms: C_18  and  N_22
REMARK   10  A    between atoms: C_26  and  C_29
REMARK                            x       y       z     vdW  Elec       q    Type
REMARK                         _______ _______ _______ _____ _____    ______ ____
ROOT
ATOM      1  N   UNL     1      -4.803   3.929   3.506  0.00  0.00    -0.298 N 
ATOM      2  C   UNL     1      -6.088   4.242   3.078  0.00  0.00    +0.149 A 
ATOM      3  C   UNL     1      -6.694   5.437   3.469  0.00  0.00    +0.106 A 
ATOM      4  C   UNL     1      -7.985   5.703   3.009  0.00  0.00    +0.147 A 
ATOM      5  N   UNL     1      -8.584   4.813   2.221  0.00  0.00    -0.219 NA
ATOM      6  C   UNL     1      -7.976   3.697   1.875  0.00  0.00    +0.225 A 
ATOM      7  N   UNL     1      -6.757   3.410   2.283  0.00  0.00    -0.219 NA
ATOM      8  H   UNL     1      -4.355   4.496   4.154  0.00  0.00    +0.154 HD
ENDROOT
BRANCH   4   9
ATOM      9  N   UNL     1      -8.634   6.878   3.369  0.00  0.00    -0.313 N 
ATOM     10  C   UNL     1      -8.423   8.114   2.605  0.00  0.00    +0.106 C 
ATOM     11  C   UNL     1      -9.785   8.667   2.173  0.00  0.00    +0.019 C 
ATOM     12  C   UNL     1     -10.676   8.834   3.406  0.00  0.00    +0.006 C 
ATOM     13  C   UNL     1     -10.895   7.472   4.068  0.00  0.00    +0.003 C 
ATOM     14  C   UNL     1      -9.550   6.905   4.518  0.00  0.00    +0.109 C 
ATOM     15  C   UNL     1     -11.814   7.636   5.281  0.00  0.00    +0.009 C 
ENDBRANCH   4   9
BRANCH   1  19
ATOM     16  C   UNL     1      -2.872   0.555   2.011  0.00  0.00    +0.106 A 
ATOM     17  C   UNL     1      -3.848   1.182   1.258  0.00  0.00    +0.030 A 
ATOM     18  C   UNL     1      -4.490   2.301   1.751  0.00  0.00    +0.025 A 
ATOM     19  C   UNL     1      -4.155   2.796   3.005  0.00  0.00    +0.033 A 
ATOM     20  C   UNL     1      -3.175   2.164   3.758  0.00  0.00    +0.025 A 
ATOM     21  C   UNL     1      -2.540   1.042   3.262  0.00  0.00    +0.030 A 
BRANCH  16  22
ATOM     22  S   UNL     1      -2.055  -0.872   1.377  0.00  0.00    +0.061 S 
ATOM     23  O   UNL     1      -0.804  -0.954   2.046  0.00  0.00    -0.153 OA
ATOM     24  O   UNL     1      -2.159  -0.804  -0.038  0.00  0.00    -0.153 OA
BRANCH  22  25
ATOM     25  N   UNL     1      -2.934  -2.191   1.855  0.00  0.00    -0.177 NA
BRANCH  25  27
ATOM     26  C   UNL     1      -5.346  -2.103   1.460  0.00  0.00    +0.022 C 
ATOM     27  C   UNL     1      -4.013  -2.699   1.004  0.00  0.00    +0.106 C 
ENDBRANCH  25  27
BRANCH  25  28
ATOM     28  C   UNL     1      -2.633  -2.851   3.128  0.00  0.00    +0.106 C 
ATOM     29  C   UNL     1      -1.686  -4.027   2.881  0.00  0.00    +0.022 C 
ENDBRANCH  25  28
ENDBRANCH  22  25
ENDBRANCH  16  22
ENDBRANCH   1  19
BRANCH   3  30
ATOM     30  N   UNL     1      -6.023   6.347   4.302  0.00  0.00    -0.353 N 
ATOM     31  H   UNL     1      -5.101   6.185   4.555  0.00  0.00    +0.143 HD
ATOM     32  H   UNL     1      -6.482   7.138   4.625  0.00  0.00    +0.143 HD
ENDBRANCH   3  30
TORSDOF 7
