REMARK  Name = ZINC59005948
REMARK  6 active torsions:
REMARK  status: ('A' for Active; 'I' for Inactive)
REMARK    1  A    between atoms: C_3  and  C_6
REMARK    2  A    between atoms: N_7  and  N_8
REMARK    3  A    between atoms: C_11  and  S_14
REMARK    4  A    between atoms: S_14  and  C_15
REMARK    5  A    between atoms: C_15  and  C_16
REMARK    6  A    between atoms: N_18  and  C_19
REMARK                            x       y       z     vdW  Elec       q    Type
REMARK                         _______ _______ _______ _____ _____    ______ ____
ROOT
ATOM      1  N   UNL     1       5.588  -0.558  -0.080  0.00  0.00    -0.205 N 
ATOM      2  C   UNL     1       6.250  -1.772  -0.089  0.00  0.00    +0.232 A 
ATOM      3  N   UNL     1       5.685  -2.962  -0.087  0.00  0.00    -0.186 NA
ATOM      4  C   UNL     1       6.630  -3.908  -0.099  0.00  0.00    +0.211 A 
ATOM      5  N   UNL     1       7.809  -3.333  -0.109  0.00  0.00    -0.144 NA
ATOM      6  N   UNL     1       7.588  -1.946  -0.109  0.00  0.00    -0.245 N 
ATOM      7  H   UNL     1       6.093   0.270  -0.087  0.00  0.00    +0.177 HD
ATOM      8  H   UNL     1       8.264  -1.250  -0.119  0.00  0.00    +0.192 HD
ENDROOT
BRANCH   1  10
ATOM      9  C   UNL     1       3.565   0.618  -0.050  0.00  0.00    +0.176 C 
ATOM     10  N   UNL     1       4.187  -0.524  -0.059  0.00  0.00    -0.184 NA
BRANCH   9  13
ATOM     11  C   UNL     1      -0.015   1.345   0.003  0.00  0.00    +0.042 A 
ATOM     12  C   UNL     1       1.325   1.777  -0.017  0.00  0.00    +0.051 A 
ATOM     13  C   UNL     1       2.099   0.654  -0.028  0.00  0.00    +0.147 A 
ATOM     14  O   UNL     1       1.281  -0.418  -0.016  0.00  0.00    -0.462 OA
ATOM     15  C   UNL     1       0.003  -0.003   0.003  0.00  0.00    +0.196 A 
ENDBRANCH   9  13
ENDBRANCH   1  10
BRANCH   4  16
ATOM     16  S   UNL     1       6.339  -5.645  -0.100  0.00  0.00    -0.075 S 
BRANCH  16  17
ATOM     17  C   UNL     1       8.002  -6.369  -0.119  0.00  0.00    +0.173 C 
BRANCH  17  18
ATOM     18  C   UNL     1       7.895  -7.872  -0.121  0.00  0.00    +0.227 C 
ATOM     19  O   UNL     1       6.805  -8.403  -0.111  0.00  0.00    -0.275 OA
ATOM     20  N   UNL     1       9.012  -8.627  -0.134  0.00  0.00    -0.285 N 
ATOM     21  H   UNL     1       9.882  -8.205  -0.210  0.00  0.00    +0.155 HD
BRANCH  20  22
ATOM     22  C   UNL     1       8.916 -10.020  -0.039  0.00  0.00    +0.033 A 
ATOM     23  C   UNL     1       9.884 -10.738   0.652  0.00  0.00    +0.024 A 
ATOM     24  C   UNL     1       9.786 -12.113   0.745  0.00  0.00    +0.016 A 
ATOM     25  C   UNL     1       8.727 -12.774   0.150  0.00  0.00    +0.013 A 
ATOM     26  C   UNL     1       7.762 -12.062  -0.539  0.00  0.00    +0.016 A 
ATOM     27  C   UNL     1       7.851 -10.686  -0.630  0.00  0.00    +0.024 A 
ATOM     28  I   UNL     1       8.584 -14.860   0.292  0.00  0.00    -0.044 I 
ENDBRANCH  20  22
ENDBRANCH  17  18
ENDBRANCH  16  17
ENDBRANCH   4  16
TORSDOF 6
