REMARK  Name = ZINC04538055
REMARK  7 active torsions:
REMARK  status: ('A' for Active; 'I' for Inactive)
REMARK    1  A    between atoms: C_1  and  C_2
REMARK    2  A    between atoms: C_12  and  C_14
REMARK    3  A    between atoms: C_14  and  C_16
REMARK    4  A    between atoms: C_14  and  S_17
REMARK    5  A    between atoms: S_17  and  C_18
REMARK    6  A    between atoms: C_21  and  C_24
REMARK    7  A    between atoms: N_22  and  N_23
REMARK                            x       y       z     vdW  Elec       q    Type
REMARK                         _______ _______ _______ _____ _____    ______ ____
ROOT
ATOM      1  C   UNL     1       1.529   6.050   0.911  0.00  0.00    +0.137 C 
ATOM      2  C   UNL     1       2.429   6.142  -0.323  0.00  0.00    +0.029 C 
ENDROOT
BRANCH   1  13
ATOM      3  C   UNL     1       0.218   4.314   3.004  0.00  0.00    +0.029 C 
ATOM      4  C   UNL     1      -0.324   3.882   1.640  0.00  0.00    +0.083 C 
ATOM      5  C   UNL     1      -1.603   3.046   1.814  0.00  0.00    +0.059 C 
ATOM      6  C   UNL     1      -2.675   3.836   1.097  0.00  0.00    -0.024 A 
ATOM      7  C   UNL     1      -4.022   3.585   0.923  0.00  0.00    +0.005 A 
ATOM      8  C   UNL     1      -4.808   4.472   0.213  0.00  0.00    +0.000 A 
ATOM      9  C   UNL     1      -4.245   5.620  -0.315  0.00  0.00    +0.002 A 
ATOM     10  C   UNL     1      -2.902   5.878  -0.139  0.00  0.00    +0.024 A 
ATOM     11  C   UNL     1      -2.101   4.983   0.573  0.00  0.00    +0.040 A 
ATOM     12  N   UNL     1      -0.735   5.055   0.862  0.00  0.00    -0.267 N 
ATOM     13  C   UNL     1       0.085   6.055   0.482  0.00  0.00    +0.233 C 
ATOM     14  O   UNL     1      -0.341   6.958  -0.207  0.00  0.00    -0.274 OA
ENDBRANCH   1  13
BRANCH   1  15
ATOM     15  S   UNL     1       1.842   7.468   1.992  0.00  0.00    -0.072 S 
BRANCH  15  16
ATOM     16  C   UNL     1       3.510   7.140   2.453  0.00  0.00    +0.209 A 
ATOM     17  N   UNL     1       4.237   6.115   2.068  0.00  0.00    -0.120 NA
ATOM     18  N   UNL     1       5.411   6.185   2.587  0.00  0.00    -0.123 NA
ATOM     19  C   UNL     1       5.503   7.256   3.345  0.00  0.00    +0.217 A 
ATOM     20  N   UNL     1       4.287   7.901   3.281  0.00  0.00    -0.221 N 
BRANCH  19  21
ATOM     21  C   UNL     1       6.681   7.685   4.114  0.00  0.00    +0.173 A 
ATOM     22  C   UNL     1       7.769   6.918   4.406  0.00  0.00    +0.053 A 
ATOM     23  C   UNL     1       8.646   7.727   5.155  0.00  0.00    +0.042 A 
ATOM     24  C   UNL     1       8.060   8.934   5.283  0.00  0.00    +0.196 A 
ATOM     25  O   UNL     1       6.876   8.907   4.648  0.00  0.00    -0.460 OA
ENDBRANCH  19  21
BRANCH  20  26
ATOM     26  N   UNL     1       3.931   9.058   3.914  0.00  0.00    -0.294 N 
ATOM     27  H   UNL     1       3.535   8.867   4.822  0.00  0.00    +0.163 HD
ATOM     28  H   UNL     1       4.718   9.686   3.988  0.00  0.00    +0.163 HD
ENDBRANCH  20  26
ENDBRANCH  15  16
ENDBRANCH   1  15
TORSDOF 5
