REMARK  Name = ZINC26671872
REMARK  12 active torsions:
REMARK  status: ('A' for Active; 'I' for Inactive)
REMARK    1  A    between atoms: C_1  and  C_2
REMARK    2  A    between atoms: C_10  and  C_39
REMARK    3  A    between atoms: C_11  and  C_37
REMARK    4  A    between atoms: C_21  and  C_22
REMARK    5  A    between atoms: C_22  and  C_23
REMARK    6  A    between atoms: C_23  and  C_24
REMARK    7  A    between atoms: C_29  and  C_32
REMARK    8  A    between atoms: C_30  and  C_31
REMARK    9  A    between atoms: C_32  and  C_33
REMARK   10  A    between atoms: C_33  and  C_34
REMARK   11  A    between atoms: C_40  and  C_43
REMARK   12  A    between atoms: C_41  and  C_42
REMARK                            x       y       z     vdW  Elec       q    Type
REMARK                         _______ _______ _______ _____ _____    ______ ____
ROOT
ATOM      1  C   UNL     1      -0.659   1.562  -0.055  0.00  0.00    +0.046 C 
ATOM      2  C   UNL     1      -0.395   0.078  -0.034  0.00  0.00    -0.022 A 
ATOM      3  C   UNL     1      -0.237  -0.751  -1.163  0.00  0.00    +0.045 A 
ATOM      4  C   UNL     1      -0.304  -0.297  -2.472  0.00  0.00    +0.051 C 
ATOM      5  C   UNL     1      -0.126  -1.131  -3.583  0.00  0.00    +0.045 C 
ATOM      6  N   UNL     1       0.104  -2.445  -3.579  0.00  0.00    -0.354 N 
ATOM      7  C   UNL     1       0.224  -2.896  -4.828  0.00  0.00    +0.049 C 
ATOM      8  C   UNL     1       0.465  -4.200  -5.262  0.00  0.00    +0.052 C 
ATOM      9  C   UNL     1       0.615  -5.279  -4.397  0.00  0.00    +0.045 A 
ATOM     10  C   UNL     1       0.837  -6.596  -4.827  0.00  0.00    -0.018 A 
ATOM     11  C   UNL     1       0.931  -7.398  -3.702  0.00  0.00    +0.003 A 
ATOM     12  C   UNL     1       0.766  -6.558  -2.567  0.00  0.00    +0.049 A 
ATOM     13  N   UNL     1       0.574  -5.274  -3.021  0.00  0.00    -0.354 N 
ATOM     14  H   UNL     1       0.432  -4.493  -2.463  0.00  0.00    +0.166 HD
ATOM     15  C   UNL     1       0.801  -7.010  -1.259  0.00  0.00    +0.052 C 
ATOM     16  C   UNL     1       0.653  -6.166  -0.151  0.00  0.00    +0.045 C 
ATOM     17  N   UNL     1       0.448  -4.848  -0.147  0.00  0.00    -0.355 N 
ATOM     18  C   UNL     1       0.360  -4.399   1.105  0.00  0.00    +0.045 C 
ATOM     19  C   UNL     1       0.146  -3.084   1.533  0.00  0.00    +0.051 C 
ATOM     20  C   UNL     1      -0.032  -2.020   0.660  0.00  0.00    +0.045 A 
ATOM     21  C   UNL     1      -0.261  -0.693   1.076  0.00  0.00    -0.019 A 
ATOM     22  N   UNL     1      -0.016  -2.034  -0.717  0.00  0.00    -0.355 N 
ATOM     23  H   UNL     1       0.126  -2.814  -1.276  0.00  0.00    +0.166 HD
ATOM     24  C   UNL     1       0.523  -5.539   2.018  0.00  0.00    -0.019 C 
ATOM     25  C   UNL     1       0.703  -6.630   1.242  0.00  0.00    -0.022 C 
ATOM     26  C   UNL     1       0.913  -8.046   1.713  0.00  0.00    +0.046 C 
ATOM     27  C   UNL     1       0.951  -7.056  -6.258  0.00  0.00    +0.046 C 
ATOM     28  C   UNL     1       0.046  -1.737  -5.733  0.00  0.00    +0.003 C 
ATOM     29  C   UNL     1      -0.171  -0.660  -4.923  0.00  0.00    -0.018 C 
ATOM     30  C   UNL     1      -0.413   0.760  -5.366  0.00  0.00    +0.046 C 
ATOM     31  H   UNL     1       0.375  -4.296  -0.941  0.00  0.00    +0.166 HD
ATOM     32  H   UNL     1       0.175  -2.993  -2.783  0.00  0.00    +0.166 HD
ENDROOT
BRANCH  11  33
ATOM     33  C   UNL     1       1.158  -8.854  -3.685  0.00  0.00    +0.002 C 
ATOM     34  C   UNL     1       2.110  -9.369  -2.913  0.00  0.00    +0.009 C 
ENDBRANCH  11  33
BRANCH  28  35
ATOM     35  C   UNL     1       0.094  -1.745  -7.206  0.00  0.00    +0.002 C 
ATOM     36  C   UNL     1       0.909  -0.915  -7.849  0.00  0.00    +0.009 C 
ENDBRANCH  28  35
BRANCH  21  37
ATOM     37  C   UNL     1      -0.346  -0.214   2.502  0.00  0.00    +0.049 C 
BRANCH  37  38
ATOM     38  C   UNL     1      -1.796  -0.300   2.983  0.00  0.00    +0.130 C 
BRANCH  38  39
ATOM     39  C   UNL     1      -1.881   0.179   4.410  0.00  0.00    +0.356 C 
ATOM     40  O   UNL     1      -0.875   0.555   4.988  0.00  0.00    -0.246 OA
ATOM     41  O   UNL     1      -2.955   0.191   4.986  0.00  0.00    -0.246 OA
ENDBRANCH  38  39
ENDBRANCH  37  38
ENDBRANCH  21  37
BRANCH  24  42
ATOM     42  C   UNL     1       0.496  -5.499   3.524  0.00  0.00    +0.049 C 
BRANCH  42  43
ATOM     43  C   UNL     1       1.888  -5.141   4.050  0.00  0.00    +0.130 C 
BRANCH  43  44
ATOM     44  C   UNL     1       1.861  -5.100   5.556  0.00  0.00    +0.356 C 
ATOM     45  O   UNL     1       0.825  -5.336   6.154  0.00  0.00    -0.246 OA
ATOM     46  O   UNL     1       2.875  -4.832   6.177  0.00  0.00    -0.246 OA
ENDBRANCH  43  44
ENDBRANCH  42  43
ENDBRANCH  24  42
TORSDOF 8
