REMARK  Name = ZINC24929207
REMARK  7 active torsions:
REMARK  status: ('A' for Active; 'I' for Inactive)
REMARK    1  A    between atoms: C_5  and  C_7
REMARK    2  A    between atoms: C_7  and  C_9
REMARK    3  A    between atoms: C_7  and  N_29
REMARK    4  A    between atoms: C_9  and  N_10
REMARK    5  A    between atoms: C_11  and  C_13
REMARK    6  A    between atoms: C_13  and  N_14
REMARK    7  A    between atoms: C_21  and  C_24
REMARK                            x       y       z     vdW  Elec       q    Type
REMARK                         _______ _______ _______ _____ _____    ______ ____
ROOT
ATOM      1  N   UNL     1      -2.722   1.264  -3.249  0.00  0.00    -0.315 N 
ATOM      2  C   UNL     1      -3.640   1.515  -4.204  0.00  0.00    +0.233 C 
ATOM      3  O   UNL     1      -3.286   1.719  -5.346  0.00  0.00    -0.274 OA
ATOM      4  H   UNL     1      -3.043   1.079  -2.213  0.00  0.00    +0.149 HD
ENDROOT
BRANCH   1   5
ATOM      5  C   UNL     1      -1.298   1.239  -3.590  0.00  0.00    +0.093 C 
BRANCH   5   6
ATOM      6  C   UNL     1      -0.487   0.818  -2.363  0.00  0.00    -0.019 C 
BRANCH   6  11
ATOM      7  C   UNL     1      -1.602   2.660   0.738  0.00  0.00    +0.000 A 
ATOM      8  C   UNL     1      -0.835   3.808   0.669  0.00  0.00    +0.001 A 
ATOM      9  C   UNL     1       0.045   3.989  -0.381  0.00  0.00    +0.020 A 
ATOM     10  C   UNL     1       0.162   3.019  -1.361  0.00  0.00    +0.043 A 
ATOM     11  C   UNL     1      -0.609   1.873  -1.294  0.00  0.00    -0.041 A 
ATOM     12  C   UNL     1      -1.489   1.692  -0.243  0.00  0.00    +0.003 A 
ATOM     13 CL   UNL     1       1.272   3.243  -2.677  0.00  0.00    -0.083 Cl
ENDBRANCH   6  11
BRANCH   6  14
ATOM     14  N   UNL     1      -1.000  -0.460  -1.852  0.00  0.00    +0.385 N 
ATOM     15  C   UNL     1      -0.114  -1.003  -0.791  0.00  0.00    -0.078 C 
ATOM     16  C   UNL     1      -0.439  -2.511  -0.742  0.00  0.00    -0.020 C 
ATOM     17  C   UNL     1      -1.012  -2.840  -2.140  0.00  0.00    -0.020 C 
ATOM     18  C   UNL     1      -0.983  -1.502  -2.910  0.00  0.00    -0.078 C 
ATOM     19  H   UNL     1      -2.014  -0.239  -1.488  0.00  0.00    -0.081 HD
ENDBRANCH   6  14
ENDBRANCH   5   6
ENDBRANCH   1   5
BRANCH   2  20
ATOM     20  C   UNL     1      -5.105   1.541  -3.852  0.00  0.00    +0.221 C 
BRANCH  20  21
ATOM     21  N   UNL     1      -5.891   1.832  -5.054  0.00  0.00    -0.290 N 
ATOM     22  C   UNL     1      -6.323   0.806  -5.831  0.00  0.00    +0.203 A 
ATOM     23  N   UNL     1      -7.026   1.026  -6.910  0.00  0.00    -0.230 NA
ATOM     24  C   UNL     1      -7.341   2.264  -7.283  0.00  0.00    +0.116 A 
ATOM     25  C   UNL     1      -6.937   3.387  -6.542  0.00  0.00    +0.080 A 
ATOM     26  C   UNL     1      -6.173   3.111  -5.364  0.00  0.00    +0.263 A 
ATOM     27  O   UNL     1      -5.782   4.021  -4.653  0.00  0.00    -0.267 OA
ATOM     28  C   UNL     1      -7.364   4.672  -7.085  0.00  0.00    +0.010 A 
ATOM     29  C   UNL     1      -8.095   4.685  -8.228  0.00  0.00    +0.057 A 
ATOM     30  S   UNL     1      -8.250   2.957  -8.639  0.00  0.00    -0.076 S 
BRANCH  28  31
ATOM     31  C   UNL     1      -7.007   5.934  -6.404  0.00  0.00    +0.021 A 
ATOM     32  C   UNL     1      -6.438   7.065  -6.927  0.00  0.00    +0.016 A 
ATOM     33  C   UNL     1      -6.198   8.133  -6.088  0.00  0.00    +0.008 A 
ATOM     34  C   UNL     1      -6.521   8.028  -4.774  0.00  0.00    +0.046 A 
ATOM     35  S   UNL     1      -7.197   6.378  -4.686  0.00  0.00    -0.097 S 
ENDBRANCH  28  31
ENDBRANCH  20  21
ENDBRANCH   2  20
TORSDOF 7
