REMARK  Name = ZINC64644584
REMARK  11 active torsions:
REMARK  status: ('A' for Active; 'I' for Inactive)
REMARK    1  A    between atoms: C_1  and  C_2
REMARK    2  A    between atoms: C_2  and  C_3
REMARK    3  A    between atoms: C_2  and  C_4
REMARK    4  A    between atoms: C_2  and  N_5
REMARK    5  A    between atoms: C_6  and  C_8
REMARK    6  A    between atoms: C_8  and  N_9
REMARK    7  A    between atoms: N_9  and  C_10
REMARK    8  A    between atoms: N_13  and  C_14
REMARK    9  A    between atoms: C_14  and  C_15
REMARK   10  A    between atoms: N_19  and  C_21
REMARK   11  A    between atoms: C_21  and  C_22
REMARK                            x       y       z     vdW  Elec       q    Type
REMARK                         _______ _______ _______ _____ _____    ______ ____
ROOT
ATOM      1  N   UNL     1       4.051  -0.111  -2.677  0.00  0.00    -0.280 N 
ATOM      2  C   UNL     1       5.125  -0.892  -2.057  0.00  0.00    +0.134 C 
ATOM      3  C   UNL     1       4.328   1.073  -3.257  0.00  0.00    +0.302 C 
ATOM      4  O   UNL     1       3.437   1.722  -3.772  0.00  0.00    -0.253 OA
ATOM      5  N   UNL     1       5.593   1.540  -3.267  0.00  0.00    -0.299 N 
ATOM      6  H   UNL     1       6.303   1.023  -2.856  0.00  0.00    +0.150 HD
ENDROOT
BRANCH   1   7
ATOM      7  C   UNL     1       2.677  -0.618  -2.667  0.00  0.00    +0.204 C 
BRANCH   7   9
ATOM      8  N   UNL     1       0.688  -0.476  -1.203  0.00  0.00    -0.309 N 
ATOM      9  C   UNL     1       1.972  -0.132  -1.427  0.00  0.00    +0.231 C 
ATOM     10  O   UNL     1       2.559   0.569  -0.630  0.00  0.00    -0.274 OA
ATOM     11  H   UNL     1       0.218  -1.037  -1.840  0.00  0.00    +0.149 HD
BRANCH   8  13
ATOM     12  C   UNL     1      -0.019   1.526   0.010  0.00  0.00    +0.031 C 
ATOM     13  C   UNL     1       0.002  -0.004   0.002  0.00  0.00    +0.026 C 
ATOM     14  C   UNL     1       0.742  -0.511   1.242  0.00  0.00    +0.031 C 
ATOM     15  C   UNL     1      -1.433  -0.534   0.013  0.00  0.00    +0.031 C 
ENDBRANCH   8  13
ENDBRANCH   7   9
ENDBRANCH   1   7
BRANCH   5  16
ATOM     16  C   UNL     1       5.893   2.828  -3.897  0.00  0.00    +0.107 C 
BRANCH  16  17
ATOM     17  C   UNL     1       7.390   3.121  -3.770  0.00  0.00    -0.011 C 
ATOM     18  C   UNL     1       8.183   2.087  -4.574  0.00  0.00    +0.001 C 
ATOM     19  C   UNL     1       9.673   2.434  -4.505  0.00  0.00    -0.018 C 
ATOM     20  C   UNL     1       9.884   3.858  -5.024  0.00  0.00    -0.078 C 
ATOM     21  N   UNL     1       9.120   4.802  -4.198  0.00  0.00    +0.383 N 
ATOM     22  C   UNL     1       7.685   4.519  -4.316  0.00  0.00    -0.073 C 
ATOM     23  H   UNL     1       9.402   4.707  -3.233  0.00  0.00    -0.081 HD
BRANCH  21  24
ATOM     24  C   UNL     1       9.387   6.173  -4.651  0.00  0.00    -0.036 C 
BRANCH  24  25
ATOM     25  C   UNL     1      10.835   6.510  -4.407  0.00  0.00    -0.027 A 
ATOM     26  C   UNL     1      11.901   6.343  -5.228  0.00  0.00    +0.009 A 
ATOM     27  C   UNL     1      13.153   6.729  -4.789  0.00  0.00    +0.008 A 
ATOM     28  C   UNL     1      13.279   7.266  -3.550  0.00  0.00    +0.045 A 
ATOM     29  S   UNL     1      11.592   7.242  -2.965  0.00  0.00    -0.103 S 
ENDBRANCH  24  25
ENDBRANCH  21  24
ENDBRANCH  16  17
ENDBRANCH   5  16
TORSDOF 7
