REMARK  Name = ZINC17304460
REMARK  9 active torsions:
REMARK  status: ('A' for Active; 'I' for Inactive)
REMARK    1  A    between atoms: C_1  and  S_2
REMARK    2  A    between atoms: S_2  and  C_3
REMARK    3  A    between atoms: C_3  and  C_4
REMARK    4  A    between atoms: C_4  and  C_5
REMARK    5  A    between atoms: C_5  and  C_7
REMARK    6  A    between atoms: C_5  and  N_21
REMARK    7  A    between atoms: C_7  and  N_9
REMARK    8  A    between atoms: N_21  and  S_22
REMARK    9  A    between atoms: S_22  and  C_25
REMARK                            x       y       z     vdW  Elec       q    Type
REMARK                         _______ _______ _______ _____ _____    ______ ____
ROOT
ATOM      1  C   UNL     1       1.629  -2.382  -3.117  0.00  0.00    +0.165 C 
ENDROOT
BRANCH   1   2
ATOM      2  C   UNL     1       1.630  -3.878  -3.299  0.00  0.00    +0.258 C 
ATOM      3  O   UNL     1       0.933  -4.387  -4.156  0.00  0.00    -0.272 OA
BRANCH   2   4
ATOM      4  N   UNL     1       2.393  -4.641  -2.523  0.00  0.00    -0.145 NA
ATOM      5  C   UNL     1       2.323  -5.966  -2.618  0.00  0.00    +0.198 A 
ATOM      6  N   UNL     1       1.603  -6.652  -3.544  0.00  0.00    -0.326 N 
ATOM      7  H   UNL     1       1.057  -6.260  -4.244  0.00  0.00    +0.169 HD
ATOM      8  C   UNL     1       1.783  -8.013  -3.317  0.00  0.00    +0.065 A 
ATOM      9  C   UNL     1       1.296  -9.151  -3.945  0.00  0.00    +0.028 A 
ATOM     10  C   UNL     1       1.659 -10.400  -3.483  0.00  0.00    +0.002 A 
ATOM     11  C   UNL     1       2.508 -10.523  -2.396  0.00  0.00    +0.002 A 
ATOM     12  C   UNL     1       2.997  -9.397  -1.764  0.00  0.00    +0.028 A 
ATOM     13  C   UNL     1       2.639  -8.137  -2.221  0.00  0.00    +0.065 A 
ATOM     14  N   UNL     1       2.964  -6.849  -1.808  0.00  0.00    -0.326 N 
ATOM     15  H   UNL     1       3.547  -6.620  -1.067  0.00  0.00    +0.169 HD
ENDBRANCH   2   4
ENDBRANCH   1   2
BRANCH   1  16
ATOM     16  N   UNL     1       0.713  -1.773  -4.085  0.00  0.00    -0.178 NA
ATOM     17  H   UNL     1      -0.239  -1.952  -4.032  0.00  0.00    +0.149 HD
BRANCH  16  18
ATOM     18  S   UNL     1       1.304  -0.779  -5.271  0.00  0.00    +0.059 S 
ATOM     19  O   UNL     1       0.196  -0.410  -6.080  0.00  0.00    -0.153 OA
ATOM     20  O   UNL     1       2.127   0.181  -4.623  0.00  0.00    -0.153 OA
BRANCH  18  21
ATOM     21  C   UNL     1       2.367  -1.751  -6.285  0.00  0.00    +0.105 A 
ATOM     22  C   UNL     1       3.711  -1.853  -5.978  0.00  0.00    +0.029 A 
ATOM     23  C   UNL     1       4.545  -2.616  -6.773  0.00  0.00    +0.017 A 
ATOM     24  C   UNL     1       4.035  -3.279  -7.875  0.00  0.00    +0.018 A 
ATOM     25  C   UNL     1       2.690  -3.176  -8.181  0.00  0.00    +0.017 A 
ATOM     26  C   UNL     1       1.855  -2.417  -7.383  0.00  0.00    +0.029 A 
ATOM     27 BR   UNL     1       5.176  -4.322  -8.964  0.00  0.00    -0.050 Br
ENDBRANCH  18  21
ENDBRANCH  16  18
ENDBRANCH   1  16
BRANCH   1  28
ATOM     28  C   UNL     1       1.170  -2.042  -1.697  0.00  0.00    +0.040 C 
BRANCH  28  29
ATOM     29  C   UNL     1       1.245  -0.528  -1.487  0.00  0.00    +0.071 C 
BRANCH  29  31
ATOM     30  C   UNL     1       0.726   1.694   0.236  0.00  0.00    +0.084 C 
ATOM     31  S   UNL     1       0.567  -0.110   0.143  0.00  0.00    -0.164 S 
ENDBRANCH  29  31
ENDBRANCH  28  29
ENDBRANCH   1  28
TORSDOF 8
