REMARK  Name = ZINC35758156
REMARK  14 active torsions:
REMARK  status: ('A' for Active; 'I' for Inactive)
REMARK    1  A    between atoms: C_1  and  C_2
REMARK    2  A    between atoms: N_5  and  C_8
REMARK    3  A    between atoms: C_9  and  C_19
REMARK    4  A    between atoms: C_10  and  C_13
REMARK    5  A    between atoms: C_19  and  N_20
REMARK    6  A    between atoms: N_20  and  C_21
REMARK    7  A    between atoms: N_20  and  C_28
REMARK    8  A    between atoms: C_21  and  C_22
REMARK    9  A    between atoms: C_28  and  C_29
REMARK   10  A    between atoms: C_29  and  C_31
REMARK   11  A    between atoms: C_29  and  O_39
REMARK   12  A    between atoms: C_31  and  O_32
REMARK   13  A    between atoms: O_32  and  C_33
REMARK   14  A    between atoms: C_33  and  C_34
REMARK                            x       y       z     vdW  Elec       q    Type
REMARK                         _______ _______ _______ _____ _____    ______ ____
ROOT
ATOM      1  N   UNL     1       1.645  -4.491   1.460  0.00  0.00    +0.387 N 
ATOM      2  H   UNL     1       1.267  -5.021   0.690  0.00  0.00    -0.081 HD
ENDROOT
BRANCH   1   3
ATOM      3  C   UNL     1       0.982  -3.181   1.526  0.00  0.00    -0.035 C 
BRANCH   3   5
ATOM      4  C   UNL     1       0.041  -3.415  -0.835  0.00  0.00    +0.222 A 
ATOM      5  C   UNL     1       0.674  -2.703   0.131  0.00  0.00    +0.025 A 
ATOM      6  C   UNL     1       0.994  -1.436  -0.401  0.00  0.00    +0.117 A 
ATOM      7  N   UNL     1       0.565  -1.399  -1.641  0.00  0.00    -0.076 NA
ATOM      8  O   UNL     1      -0.037  -2.646  -1.935  0.00  0.00    -0.339 OA
BRANCH   4  13
ATOM      9  C   UNL     1      -2.625  -7.948  -2.388  0.00  0.00    +0.007 C 
ATOM     10  C   UNL     1      -1.790  -7.080  -1.445  0.00  0.00    -0.011 C 
ATOM     11  C   UNL     1      -0.482  -6.688  -2.137  0.00  0.00    +0.022 C 
ATOM     12  C   UNL     1       0.367  -5.848  -1.178  0.00  0.00    +0.108 C 
ATOM     13  N   UNL     1      -0.434  -4.708  -0.712  0.00  0.00    -0.299 N 
ATOM     14  C   UNL     1      -1.751  -4.967  -0.113  0.00  0.00    +0.108 C 
ATOM     15  C   UNL     1      -2.576  -5.817  -1.084  0.00  0.00    +0.022 C 
ENDBRANCH   4  13
BRANCH   6  16
ATOM     16  C   UNL     1       1.692  -0.339   0.315  0.00  0.00    +0.004 A 
ATOM     17  C   UNL     1       2.538   0.522  -0.380  0.00  0.00    +0.010 A 
ATOM     18  C   UNL     1       3.184   1.541   0.291  0.00  0.00    +0.001 A 
ATOM     19  C   UNL     1       2.993   1.707   1.651  0.00  0.00    +0.000 A 
ATOM     20  C   UNL     1       2.155   0.854   2.346  0.00  0.00    +0.001 A 
ATOM     21  C   UNL     1       1.500  -0.164   1.684  0.00  0.00    +0.010 A 
ENDBRANCH   6  16
ENDBRANCH   3   5
ENDBRANCH   1   3
BRANCH   1  22
ATOM     22  C   UNL     1       3.088  -4.300   1.262  0.00  0.00    -0.042 C 
BRANCH  22  23
ATOM     23  C   UNL     1       3.507  -2.983   1.864  0.00  0.00    -0.064 A 
ATOM     24  C   UNL     1       3.740  -1.893   1.046  0.00  0.00    +0.002 A 
ATOM     25  C   UNL     1       4.125  -0.685   1.598  0.00  0.00    +0.000 A 
ATOM     26  C   UNL     1       4.277  -0.568   2.967  0.00  0.00    +0.000 A 
ATOM     27  C   UNL     1       4.044  -1.658   3.784  0.00  0.00    +0.000 A 
ATOM     28  C   UNL     1       3.655  -2.865   3.233  0.00  0.00    +0.002 A 
ENDBRANCH  22  23
ENDBRANCH   1  22
BRANCH   1  29
ATOM     29  C   UNL     1       1.415  -5.220   2.715  0.00  0.00    -0.044 C 
BRANCH  29  30
ATOM     30  C   UNL     1       0.477  -6.400   2.454  0.00  0.00    +0.124 C 
BRANCH  30  31
ATOM     31  O   UNL     1       1.228  -7.502   1.941  0.00  0.00    -0.391 OA
ATOM     32  H   UNL     1       1.645  -8.045   2.623  0.00  0.00    +0.210 HD
ENDBRANCH  30  31
BRANCH  30  33
ATOM     33  C   UNL     1      -0.201  -6.811   3.763  0.00  0.00    +0.189 C 
BRANCH  33  34
ATOM     34  O   UNL     1      -1.163  -7.835   3.500  0.00  0.00    -0.370 OA
BRANCH  34  35
ATOM     35  C   UNL     1      -1.857  -8.293   4.662  0.00  0.00    +0.234 C 
BRANCH  35  36
ATOM     36  C   UNL     1      -2.840  -9.365   4.270  0.00  0.00    +0.130 A 
ATOM     37  C   UNL     1      -2.589 -10.686   4.229  0.00  0.00    +0.047 A 
ATOM     38  C   UNL     1      -3.783 -11.318   3.812  0.00  0.00    +0.041 A 
ATOM     39  C   UNL     1      -4.693 -10.345   3.624  0.00  0.00    +0.195 A 
ATOM     40  O   UNL     1      -4.118  -9.165   3.909  0.00  0.00    -0.465 OA
ENDBRANCH  35  36
ENDBRANCH  34  35
ENDBRANCH  33  34
ENDBRANCH  30  33
ENDBRANCH  29  30
ENDBRANCH   1  29
TORSDOF 13
