REMARK  Name = ZINC44166775
REMARK  6 active torsions:
REMARK  status: ('A' for Active; 'I' for Inactive)
REMARK    1  A    between atoms: C_1  and  C_2
REMARK    2  A    between atoms: C_2  and  C_4
REMARK    3  A    between atoms: C_2  and  N_14
REMARK    4  A    between atoms: C_15  and  C_17
REMARK    5  A    between atoms: C_22  and  C_25
REMARK    6  A    between atoms: C_28  and  C_31
REMARK                            x       y       z     vdW  Elec       q    Type
REMARK                         _______ _______ _______ _____ _____    ______ ____
ROOT
ATOM      1  C   UNL     1      -3.309  -1.355   1.369  0.00  0.00    +0.027 C 
ATOM      2  C   UNL     1      -4.292  -0.626   0.446  0.00  0.00    +0.062 C 
ATOM      3  S   UNL     1      -5.896  -1.483   0.530  0.00  0.00    -0.163 S 
ATOM      4  C   UNL     1      -6.179  -1.623   2.323  0.00  0.00    +0.058 C 
ATOM      5  C   UNL     1      -4.913  -2.203   2.965  0.00  0.00    -0.030 C 
ATOM      6  N   UNL     1      -3.786  -1.292   2.752  0.00  0.00    +0.392 N 
ATOM      7  H   UNL     1      -3.034  -1.546   3.374  0.00  0.00    -0.084 HD
ATOM      8  H   UNL     1      -4.079  -0.348   2.957  0.00  0.00    -0.084 HD
ENDROOT
BRANCH   5   9
ATOM      9  C   UNL     1      -5.138  -2.380   4.445  0.00  0.00    -0.061 A 
ATOM     10  C   UNL     1      -5.037  -1.292   5.293  0.00  0.00    +0.002 A 
ATOM     11  C   UNL     1      -5.243  -1.448   6.648  0.00  0.00    +0.009 A 
ATOM     12  C   UNL     1      -5.553  -2.706   7.163  0.00  0.00    -0.018 A 
ATOM     13  C   UNL     1      -5.653  -3.799   6.304  0.00  0.00    +0.009 A 
ATOM     14  C   UNL     1      -5.451  -3.630   4.949  0.00  0.00    +0.002 A 
BRANCH  12  15
ATOM     15  C   UNL     1      -5.774  -2.880   8.620  0.00  0.00    -0.018 A 
ATOM     16  C   UNL     1      -5.678  -1.787   9.477  0.00  0.00    +0.008 A 
ATOM     17  C   UNL     1      -5.886  -1.955  10.832  0.00  0.00    +0.001 A 
ATOM     18  C   UNL     1      -6.188  -3.206  11.338  0.00  0.00    +0.000 A 
ATOM     19  C   UNL     1      -6.283  -4.295  10.491  0.00  0.00    +0.001 A 
ATOM     20  C   UNL     1      -6.084  -4.138   9.134  0.00  0.00    +0.008 A 
ENDBRANCH  12  15
ENDBRANCH   5   9
BRANCH   1  22
ATOM     21  N   UNL     1      -1.314  -0.642   0.092  0.00  0.00    -0.310 N 
ATOM     22  C   UNL     1      -1.955  -0.699   1.276  0.00  0.00    +0.200 C 
ATOM     23  O   UNL     1      -1.442  -0.224   2.267  0.00  0.00    -0.278 OA
ATOM     24  H   UNL     1      -1.724  -1.022  -0.700  0.00  0.00    +0.149 HD
BRANCH  21  26
ATOM     25  C   UNL     1      -0.174   1.498  -0.231  0.00  0.00    +0.033 C 
ATOM     26  C   UNL     1       0.002  -0.004   0.002  0.00  0.00    +0.101 C 
BRANCH  26  27
ATOM     27  C   UNL     1       0.773  -0.604  -1.146  0.00  0.00    -0.020 A 
ATOM     28  C   UNL     1       0.112  -1.146  -2.205  0.00  0.00    +0.006 A 
ATOM     29  C   UNL     1       0.808  -1.705  -3.275  0.00  0.00    +0.001 A 
ATOM     30  C   UNL     1       2.169  -1.725  -3.292  0.00  0.00    +0.008 A 
ATOM     31  C   UNL     1       2.886  -1.174  -2.216  0.00  0.00    -0.018 A 
ATOM     32  C   UNL     1       2.178  -0.600  -1.131  0.00  0.00    -0.013 A 
ATOM     33  C   UNL     1       2.896  -0.044  -0.058  0.00  0.00    +0.009 A 
ATOM     34  C   UNL     1       4.256  -0.059  -0.078  0.00  0.00    +0.001 A 
ATOM     35  C   UNL     1       4.952  -0.618  -1.149  0.00  0.00    +0.001 A 
ATOM     36  C   UNL     1       4.291  -1.177  -2.199  0.00  0.00    +0.008 A 
ENDBRANCH  26  27
ENDBRANCH  21  26
ENDBRANCH   1  22
TORSDOF 5
