REMARK  Name = ZINC41253446
REMARK  8 active torsions:
REMARK  status: ('A' for Active; 'I' for Inactive)
REMARK    1  A    between atoms: C_1  and  C_2
REMARK    2  A    between atoms: C_5  and  C_34
REMARK    3  A    between atoms: C_6  and  C_8
REMARK    4  A    between atoms: N_13  and  C_15
REMARK    5  A    between atoms: C_15  and  C_16
REMARK    6  A    between atoms: C_16  and  C_17
REMARK    7  A    between atoms: C_22  and  C_25
REMARK    8  A    between atoms: C_22  and  N_28
REMARK                            x       y       z     vdW  Elec       q    Type
REMARK                         _______ _______ _______ _____ _____    ______ ____
ROOT
ATOM      1  C   UNL     1      -1.526  -8.284   3.107  0.00  0.00    +0.217 C 
ATOM      2  O   UNL     1      -0.421  -8.784   3.093  0.00  0.00    -0.276 OA
ATOM      3  N   UNL     1      -2.620  -9.066   3.022  0.00  0.00    -0.302 N 
ATOM      4  C   UNL     1      -3.966  -8.475   3.032  0.00  0.00    +0.107 C 
ATOM      5  C   UNL     1      -4.792  -9.148   4.132  0.00  0.00    +0.016 C 
ATOM      6  C   UNL     1      -4.773 -10.664   3.924  0.00  0.00    +0.015 C 
ATOM      7  C   UNL     1      -3.334 -11.176   4.019  0.00  0.00    +0.016 C 
ATOM      8  C   UNL     1      -2.491 -10.525   2.912  0.00  0.00    +0.107 C 
ENDROOT
BRANCH   6   9
ATOM      9  N   UNL     1      -5.592 -11.310   4.958  0.00  0.00    +0.389 N 
ATOM     10  C   UNL     1      -6.971 -10.817   4.867  0.00  0.00    -0.077 C 
ATOM     11  C   UNL     1      -7.810 -11.426   5.993  0.00  0.00    -0.019 C 
ATOM     12  C   UNL     1      -7.802 -12.951   5.861  0.00  0.00    -0.004 C 
ATOM     13  C   UNL     1      -6.354 -13.448   5.882  0.00  0.00    -0.019 C 
ATOM     14  C   UNL     1      -5.569 -12.764   4.760  0.00  0.00    -0.077 C 
ATOM     15  H   UNL     1      -5.218 -11.090   5.869  0.00  0.00    -0.080 HD
ENDBRANCH   6   9
BRANCH   6  16
ATOM     16  C   UNL     1      -5.333 -10.991   2.564  0.00  0.00    +0.200 C 
ATOM     17  O   UNL     1      -5.985 -10.164   1.962  0.00  0.00    -0.278 OA
ATOM     18  N   UNL     1      -5.110 -12.202   2.016  0.00  0.00    -0.330 N 
ATOM     19  H   UNL     1      -4.646 -12.886   2.524  0.00  0.00    +0.145 HD
ATOM     20  H   UNL     1      -5.413 -12.389   1.114  0.00  0.00    +0.145 HD
ENDBRANCH   6  16
BRANCH   1  21
ATOM     21  C   UNL     1      -1.675  -6.789   3.220  0.00  0.00    +0.119 C 
BRANCH  21  22
ATOM     22  C   UNL     1      -0.291  -6.143   3.301  0.00  0.00    +0.156 C 
BRANCH  22  28
ATOM     23  C   UNL     1      -0.600  -2.677   2.364  0.00  0.00    +0.092 A 
ATOM     24  C   UNL     1      -0.704  -1.994   3.599  0.00  0.00    +0.035 A 
ATOM     25  C   UNL     1      -0.667  -2.729   4.747  0.00  0.00    +0.074 A 
ATOM     26  C   UNL     1      -0.527  -4.130   4.632  0.00  0.00    +0.267 A 
ATOM     27  O   UNL     1      -0.489  -4.829   5.632  0.00  0.00    -0.266 OA
ATOM     28  N   UNL     1      -0.436  -4.689   3.410  0.00  0.00    -0.228 N 
ATOM     29  N   UNL     1      -0.478  -3.983   2.339  0.00  0.00    -0.168 NA
BRANCH  23  35
ATOM     30  C   UNL     1      -2.867  -1.559  -1.942  0.00  0.00    +0.044 C 
ATOM     31  C   UNL     1      -1.723  -1.373  -0.978  0.00  0.00    -0.050 A 
ATOM     32  C   UNL     1      -0.703  -0.489  -1.280  0.00  0.00    +0.003 A 
ATOM     33  C   UNL     1       0.349  -0.313  -0.401  0.00  0.00    +0.004 A 
ATOM     34  C   UNL     1       0.388  -1.021   0.784  0.00  0.00    -0.041 A 
ATOM     35  C   UNL     1      -0.636  -1.913   1.093  0.00  0.00    +0.005 A 
ATOM     36  C   UNL     1      -1.698  -2.082   0.206  0.00  0.00    +0.013 A 
ATOM     37  C   UNL     1       1.536  -0.829   1.741  0.00  0.00    +0.044 C 
ENDBRANCH  23  35
ENDBRANCH  22  28
ENDBRANCH  21  22
ENDBRANCH   1  21
TORSDOF 6
