REMARK  Name = ZINC06100558
REMARK  7 active torsions:
REMARK  status: ('A' for Active; 'I' for Inactive)
REMARK    1  A    between atoms: C_1  and  O_2
REMARK    2  A    between atoms: O_2  and  C_3
REMARK    3  A    between atoms: C_6  and  C_9
REMARK    4  A    between atoms: C_12  and  S_15
REMARK    5  A    between atoms: N_13  and  N_14
REMARK    6  A    between atoms: S_15  and  C_16
REMARK    7  A    between atoms: C_16  and  C_17
REMARK                            x       y       z     vdW  Elec       q    Type
REMARK                         _______ _______ _______ _____ _____    ______ ____
ROOT
ATOM      1  C   UNL     1       2.576  -2.539   4.291  0.00  0.00    +0.182 A 
ATOM      2  N   UNL     1       3.385  -1.976   5.159  0.00  0.00    -0.127 NA
ATOM      3  N   UNL     1       3.795  -2.849   6.007  0.00  0.00    -0.121 NA
ATOM      4  C   UNL     1       3.273  -4.024   5.734  0.00  0.00    +0.209 A 
ATOM      5  N   UNL     1       2.475  -3.867   4.636  0.00  0.00    -0.224 N 
ENDROOT
BRANCH   1   9
ATOM      6  C   UNL     1       0.626  -0.618   1.041  0.00  0.00    +0.120 A 
ATOM      7  C   UNL     1       1.202   0.142   2.050  0.00  0.00    +0.046 A 
ATOM      8  C   UNL     1       1.835  -0.477   3.106  0.00  0.00    +0.015 A 
ATOM      9  C   UNL     1       1.897  -1.871   3.161  0.00  0.00    +0.021 A 
ATOM     10  C   UNL     1       1.316  -2.632   2.145  0.00  0.00    +0.015 A 
ATOM     11  C   UNL     1       0.680  -2.005   1.094  0.00  0.00    +0.046 A 
BRANCH   6  13
ATOM     12  C   UNL     1      -0.017   1.425   0.010  0.00  0.00    +0.277 C 
ATOM     13  O   UNL     1       0.002  -0.004   0.002  0.00  0.00    -0.495 OA
ENDBRANCH   6  13
ENDBRANCH   1   9
BRANCH   5  14
ATOM     14  N   UNL     1       1.734  -4.828   4.010  0.00  0.00    -0.295 N 
ATOM     15  H   UNL     1       2.269  -5.284   3.286  0.00  0.00    +0.163 HD
ATOM     16  H   UNL     1       1.378  -5.500   4.674  0.00  0.00    +0.163 HD
ENDBRANCH   5  14
BRANCH   4  17
ATOM     17  S   UNL     1       3.546  -5.521   6.622  0.00  0.00    -0.078 S 
BRANCH  17  18
ATOM     18  C   UNL     1       4.683  -5.042   7.952  0.00  0.00    +0.134 C 
BRANCH  18  19
ATOM     19  C   UNL     1       5.003  -6.247   8.798  0.00  0.00    +0.070 A 
ATOM     20  C   UNL     1       4.311  -6.652   9.886  0.00  0.00    +0.116 A 
ATOM     21  N   UNL     1       4.926  -7.779  10.360  0.00  0.00    -0.305 N 
ATOM     22  C   UNL     1       4.663  -8.598  11.419  0.00  0.00    +0.112 A 
ATOM     23  C   UNL     1       5.446  -9.670  11.670  0.00  0.00    +0.058 A 
ATOM     24  C   UNL     1       6.544  -9.955  10.841  0.00  0.00    +0.025 A 
ATOM     25  C   UNL     1       6.816  -9.146   9.782  0.00  0.00    +0.048 A 
ATOM     26  C   UNL     1       5.990  -8.031   9.534  0.00  0.00    +0.138 A 
ATOM     27  N   UNL     1       6.013  -7.095   8.595  0.00  0.00    -0.232 NA
ATOM     28 CL   UNL     1       5.094 -10.699  13.023  0.00  0.00    -0.082 Cl
ENDBRANCH  18  19
ENDBRANCH  17  18
ENDBRANCH   4  17
TORSDOF 6
