REMARK  Name = ZINC40731707
REMARK  4 active torsions:
REMARK  status: ('A' for Active; 'I' for Inactive)
REMARK    1  A    between atoms: C_1  and  C_2
REMARK    2  A    between atoms: C_10  and  N_26
REMARK    3  A    between atoms: C_11  and  S_15
REMARK    4  A    between atoms: S_15  and  C_16
REMARK                            x       y       z     vdW  Elec       q    Type
REMARK                         _______ _______ _______ _____ _____    ______ ____
ROOT
ATOM      1  C   UNL     1       4.034   0.407   0.913  0.00  0.00    +0.009 C 
ATOM      2  C   UNL     1       2.582  -0.030   1.114  0.00  0.00    +0.003 C 
ATOM      3  C   UNL     1       1.738   0.439  -0.073  0.00  0.00    +0.006 C 
ATOM      4  C   UNL     1       0.279   0.031   0.143  0.00  0.00    +0.019 C 
ATOM      5  C   UNL     1       0.187  -1.496   0.229  0.00  0.00    +0.106 C 
ATOM      6  N   UNL     1       1.107  -1.967   1.273  0.00  0.00    -0.313 N 
ATOM      7  C   UNL     1       2.516  -1.558   1.211  0.00  0.00    +0.109 C 
ATOM      8  C   UNL     1       0.652  -2.785   2.300  0.00  0.00    +0.146 A 
ATOM      9  C   UNL     1       0.616  -4.172   2.139  0.00  0.00    +0.098 A 
ATOM     10  C   UNL     1       0.150  -4.947   3.203  0.00  0.00    +0.127 A 
ATOM     11  N   UNL     1      -0.238  -4.339   4.323  0.00  0.00    -0.227 NA
ATOM     12  C   UNL     1      -0.188  -3.027   4.433  0.00  0.00    +0.224 A 
ATOM     13  N   UNL     1       0.250  -2.260   3.455  0.00  0.00    -0.219 NA
ENDROOT
BRANCH   9  14
ATOM     14  N   UNL     1       1.035  -4.770   0.940  0.00  0.00    -0.353 N 
ATOM     15  H   UNL     1       1.439  -4.229   0.244  0.00  0.00    +0.142 HD
ATOM     16  H   UNL     1       0.920  -5.724   0.808  0.00  0.00    +0.142 HD
ENDBRANCH   9  14
BRANCH  10  17
ATOM     17  S   UNL     1       0.077  -6.702   3.067  0.00  0.00    -0.066 S 
BRANCH  17  18
ATOM     18  C   UNL     1      -0.676  -7.216   4.575  0.00  0.00    +0.040 A 
ATOM     19  C   UNL     1      -1.996  -7.616   4.591  0.00  0.00    +0.017 A 
ATOM     20  C   UNL     1      -2.602  -8.024   5.775  0.00  0.00    +0.002 A 
ATOM     21  C   UNL     1      -1.909  -8.039   6.948  0.00  0.00    +0.010 A 
ATOM     22  C   UNL     1      -0.563  -7.640   6.973  0.00  0.00    +0.001 A 
ATOM     23  C   UNL     1       0.069  -7.227   5.775  0.00  0.00    +0.085 A 
ATOM     24  N   UNL     1       1.350  -6.851   5.794  0.00  0.00    -0.254 NA
ATOM     25  C   UNL     1       2.047  -6.860   6.904  0.00  0.00    +0.111 A 
ATOM     26  C   UNL     1       1.489  -7.260   8.116  0.00  0.00    +0.020 A 
ATOM     27  C   UNL     1       0.179  -7.645   8.169  0.00  0.00    +0.011 A 
ENDBRANCH  17  18
ENDBRANCH  10  17
TORSDOF 3
