REMARK  Name = ZINC09610632
REMARK  8 active torsions:
REMARK  status: ('A' for Active; 'I' for Inactive)
REMARK    1  A    between atoms: C_4  and  C_7
REMARK    2  A    between atoms: C_7  and  C_9
REMARK    3  A    between atoms: C_7  and  N_25
REMARK    4  A    between atoms: N_11  and  C_12
REMARK    5  A    between atoms: C_12  and  C_13
REMARK    6  A    between atoms: C_12  and  C_19
REMARK    7  A    between atoms: N_25  and  S_26
REMARK    8  A    between atoms: S_26  and  C_29
REMARK                            x       y       z     vdW  Elec       q    Type
REMARK                         _______ _______ _______ _____ _____    ______ ____
ROOT
ATOM      1  C   UNL     1       3.711  -0.707  -0.038  0.00  0.00    +0.192 C 
ENDROOT
BRANCH   1   5
ATOM      2  C   UNL     1      -0.017   1.378   0.010  0.00  0.00    +0.000 A 
ATOM      3  C   UNL     1       1.171   2.086   0.002  0.00  0.00    +0.000 A 
ATOM      4  C   UNL     1       2.377   1.411  -0.013  0.00  0.00    +0.006 A 
ATOM      5  C   UNL     1       2.396   0.029  -0.020  0.00  0.00    -0.020 A 
ATOM      6  C   UNL     1       1.208  -0.679  -0.012  0.00  0.00    +0.006 A 
ATOM      7  C   UNL     1       0.002  -0.004   0.002  0.00  0.00    +0.000 A 
ENDBRANCH   1   5
BRANCH   1   8
ATOM      8  C   UNL     1       4.014  -1.161  -1.442  0.00  0.00    +0.237 C 
ATOM      9  O   UNL     1       4.150  -2.342  -1.682  0.00  0.00    -0.274 OA
ATOM     10  N   UNL     1       4.136  -0.254  -2.432  0.00  0.00    -0.303 N 
ATOM     11  H   UNL     1       4.027   0.691  -2.240  0.00  0.00    +0.150 HD
BRANCH  10  12
ATOM     12  C   UNL     1       4.430  -0.695  -3.798  0.00  0.00    +0.134 C 
BRANCH  12  13
ATOM     13  C   UNL     1       3.147  -1.068  -4.493  0.00  0.00    -0.023 A 
ATOM     14  C   UNL     1       2.012  -0.300  -4.309  0.00  0.00    +0.006 A 
ATOM     15  C   UNL     1       0.835  -0.643  -4.947  0.00  0.00    +0.000 A 
ATOM     16  C   UNL     1       0.792  -1.753  -5.769  0.00  0.00    +0.000 A 
ATOM     17  C   UNL     1       1.926  -2.521  -5.954  0.00  0.00    +0.000 A 
ATOM     18  C   UNL     1       3.105  -2.176  -5.319  0.00  0.00    +0.006 A 
ENDBRANCH  12  13
BRANCH  12  19
ATOM     19  C   UNL     1       5.104   0.423  -4.552  0.00  0.00    -0.023 A 
ATOM     20  C   UNL     1       4.678   1.727  -4.381  0.00  0.00    +0.006 A 
ATOM     21  C   UNL     1       5.295   2.752  -5.073  0.00  0.00    +0.000 A 
ATOM     22  C   UNL     1       6.339   2.473  -5.936  0.00  0.00    +0.000 A 
ATOM     23  C   UNL     1       6.765   1.169  -6.106  0.00  0.00    +0.000 A 
ATOM     24  C   UNL     1       6.150   0.144  -5.411  0.00  0.00    +0.006 A 
ENDBRANCH  12  19
ENDBRANCH  10  12
ENDBRANCH   1   8
BRANCH   1  25
ATOM     25  N   UNL     1       3.630  -1.873   0.845  0.00  0.00    -0.174 NA
ATOM     26  H   UNL     1       3.265  -2.708   0.513  0.00  0.00    +0.149 HD
BRANCH  25  27
ATOM     27  S   UNL     1       4.162  -1.766   2.410  0.00  0.00    +0.059 S 
ATOM     28  O   UNL     1       3.928  -3.034   3.006  0.00  0.00    -0.153 OA
ATOM     29  O   UNL     1       5.453  -1.174   2.360  0.00  0.00    -0.153 OA
BRANCH  27  30
ATOM     30  C   UNL     1       3.113  -0.619   3.239  0.00  0.00    +0.106 A 
ATOM     31  C   UNL     1       3.433   0.727   3.248  0.00  0.00    +0.030 A 
ATOM     32  C   UNL     1       2.614   1.629   3.897  0.00  0.00    +0.025 A 
ATOM     33  C   UNL     1       1.467   1.184   4.541  0.00  0.00    +0.037 A 
ATOM     34  C   UNL     1       1.148  -0.168   4.530  0.00  0.00    -0.024 A 
ATOM     35  C   UNL     1       1.969  -1.065   3.875  0.00  0.00    +0.034 A 
ATOM     36  C   UNL     1      -0.097  -0.650   5.228  0.00  0.00    +0.046 C 
ATOM     37  C   UNL     1      -0.349   0.203   6.471  0.00  0.00    +0.101 C 
ATOM     38  C   UNL     1      -0.252   1.663   6.119  0.00  0.00    +0.218 C 
ATOM     39  O   UNL     1      -0.979   2.462   6.670  0.00  0.00    -0.275 OA
ATOM     40  N   UNL     1       0.632   2.092   5.199  0.00  0.00    -0.285 N 
ATOM     41  H   UNL     1       0.691   3.038   4.992  0.00  0.00    +0.155 HD
ENDBRANCH  27  30
ENDBRANCH  25  27
ENDBRANCH   1  25
TORSDOF 8
