REMARK  Name = ZINC03042317
REMARK  5 active torsions:
REMARK  status: ('A' for Active; 'I' for Inactive)
REMARK    1  A    between atoms: N_15  and  C_17
REMARK    2  A    between atoms: C_17  and  N_19
REMARK    3  A    between atoms: N_19  and  C_20
REMARK    4  A    between atoms: C_20  and  C_21
REMARK    5  A    between atoms: N_23  and  C_24
REMARK                            x       y       z     vdW  Elec       q    Type
REMARK                         _______ _______ _______ _____ _____    ______ ____
ROOT
ATOM      1  C   UNL     1       2.885   3.869   0.488  0.00  0.00    +0.007 A 
ATOM      2  C   UNL     1       1.613   3.288   0.521  0.00  0.00    +0.022 A 
ATOM      3  C   UNL     1       1.403   2.050  -0.002  0.00  0.00    +0.027 A 
ATOM      4  N   UNL     1       2.433   1.337  -0.512  0.00  0.00    -0.312 N 
ATOM      5  C   UNL     1       3.658   1.908  -0.627  0.00  0.00    +0.251 A 
ATOM      6  O   UNL     1       4.554   1.306  -1.196  0.00  0.00    -0.268 OA
ATOM      7  C   UNL     1       3.907   3.182  -0.098  0.00  0.00    +0.070 A 
ATOM      8  C   UNL     1       2.311  -0.056  -0.943  0.00  0.00    +0.130 C 
ATOM      9  C   UNL     1       0.870  -0.470  -1.172  0.00  0.00    +0.027 C 
ATOM     10  C   UNL     1       0.004  -0.007   0.001  0.00  0.00    +0.018 C 
ATOM     11  C   UNL     1      -0.013   1.524   0.011  0.00  0.00    +0.054 C 
ATOM     12  C   UNL     1      -0.703   2.008  -1.276  0.00  0.00    +0.116 C 
ATOM     13  N   UNL     1       0.078   1.493  -2.412  0.00  0.00    -0.312 N 
ATOM     14  C   UNL     1       0.326   0.049  -2.495  0.00  0.00    +0.112 C 
ENDROOT
BRANCH  13  15
ATOM     15  C   UNL     1       0.556   2.329  -3.355  0.00  0.00    +0.133 C 
ATOM     16  S   UNL     1       1.573   1.730  -4.595  0.00  0.00    -0.019 S 
BRANCH  15  17
ATOM     17  N   UNL     1       0.232   3.637  -3.323  0.00  0.00    -0.318 N 
ATOM     18  H   UNL     1      -0.284   3.991  -2.581  0.00  0.00    +0.148 HD
BRANCH  17  19
ATOM     19  C   UNL     1       0.660   4.525  -4.407  0.00  0.00    +0.199 C 
BRANCH  19  20
ATOM     20  C   UNL     1       0.173   5.925  -4.131  0.00  0.00    +0.230 C 
ATOM     21  O   UNL     1      -0.468   6.157  -3.129  0.00  0.00    -0.274 OA
ATOM     22  N   UNL     1       0.451   6.917  -5.000  0.00  0.00    -0.311 N 
ATOM     23  H   UNL     1       0.964   6.731  -5.802  0.00  0.00    +0.149 HD
BRANCH  22  24
ATOM     24  C   UNL     1      -0.022   8.278  -4.732  0.00  0.00    +0.073 C 
ATOM     25  C   UNL     1      -1.442   8.466  -5.307  0.00  0.00    +0.022 C 
ATOM     26  C   UNL     1      -1.446   9.921  -5.839  0.00  0.00    +0.002 C 
ATOM     27  C   UNL     1      -0.022  10.073  -6.430  0.00  0.00    +0.002 C 
ATOM     28  C   UNL     1       0.880   9.300  -5.446  0.00  0.00    +0.022 C 
ENDBRANCH  22  24
ENDBRANCH  19  20
ENDBRANCH  17  19
ENDBRANCH  15  17
ENDBRANCH  13  15
TORSDOF 5
