REMARK  Name = ZINC23079718
REMARK  14 active torsions:
REMARK  status: ('A' for Active; 'I' for Inactive)
REMARK    1  A    between atoms: C_1  and  C_2
REMARK    2  A    between atoms: C_2  and  C_3
REMARK    3  A    between atoms: C_2  and  C_4
REMARK    4  A    between atoms: C_4  and  N_5
REMARK    5  A    between atoms: N_5  and  C_6
REMARK    6  A    between atoms: C_7  and  N_22
REMARK    7  A    between atoms: N_8  and  C_15
REMARK    8  A    between atoms: C_15  and  C_16
REMARK    9  A    between atoms: C_23  and  C_25
REMARK   10  A    between atoms: C_25  and  O_26
REMARK   11  A    between atoms: O_26  and  C_27
REMARK   12  A    between atoms: C_27  and  C_29
REMARK   13  A    between atoms: C_29  and  O_30
REMARK   14  A    between atoms: O_30  and  C_31
REMARK                            x       y       z     vdW  Elec       q    Type
REMARK                         _______ _______ _______ _____ _____    ______ ____
ROOT
ATOM      1  N   UNL     1      -0.063  -0.076   2.279  0.00  0.00    -0.261 N 
ATOM      2  C   UNL     1       0.002   1.207   2.692  0.00  0.00    +0.258 C 
ATOM      3  O   UNL     1      -0.649   1.570   3.649  0.00  0.00    -0.272 OA
ENDROOT
BRANCH   1   4
ATOM      4  C   UNL     1      -0.959  -0.972   2.900  0.00  0.00    +0.140 A 
ATOM      5  C   UNL     1      -0.805  -1.310   4.229  0.00  0.00    +0.128 A 
ATOM      6  N   UNL     1      -1.695  -2.186   4.806  0.00  0.00    -0.276 N 
ATOM      7  C   UNL     1      -2.702  -2.708   4.084  0.00  0.00    +0.331 A 
ATOM      8  O   UNL     1      -3.477  -3.482   4.612  0.00  0.00    -0.246 OA
ATOM      9  N   UNL     1      -2.867  -2.391   2.788  0.00  0.00    -0.273 N 
ATOM     10  H   UNL     1      -3.602  -2.781   2.288  0.00  0.00    +0.173 HD
ATOM     11  C   UNL     1      -2.028  -1.533   2.176  0.00  0.00    +0.277 A 
ATOM     12  O   UNL     1      -2.190  -1.248   1.001  0.00  0.00    -0.266 OA
BRANCH   5  13
ATOM     13  N   UNL     1       0.224  -0.776   4.967  0.00  0.00    -0.343 N 
ATOM     14  H   UNL     1       0.810  -0.112   4.573  0.00  0.00    +0.144 HD
ATOM     15  H   UNL     1       0.364  -1.065   5.883  0.00  0.00    +0.144 HD
ENDBRANCH   5  13
BRANCH   6  16
ATOM     16  C   UNL     1      -1.544  -2.553   6.217  0.00  0.00    +0.163 C 
BRANCH  16  17
ATOM     17  C   UNL     1      -2.324  -1.589   7.073  0.00  0.00    -0.028 A 
ATOM     18  C   UNL     1      -1.721  -0.437   7.542  0.00  0.00    +0.005 A 
ATOM     19  C   UNL     1      -2.437   0.448   8.327  0.00  0.00    +0.000 A 
ATOM     20  C   UNL     1      -3.756   0.180   8.643  0.00  0.00    +0.000 A 
ATOM     21  C   UNL     1      -4.359  -0.972   8.174  0.00  0.00    +0.000 A 
ATOM     22  C   UNL     1      -3.644  -1.854   7.385  0.00  0.00    +0.005 A 
ENDBRANCH  16  17
ENDBRANCH   6  16
ENDBRANCH   1   4
BRANCH   1  23
ATOM     23  C   UNL     1       0.795  -0.538   1.186  0.00  0.00    +0.117 C 
BRANCH  23  25
ATOM     24  C   UNL     1       1.846  -2.320   2.587  0.00  0.00    +0.009 C 
ATOM     25  C   UNL     1       2.114  -1.062   1.759  0.00  0.00    +0.001 C 
ATOM     26  C   UNL     1       3.070  -1.399   0.613  0.00  0.00    +0.009 C 
ENDBRANCH  23  25
ENDBRANCH   1  23
BRANCH   2  27
ATOM     27  C   UNL     1       0.885   2.188   1.965  0.00  0.00    +0.328 C 
BRANCH  27  28
ATOM     28  O   UNL     1       0.874   3.440   2.654  0.00  0.00    -0.453 OA
BRANCH  28  29
ATOM     29  C   UNL     1       1.616   4.430   2.132  0.00  0.00    +0.346 C 
ATOM     30  O   UNL     1       2.253   4.239   1.123  0.00  0.00    -0.247 OA
BRANCH  29  31
ATOM     31  C   UNL     1       1.653   5.778   2.804  0.00  0.00    +0.349 C 
BRANCH  31  32
ATOM     32  O   UNL     1       2.505   6.655   2.064  0.00  0.00    -0.481 OA
BRANCH  32  33
ATOM     33  C   UNL     1       2.650   7.920   2.539  0.00  0.00    +0.122 A 
ATOM     34  C   UNL     1       1.990   8.308   3.697  0.00  0.00    +0.046 A 
ATOM     35  C   UNL     1       2.141   9.594   4.175  0.00  0.00    +0.007 A 
ATOM     36  C   UNL     1       2.947  10.500   3.504  0.00  0.00    -0.044 A 
ATOM     37  C   UNL     1       3.605  10.115   2.351  0.00  0.00    -0.041 A 
ATOM     38  C   UNL     1       3.461   8.824   1.872  0.00  0.00    +0.049 A 
ATOM     39  C   UNL     1       4.414  11.276   1.813  0.00  0.00    +0.036 C 
ATOM     40  C   UNL     1       3.838  12.527   2.509  0.00  0.00    +0.009 C 
ATOM     41  C   UNL     1       3.269  11.945   3.820  0.00  0.00    +0.036 C 
ENDBRANCH  32  33
ENDBRANCH  31  32
ENDBRANCH  29  31
ENDBRANCH  28  29
ENDBRANCH  27  28
ENDBRANCH   2  27
TORSDOF 12
