REMARK  Name = ZINC08758269
REMARK  12 active torsions:
REMARK  status: ('A' for Active; 'I' for Inactive)
REMARK    1  A    between atoms: C_1  and  C_2
REMARK    2  A    between atoms: C_2  and  C_4
REMARK    3  A    between atoms: C_2  and  O_14
REMARK    4  A    between atoms: N_6  and  C_7
REMARK    5  A    between atoms: C_7  and  C_8
REMARK    6  A    between atoms: C_7  and  C_9
REMARK    7  A    between atoms: C_7  and  C_11
REMARK    8  A    between atoms: C_11  and  C_12
REMARK    9  A    between atoms: C_11  and  C_13
REMARK   10  A    between atoms: O_14  and  C_15
REMARK   11  A    between atoms: C_15  and  C_17
REMARK   12  A    between atoms: C_22  and  N_23
REMARK                            x       y       z     vdW  Elec       q    Type
REMARK                         _______ _______ _______ _____ _____    ______ ____
ROOT
ATOM      1  C   UNL     1      -0.026   1.581   0.051  0.00  0.00    +0.062 C 
ATOM      2  C   UNL     1       0.015   0.052   0.019  0.00  0.00    +0.259 C 
ENDROOT
BRANCH   2   3
ATOM      3  C   UNL     1       0.735  -0.406  -1.223  0.00  0.00    +0.255 C 
ATOM      4  O   UNL     1       1.788  -1.001  -1.129  0.00  0.00    -0.272 OA
ATOM      5  N   UNL     1       0.210  -0.154  -2.438  0.00  0.00    -0.294 N 
ATOM      6  H   UNL     1      -0.632   0.322  -2.514  0.00  0.00    +0.150 HD
BRANCH   5   7
ATOM      7  C   UNL     1       0.910  -0.599  -3.646  0.00  0.00    +0.121 C 
ATOM      8  C   UNL     1       2.295   0.049  -3.700  0.00  0.00    +0.048 C 
BRANCH   7   9
ATOM      9  C   UNL     1       0.107  -0.190  -4.882  0.00  0.00    +0.020 C 
ATOM     10  C   UNL     1       0.897  -0.543  -6.144  0.00  0.00    +0.010 C 
ATOM     11  C   UNL     1      -1.229  -0.935  -4.891  0.00  0.00    +0.010 C 
ENDBRANCH   7   9
BRANCH   7  12
ATOM     12  C   UNL     1       1.055  -2.064  -3.617  0.00  0.00    +0.088 C 
ATOM     13  N   UNL     1       1.167  -3.194  -3.595  0.00  0.00    -0.194 NA
ENDBRANCH   7  12
ENDBRANCH   5   7
ENDBRANCH   2   3
BRANCH   2  14
ATOM     14  O   UNL     1       0.704  -0.430   1.174  0.00  0.00    -0.449 OA
BRANCH  14  15
ATOM     15  C   UNL     1      -0.040  -0.677   2.271  0.00  0.00    +0.342 C 
ATOM     16  O   UNL     1      -1.240  -0.488   2.247  0.00  0.00    -0.245 OA
BRANCH  15  17
ATOM     17  C   UNL     1       0.603  -1.176   3.499  0.00  0.00    +0.081 A 
ATOM     18  C   UNL     1       1.960  -1.512   3.496  0.00  0.00    +0.032 A 
ATOM     19  C   UNL     1       2.554  -1.978   4.649  0.00  0.00    +0.019 A 
ATOM     20  C   UNL     1       1.814  -2.116   5.813  0.00  0.00    +0.017 A 
ATOM     21  C   UNL     1       0.474  -1.788   5.832  0.00  0.00    +0.024 A 
ATOM     22  C   UNL     1      -0.143  -1.311   4.681  0.00  0.00    +0.039 A 
ATOM     23 BR   UNL     1       4.390  -2.432   4.643  0.00  0.00    -0.050 Br
BRANCH  22  24
ATOM     24  N   UNL     1      -1.490  -0.976   4.699  0.00  0.00    -0.357 N 
ATOM     25  H   UNL     1      -1.938  -0.723   3.877  0.00  0.00    +0.142 HD
ATOM     26  H   UNL     1      -1.983  -0.994   5.534  0.00  0.00    +0.142 HD
ENDBRANCH  22  24
ENDBRANCH  15  17
ENDBRANCH  14  15
ENDBRANCH   2  14
TORSDOF 8
