REMARK  Name = ZINC15930335
REMARK  12 active torsions:
REMARK  status: ('A' for Active; 'I' for Inactive)
REMARK    1  A    between atoms: C_1  and  C_2
REMARK    2  A    between atoms: C_5  and  C_8
REMARK    3  A    between atoms: C_8  and  C_37
REMARK    4  A    between atoms: N_9  and  N_10
REMARK    5  A    between atoms: C_11  and  C_13
REMARK    6  A    between atoms: C_13  and  C_15
REMARK    7  A    between atoms: C_13  and  S_16
REMARK    8  A    between atoms: S_16  and  C_17
REMARK    9  A    between atoms: C_20  and  C_28
REMARK   10  A    between atoms: N_21  and  C_22
REMARK   11  A    between atoms: C_28  and  N_29
REMARK   12  A    between atoms: N_29  and  C_30
REMARK                            x       y       z     vdW  Elec       q    Type
REMARK                         _______ _______ _______ _____ _____    ______ ____
ROOT
ATOM      1  C   UNL     1      -2.463   5.876   0.782  0.00  0.00    +0.197 A 
ATOM      2  N   UNL     1      -1.380   6.486   0.362  0.00  0.00    -0.122 NA
ATOM      3  N   UNL     1      -1.500   7.755   0.528  0.00  0.00    -0.132 NA
ATOM      4  C   UNL     1      -2.656   8.031   1.060  0.00  0.00    +0.156 A 
ATOM      5  N   UNL     1      -3.317   6.844   1.237  0.00  0.00    -0.273 N 
ENDROOT
BRANCH   5   6
ATOM      6  C   UNL     1      -4.599   6.659   1.775  0.00  0.00    +0.050 A 
ATOM      7  C   UNL     1      -5.710   7.162   1.112  0.00  0.00    +0.026 A 
ATOM      8  C   UNL     1      -6.972   6.973   1.641  0.00  0.00    +0.002 A 
ATOM      9  C   UNL     1      -7.128   6.294   2.836  0.00  0.00    +0.000 A 
ATOM     10  C   UNL     1      -6.022   5.797   3.501  0.00  0.00    +0.002 A 
ATOM     11  C   UNL     1      -4.758   5.978   2.974  0.00  0.00    +0.026 A 
ENDBRANCH   5   6
BRANCH   1  12
ATOM     12  S   UNL     1      -2.765   4.140   0.759  0.00  0.00    -0.073 S 
BRANCH  12  13
ATOM     13  C   UNL     1      -1.214   3.562   0.027  0.00  0.00    +0.139 C 
ATOM     14  C   UNL     1      -1.102   4.081  -1.408  0.00  0.00    +0.029 C 
BRANCH  13  16
ATOM     15  N   UNL     1      -0.017   1.397   0.010  0.00  0.00    -0.206 N 
ATOM     16  C   UNL     1      -1.193   2.055   0.019  0.00  0.00    +0.245 C 
ATOM     17  O   UNL     1      -2.235   1.434   0.020  0.00  0.00    -0.273 OA
ATOM     18  H   UNL     1       0.816   1.893   0.004  0.00  0.00    +0.177 HD
BRANCH  15  20
ATOM     19  C   UNL     1       1.134  -0.637  -0.012  0.00  0.00    +0.063 C 
ATOM     20  N   UNL     1       0.002  -0.004   0.002  0.00  0.00    -0.185 NA
ATOM     21  C   UNL     1       2.429   0.134  -0.020  0.00  0.00    +0.068 C 
BRANCH  19  26
ATOM     22  C   UNL     1       1.212  -6.388  -0.044  0.00  0.00    +0.044 C 
ATOM     23  C   UNL     1       1.192  -4.881  -0.036  0.00  0.00    -0.050 A 
ATOM     24  C   UNL     1      -0.017  -4.209  -0.021  0.00  0.00    +0.004 A 
ATOM     25  C   UNL     1      -0.044  -2.830  -0.013  0.00  0.00    +0.010 A 
ATOM     26  C   UNL     1       1.154  -2.112  -0.020  0.00  0.00    -0.003 A 
ATOM     27  C   UNL     1       2.372  -2.797  -0.042  0.00  0.00    +0.010 A 
ATOM     28  C   UNL     1       2.383  -4.177  -0.044  0.00  0.00    +0.004 A 
ENDBRANCH  19  26
ENDBRANCH  15  20
ENDBRANCH  13  16
ENDBRANCH  12  13
ENDBRANCH   1  12
BRANCH   4  29
ATOM     29  C   UNL     1      -3.175   9.402   1.410  0.00  0.00    +0.178 C 
BRANCH  29  30
ATOM     30  N   UNL     1      -3.895   9.959   0.263  0.00  0.00    -0.337 N 
ATOM     31  H   UNL     1      -3.974   9.446  -0.557  0.00  0.00    +0.147 HD
BRANCH  30  32
ATOM     32  C   UNL     1      -4.470  11.230   0.349  0.00  0.00    +0.028 A 
ATOM     33  C   UNL     1      -4.364  11.964   1.523  0.00  0.00    +0.024 A 
ATOM     34  C   UNL     1      -4.927  13.222   1.603  0.00  0.00    +0.022 A 
ATOM     35  C   UNL     1      -5.608  13.747   0.519  0.00  0.00    +0.041 A 
ATOM     36  C   UNL     1      -5.721  13.016  -0.651  0.00  0.00    +0.022 A 
ATOM     37  C   UNL     1      -5.154  11.759  -0.738  0.00  0.00    +0.024 A 
ATOM     38 CL   UNL     1      -6.322  15.326   0.625  0.00  0.00    -0.084 Cl
ENDBRANCH  30  32
ENDBRANCH  29  30
ENDBRANCH   4  29
TORSDOF 9
