REMARK  Name = ZINC48653697
REMARK  6 active torsions:
REMARK  status: ('A' for Active; 'I' for Inactive)
REMARK    1  A    between atoms: C_1  and  C_2
REMARK    2  A    between atoms: C_2  and  C_3
REMARK    3  A    between atoms: C_6  and  S_8
REMARK    4  A    between atoms: S_8  and  N_11
REMARK    5  A    between atoms: N_11  and  N_12
REMARK    6  A    between atoms: C_13  and  C_15
REMARK                            x       y       z     vdW  Elec       q    Type
REMARK                         _______ _______ _______ _____ _____    ______ ____
ROOT
ATOM      1  N   UNL     1      -5.329  -3.664   1.282  0.00  0.00    -0.107 NA
ATOM      2  H   UNL     1      -5.929  -4.246   0.790  0.00  0.00    +0.172 HD
ENDROOT
BRANCH   1   3
ATOM      3  N   UNL     1      -4.362  -4.215   2.134  0.00  0.00    -0.227 N 
ATOM      4  C   UNL     1      -4.731  -5.066   3.111  0.00  0.00    +0.275 C 
ATOM      5  O   UNL     1      -5.904  -5.357   3.253  0.00  0.00    -0.267 OA
ATOM      6  H   UNL     1      -3.427  -3.983   2.020  0.00  0.00    +0.171 HD
BRANCH   4   7
ATOM      7  C   UNL     1      -3.719  -5.643   4.002  0.00  0.00    +0.104 A 
ATOM      8  C   UNL     1      -3.951  -6.527   5.034  0.00  0.00    +0.047 A 
ATOM      9  C   UNL     1      -2.712  -6.814   5.616  0.00  0.00    +0.036 A 
ATOM     10  C   UNL     1      -1.765  -6.116   4.943  0.00  0.00    +0.098 A 
ATOM     11  N   UNL     1      -2.364  -5.404   3.957  0.00  0.00    -0.356 N 
ATOM     12  H   UNL     1      -1.913  -4.822   3.325  0.00  0.00    +0.166 HD
ATOM     13 BR   UNL     1      -2.410  -7.972   7.080  0.00  0.00    -0.049 Br
ENDBRANCH   4   7
ENDBRANCH   1   3
BRANCH   1  14
ATOM     14  S   UNL     1      -5.447  -2.021   1.117  0.00  0.00    +0.080 S 
ATOM     15  O   UNL     1      -5.585  -1.489   2.427  0.00  0.00    -0.151 OA
ATOM     16  O   UNL     1      -6.404  -1.783   0.093  0.00  0.00    -0.151 OA
BRANCH  14  20
ATOM     17  C   UNL     1      -1.412  -0.526   0.013  0.00  0.00    -0.009 A 
ATOM     18  C   UNL     1      -2.221  -0.821  -1.034  0.00  0.00    +0.013 A 
ATOM     19  C   UNL     1      -3.495  -1.293  -0.784  0.00  0.00    +0.037 A 
ATOM     20  C   UNL     1      -3.899  -1.446   0.501  0.00  0.00    +0.144 A 
ATOM     21  S   UNL     1      -2.453  -0.923   1.407  0.00  0.00    -0.073 S 
BRANCH  17  23
ATOM     22  C   UNL     1      -0.019   1.526   0.010  0.00  0.00    +0.009 C 
ATOM     23  C   UNL     1       0.002  -0.004   0.002  0.00  0.00    +0.039 C 
ENDBRANCH  17  23
ENDBRANCH  14  20
ENDBRANCH   1  14
TORSDOF 5
