REMARK  Name = ZINC08901432
REMARK  6 active torsions:
REMARK  status: ('A' for Active; 'I' for Inactive)
REMARK    1  A    between atoms: C_1  and  C_2
REMARK    2  A    between atoms: C_9  and  N_14
REMARK    3  A    between atoms: C_10  and  C_11
REMARK    4  A    between atoms: C_15  and  C_17
REMARK    5  A    between atoms: C_18  and  C_19
REMARK    6  A    between atoms: C_22  and  C_24
REMARK                            x       y       z     vdW  Elec       q    Type
REMARK                         _______ _______ _______ _____ _____    ______ ____
ROOT
ATOM      1  N   UNL     1      -2.305  -5.915   0.763  0.00  0.00    -0.276 N 
ATOM      2  C   UNL     1      -3.569  -6.203   0.396  0.00  0.00    +0.242 C 
ATOM      3  O   UNL     1      -4.300  -5.319  -0.016  0.00  0.00    -0.270 OA
ATOM      4  H   UNL     1      -1.723  -6.619   1.091  0.00  0.00    +0.156 HD
ENDROOT
BRANCH   1  12
ATOM      5  C   UNL     1      -0.019   1.526   0.010  0.00  0.00    +0.008 C 
ATOM      6  C   UNL     1       0.002  -0.004   0.002  0.00  0.00    -0.009 C 
ATOM      7  C   UNL     1       0.742  -0.514   1.242  0.00  0.00    +0.008 C 
ATOM      8  C   UNL     1       0.984  -2.020   1.121  0.00  0.00    +0.037 C 
ATOM      9  C   UNL     1      -0.340  -2.706   0.809  0.00  0.00    -0.023 A 
ATOM     10  C   UNL     1      -1.390  -2.006   0.327  0.00  0.00    -0.004 A 
ATOM     11  S   UNL     1      -2.678  -3.203   0.124  0.00  0.00    -0.077 S 
ATOM     12  C   UNL     1      -1.837  -4.615   0.672  0.00  0.00    +0.085 A 
ATOM     13  C   UNL     1      -0.579  -4.127   0.999  0.00  0.00    +0.068 A 
ATOM     14  C   UNL     1      -1.437  -0.538   0.030  0.00  0.00    +0.046 C 
BRANCH  13  15
ATOM     15  C   UNL     1       0.470  -5.011   1.516  0.00  0.00    +0.244 C 
ATOM     16  O   UNL     1       0.577  -5.192   2.715  0.00  0.00    -0.270 OA
ATOM     17  N   UNL     1       1.315  -5.624   0.664  0.00  0.00    -0.325 N 
ATOM     18  H   UNL     1       1.229  -5.480  -0.292  0.00  0.00    +0.145 HD
ATOM     19  H   UNL     1       2.009  -6.210   1.006  0.00  0.00    +0.145 HD
ENDBRANCH  13  15
ENDBRANCH   1  12
BRANCH   2  20
ATOM     20  C   UNL     1      -4.047  -7.529   0.488  0.00  0.00    +0.071 C 
ATOM     21  C   UNL     1      -5.322  -7.820   0.117  0.00  0.00    +0.051 C 
BRANCH  21  22
ATOM     22  C   UNL     1      -5.800  -9.146   0.210  0.00  0.00    +0.129 A 
ATOM     23  C   UNL     1      -7.071  -9.575  -0.127  0.00  0.00    +0.050 A 
ATOM     24  C   UNL     1      -7.110 -10.950   0.115  0.00  0.00    +0.050 A 
ATOM     25  C   UNL     1      -5.872 -11.310   0.597  0.00  0.00    +0.137 A 
ATOM     26  O   UNL     1      -5.097 -10.212   0.647  0.00  0.00    -0.455 OA
BRANCH  25  27
ATOM     27  C   UNL     1      -5.463 -12.671   0.993  0.00  0.00    +0.036 A 
ATOM     28  C   UNL     1      -6.261 -13.418   1.865  0.00  0.00    +0.014 A 
ATOM     29  C   UNL     1      -5.876 -14.691   2.226  0.00  0.00    +0.021 A 
ATOM     30  C   UNL     1      -4.697 -15.228   1.737  0.00  0.00    +0.042 A 
ATOM     31  C   UNL     1      -3.898 -14.493   0.877  0.00  0.00    +0.040 A 
ATOM     32  C   UNL     1      -4.274 -13.218   0.502  0.00  0.00    +0.053 A 
ATOM     33 CL   UNL     1      -3.272 -12.297  -0.575  0.00  0.00    -0.083 Cl
ATOM     34 CL   UNL     1      -4.217 -16.830   2.203  0.00  0.00    -0.083 Cl
ENDBRANCH  25  27
ENDBRANCH  21  22
ENDBRANCH   2  20
TORSDOF 5
