REMARK  Name = ZINC25920516
REMARK  3 active torsions:
REMARK  status: ('A' for Active; 'I' for Inactive)
REMARK    1  A    between atoms: C_6  and  C_7
REMARK    2  A    between atoms: C_7  and  C_9
REMARK    3  A    between atoms: C_15  and  C_17
REMARK                            x       y       z     vdW  Elec       q    Type
REMARK                         _______ _______ _______ _____ _____    ______ ____
ROOT
ATOM      1  C   UNL     1      -5.218  -1.527   0.310  0.00  0.00    +0.063 C 
ATOM      2  C   UNL     1      -5.602  -1.226   1.761  0.00  0.00    +0.030 C 
ATOM      3  C   UNL     1      -6.468   0.037   1.804  0.00  0.00    +0.109 C 
ATOM      4  N   UNL     1      -7.614  -0.145   0.902  0.00  0.00    -0.296 N 
ATOM      5  C   UNL     1      -7.360  -0.525  -0.494  0.00  0.00    +0.109 C 
ATOM      6  C   UNL     1      -6.483  -1.781  -0.512  0.00  0.00    +0.030 C 
ATOM      7  C   UNL     1      -8.873   0.034   1.347  0.00  0.00    +0.263 C 
ATOM      8  O   UNL     1      -9.813  -0.116   0.589  0.00  0.00    -0.268 OA
ENDROOT
BRANCH   7   9
ATOM      9  C   UNL     1      -9.111   0.410   2.744  0.00  0.00    +0.103 A 
ATOM     10  C   UNL     1     -10.229   0.105   3.492  0.00  0.00    +0.052 A 
ATOM     11  C   UNL     1     -10.036   0.654   4.764  0.00  0.00    +0.059 A 
ATOM     12  C   UNL     1      -8.833   1.279   4.768  0.00  0.00    +0.103 A 
ATOM     13  N   UNL     1      -8.261   1.138   3.546  0.00  0.00    -0.356 N 
ATOM     14  H   UNL     1      -7.300   1.494   3.149  0.00  0.00    +0.166 HD
ATOM     15 CL   UNL     1     -11.142   0.557   6.098  0.00  0.00    -0.082 Cl
ENDBRANCH   7   9
BRANCH   1  16
ATOM     16  C   UNL     1      -4.337  -2.749   0.267  0.00  0.00    +0.166 C 
ATOM     17  O   UNL     1      -4.824  -3.840   0.060  0.00  0.00    -0.292 OA
BRANCH  16  23
ATOM     18  C   UNL     1      -2.325  -1.359   0.715  0.00  0.00    +0.015 A 
ATOM     19  C   UNL     1      -0.967  -1.241   0.905  0.00  0.00    +0.050 A 
ATOM     20  C   UNL     1      -0.151  -2.367   0.869  0.00  0.00    +0.162 A 
ATOM     21  C   UNL     1      -0.707  -3.624   0.633  0.00  0.00    +0.163 A 
ATOM     22  C   UNL     1      -2.068  -3.751   0.437  0.00  0.00    +0.060 A 
ATOM     23  C   UNL     1      -2.889  -2.618   0.476  0.00  0.00    +0.021 A 
ATOM     24  O   UNL     1       0.078  -4.735   0.595  0.00  0.00    -0.485 OA
ATOM     25  C   UNL     1       1.484  -4.524   0.424  0.00  0.00    +0.270 C 
ATOM     26  C   UNL     1       1.922  -3.409   1.383  0.00  0.00    +0.270 C 
ATOM     27  O   UNL     1       1.187  -2.224   1.058  0.00  0.00    -0.485 OA
ENDBRANCH  16  23
ENDBRANCH   1  16
TORSDOF 3
