REMARK  Name = ZINC43575594
REMARK  3 active torsions:
REMARK  status: ('A' for Active; 'I' for Inactive)
REMARK    1  A    between atoms: C_3  and  C_9
REMARK    2  A    between atoms: C_6  and  N_7
REMARK    3  A    between atoms: N_13  and  C_14
REMARK                            x       y       z     vdW  Elec       q    Type
REMARK                         _______ _______ _______ _____ _____    ______ ____
ROOT
ATOM      1  C   UNL     1       3.688   2.161  -0.259  0.00  0.00    +0.190 A 
ATOM      2  N   UNL     1       3.806   3.473  -0.239  0.00  0.00    -0.108 NA
ATOM      3  N   UNL     1       5.007   3.812   0.061  0.00  0.00    -0.022 NA
ATOM      4  N   UNL     1       5.739   2.769   0.254  0.00  0.00    -0.039 NA
ATOM      5  N   UNL     1       4.912   1.648   0.059  0.00  0.00    -0.192 N 
ENDROOT
BRANCH   5   6
ATOM      6  C   UNL     1       5.269   0.297   0.167  0.00  0.00    +0.072 A 
ATOM      7  C   UNL     1       4.417  -0.599   0.797  0.00  0.00    +0.048 A 
ATOM      8  C   UNL     1       4.770  -1.931   0.901  0.00  0.00    +0.044 A 
ATOM      9  C   UNL     1       5.973  -2.372   0.378  0.00  0.00    +0.040 A 
ATOM     10  C   UNL     1       6.824  -1.481  -0.251  0.00  0.00    +0.044 A 
ATOM     11  C   UNL     1       6.473  -0.148  -0.363  0.00  0.00    +0.048 A 
ATOM     12 CL   UNL     1       8.332  -2.037  -0.907  0.00  0.00    -0.083 Cl
ATOM     13 CL   UNL     1       3.705  -3.052   1.691  0.00  0.00    -0.083 Cl
ENDBRANCH   5   6
BRANCH   1  16
ATOM     14  C   UNL     1       1.368  -0.392  -1.739  0.00  0.00    +0.023 A 
ATOM     15  C   UNL     1       2.512   0.324  -1.459  0.00  0.00    +0.016 A 
ATOM     16  C   UNL     1       2.463   1.392  -0.562  0.00  0.00    +0.056 A 
ATOM     17  C   UNL     1       1.252   1.732   0.051  0.00  0.00    +0.136 A 
ATOM     18  C   UNL     1       0.111   1.010  -0.235  0.00  0.00    +0.061 A 
ATOM     19  C   UNL     1       0.165  -0.052  -1.129  0.00  0.00    +0.027 A 
ATOM     20  F   UNL     1       1.201   2.764   0.920  0.00  0.00    -0.205 F 
BRANCH  19  21
ATOM     21  N   UNL     1      -0.990  -0.779  -1.416  0.00  0.00    -0.358 N 
ATOM     22  H   UNL     1      -0.953  -1.521  -2.040  0.00  0.00    +0.142 HD
ATOM     23  H   UNL     1      -1.829  -0.543  -0.991  0.00  0.00    +0.142 HD
ENDBRANCH  19  21
ENDBRANCH   1  16
TORSDOF 3
