REMARK  Name = ZINC64845294
REMARK  8 active torsions:
REMARK  status: ('A' for Active; 'I' for Inactive)
REMARK    1  A    between atoms: C_1  and  C_2
REMARK    2  A    between atoms: C_3  and  C_25
REMARK    3  A    between atoms: C_4  and  S_8
REMARK    4  A    between atoms: C_5  and  C_7
REMARK    5  A    between atoms: S_8  and  N_11
REMARK    6  A    between atoms: N_11  and  C_12
REMARK    7  A    between atoms: C_15  and  N_18
REMARK    8  A    between atoms: C_21  and  C_24
REMARK                            x       y       z     vdW  Elec       q    Type
REMARK                         _______ _______ _______ _____ _____    ______ ____
ROOT
ATOM      1  S   UNL     1      -2.097  -3.425  -0.008  0.00  0.00    +0.093 S 
ATOM      2  O   UNL     1      -1.550  -4.620   0.533  0.00  0.00    -0.148 OA
ATOM      3  O   UNL     1      -3.236  -2.786   0.553  0.00  0.00    -0.148 OA
ENDROOT
BRANCH   1   7
ATOM      4  C   UNL     1      -0.018   1.503   0.010  0.00  0.00    +0.052 C 
ATOM      5  C   UNL     1       0.002  -0.004   0.002  0.00  0.00    -0.000 A 
ATOM      6  C   UNL     1      -1.060  -0.860   0.002  0.00  0.00    +0.057 A 
ATOM      7  C   UNL     1      -0.800  -2.233  -0.007  0.00  0.00    +0.131 A 
ATOM      8  C   UNL     1       0.502  -2.596  -0.016  0.00  0.00    +0.014 A 
ATOM      9  S   UNL     1       1.338  -1.022  -0.017  0.00  0.00    -0.096 S 
ATOM     10  C   UNL     1       1.097  -3.981  -0.027  0.00  0.00    +0.053 C 
BRANCH   6  11
ATOM     11  C   UNL     1      -2.446  -0.351   0.012  0.00  0.00    +0.170 A 
ATOM     12  C   UNL     1      -3.047   0.364  -0.980  0.00  0.00    +0.072 A 
ATOM     13  C   UNL     1      -4.358   0.650  -0.575  0.00  0.00    +0.157 A 
ATOM     14  N   UNL     1      -4.543   0.132   0.608  0.00  0.00    -0.086 NA
ATOM     15  O   UNL     1      -3.345  -0.514   1.001  0.00  0.00    -0.355 OA
ENDBRANCH   6  11
ENDBRANCH   1   7
BRANCH   1  16
ATOM     16  N   UNL     1      -2.465  -3.747  -1.590  0.00  0.00    -0.098 NA
BRANCH  16  17
ATOM     17  C   UNL     1      -3.470  -4.667  -1.899  0.00  0.00    +0.074 A 
ATOM     18  C   UNL     1      -4.164  -5.308  -0.882  0.00  0.00    +0.028 A 
ATOM     19  C   UNL     1      -5.157  -6.217  -1.192  0.00  0.00    +0.023 A 
ATOM     20  C   UNL     1      -5.460  -6.489  -2.513  0.00  0.00    +0.014 A 
ATOM     21  C   UNL     1      -4.770  -5.852  -3.529  0.00  0.00    +0.023 A 
ATOM     22  C   UNL     1      -3.780  -4.938  -3.226  0.00  0.00    +0.028 A 
BRANCH  20  23
ATOM     23  N   UNL     1      -6.465  -7.410  -2.823  0.00  0.00    -0.393 NA
ATOM     24  C   UNL     1      -5.891  -8.514  -3.603  0.00  0.00    +0.085 C 
ATOM     25  C   UNL     1      -6.969  -9.565  -3.875  0.00  0.00    +0.020 C 
ATOM     26  C   UNL     1      -8.114  -8.921  -4.664  0.00  0.00    -0.011 C 
ATOM     27  C   UNL     1      -8.655  -7.726  -3.875  0.00  0.00    +0.020 C 
ATOM     28  C   UNL     1      -7.514  -6.743  -3.603  0.00  0.00    +0.085 C 
ATOM     29  C   UNL     1      -9.231  -9.946  -4.872  0.00  0.00    +0.007 C 
ATOM     30  H   UNL     1      -6.861  -7.774  -1.970  0.00  0.00    +0.126 HD
ENDBRANCH  20  23
ENDBRANCH  16  17
ENDBRANCH   1  16
TORSDOF 5
