REMARK  Name = ZINC57174725
REMARK  6 active torsions:
REMARK  status: ('A' for Active; 'I' for Inactive)
REMARK    1  A    between atoms: C_1  and  C_2
REMARK    2  A    between atoms: C_4  and  C_17
REMARK    3  A    between atoms: N_8  and  C_11
REMARK    4  A    between atoms: C_11  and  C_12
REMARK    5  A    between atoms: C_21  and  C_28
REMARK    6  A    between atoms: C_25  and  C_27
REMARK                            x       y       z     vdW  Elec       q    Type
REMARK                         _______ _______ _______ _____ _____    ______ ____
ROOT
ATOM      1  C   UNL     1      -1.705   0.929   0.331  0.00  0.00    +0.065 C 
ATOM      2  C   UNL     1      -0.820  -0.278   0.156  0.00  0.00    +0.041 A 
ATOM      3  C   UNL     1      -0.833  -0.955  -1.055  0.00  0.00    +0.037 A 
ATOM      4  C   UNL     1      -0.017  -2.071  -1.222  0.00  0.00    +0.051 A 
ATOM      5  C   UNL     1       0.795  -2.463  -0.134  0.00  0.00    +0.051 A 
ATOM      6  C   UNL     1       1.722  -3.507   0.069  0.00  0.00    +0.145 A 
ATOM      7  N   UNL     1       2.198  -3.411   1.278  0.00  0.00    -0.177 NA
ATOM      8  N   UNL     1       1.619  -2.315   1.928  0.00  0.00    -0.241 N 
ATOM      9  C   UNL     1       0.744  -1.716   1.060  0.00  0.00    +0.159 A 
ATOM     10  N   UNL     1      -0.052  -0.660   1.152  0.00  0.00    -0.233 NA
ENDROOT
BRANCH   4  11
ATOM     11  C   UNL     1      -0.001  -2.822  -2.496  0.00  0.00    +0.248 C 
ATOM     12  O   UNL     1       0.107  -4.033  -2.487  0.00  0.00    -0.270 OA
ATOM     13  N   UNL     1      -0.105  -2.163  -3.667  0.00  0.00    -0.294 N 
ATOM     14  C   UNL     1      -0.123  -0.695  -3.701  0.00  0.00    +0.121 C 
ATOM     15  C   UNL     1       0.963  -0.210  -4.667  0.00  0.00    +0.092 C 
ATOM     16  C   UNL     1       0.759  -0.873  -6.031  0.00  0.00    +0.016 C 
ATOM     17  C   UNL     1       0.884  -2.392  -5.886  0.00  0.00    +0.023 C 
ATOM     18  C   UNL     1      -0.197  -2.901  -4.935  0.00  0.00    +0.073 C 
ATOM     19  C   UNL     1       0.013  -4.394  -4.676  0.00  0.00    +0.028 C 
BRANCH  15  20
ATOM     20  C   UNL     1       0.872   1.286  -4.816  0.00  0.00    +0.215 C 
ATOM     21  O   UNL     1       0.668   1.776  -5.906  0.00  0.00    -0.276 OA
ATOM     22  N   UNL     1       1.018   2.081  -3.737  0.00  0.00    -0.329 N 
ATOM     23  H   UNL     1       1.182   1.690  -2.865  0.00  0.00    +0.145 HD
ATOM     24  H   UNL     1       0.960   3.045  -3.833  0.00  0.00    +0.145 HD
ENDBRANCH  15  20
ENDBRANCH   4  11
BRANCH   8  25
ATOM     25  C   UNL     1       1.900  -1.883   3.299  0.00  0.00    +0.188 C 
BRANCH  25  26
ATOM     26  C   UNL     1       3.042  -0.899   3.292  0.00  0.00    +0.011 A 
ATOM     27  C   UNL     1       3.004   0.452   3.184  0.00  0.00    +0.013 A 
ATOM     28  C   UNL     1       4.192   1.159   3.202  0.00  0.00    +0.008 A 
ATOM     29  C   UNL     1       5.359   0.481   3.328  0.00  0.00    +0.045 A 
ATOM     30  S   UNL     1       4.794  -1.210   3.432  0.00  0.00    -0.100 S 
ENDBRANCH  25  26
ENDBRANCH   8  25
TORSDOF 4
