REMARK  Name = ZINC48279009
REMARK  4 active torsions:
REMARK  status: ('A' for Active; 'I' for Inactive)
REMARK    1  A    between atoms: C_10  and  N_12
REMARK    2  A    between atoms: N_15  and  S_18
REMARK    3  A    between atoms: S_18  and  C_21
REMARK    4  A    between atoms: C_24  and  C_26
REMARK                            x       y       z     vdW  Elec       q    Type
REMARK                         _______ _______ _______ _____ _____    ______ ____
ROOT
ATOM      1  N   UNL     1       4.651   0.020   0.863  0.00  0.00    -0.293 NA
ATOM      2  C   UNL     1       5.899  -0.736   1.035  0.00  0.00    +0.102 C 
ATOM      3  C   UNL     1       6.745  -0.076   2.129  0.00  0.00    +0.125 C 
ATOM      4  N   UNL     1       6.920   1.345   1.791  0.00  0.00    -0.171 NA
ATOM      5  C   UNL     1       5.723   2.136   1.470  0.00  0.00    +0.125 C 
ATOM      6  C   UNL     1       4.917   1.389   0.402  0.00  0.00    +0.102 C 
ENDROOT
BRANCH   1  16
ATOM      7  C   UNL     1       2.536  -4.339   1.798  0.00  0.00    +0.000 A 
ATOM      8  C   UNL     1       2.630  -3.172   2.533  0.00  0.00    +0.000 A 
ATOM      9  C   UNL     1       3.021  -2.003   1.915  0.00  0.00    +0.005 A 
ATOM     10  C   UNL     1       3.324  -1.988   0.559  0.00  0.00    -0.027 A 
ATOM     11  C   UNL     1       3.235  -3.151  -0.172  0.00  0.00    -0.043 A 
ATOM     12  C   UNL     1       2.837  -4.327   0.452  0.00  0.00    +0.004 A 
ATOM     13  C   UNL     1       3.563  -3.212  -1.641  0.00  0.00    +0.035 C 
ATOM     14  C   UNL     1       3.555  -1.812  -2.252  0.00  0.00    +0.006 C 
ATOM     15  C   UNL     1       4.439  -0.903  -1.390  0.00  0.00    +0.024 C 
ATOM     16  C   UNL     1       3.736  -0.675  -0.053  0.00  0.00    +0.087 C 
ENDBRANCH   1  16
BRANCH   4  17
ATOM     17  S   UNL     1       8.426   2.034   1.772  0.00  0.00    +0.094 S 
ATOM     18  O   UNL     1       8.236   3.428   1.974  0.00  0.00    -0.150 OA
ATOM     19  O   UNL     1       9.245   1.246   2.624  0.00  0.00    -0.150 OA
BRANCH  17  20
ATOM     20  C   UNL     1       9.066   1.844   0.142  0.00  0.00    +0.259 A 
ATOM     21  C   UNL     1       8.911   2.725  -0.872  0.00  0.00    +0.072 A 
ATOM     22  C   UNL     1       9.574   2.190  -1.988  0.00  0.00    +0.057 A 
ATOM     23  C   UNL     1      10.106   0.996  -1.594  0.00  0.00    +0.191 A 
ATOM     24  O   UNL     1       9.790   0.806  -0.296  0.00  0.00    -0.432 OA
BRANCH  23  25
ATOM     25  C   UNL     1      10.887   0.082  -2.433  0.00  0.00    +0.277 C 
ATOM     26  O   UNL     1      11.111   0.364  -3.595  0.00  0.00    -0.267 OA
ATOM     27  N   UNL     1      11.356  -1.072  -1.917  0.00  0.00    -0.323 N 
ATOM     28  H   UNL     1      11.177  -1.297  -0.991  0.00  0.00    +0.145 HD
ATOM     29  H   UNL     1      11.873  -1.677  -2.473  0.00  0.00    +0.145 HD
ENDBRANCH  23  25
ENDBRANCH  17  20
ENDBRANCH   4  17
TORSDOF 4
