REMARK  Name = ZINC20836494
REMARK  4 active torsions:
REMARK  status: ('A' for Active; 'I' for Inactive)
REMARK    1  A    between atoms: C_11  and  C_13
REMARK    2  A    between atoms: C_13  and  S_14
REMARK    3  A    between atoms: S_14  and  C_15
REMARK    4  A    between atoms: N_20  and  N_21
REMARK                            x       y       z     vdW  Elec       q    Type
REMARK                         _______ _______ _______ _____ _____    ______ ____
ROOT
ATOM      1  C   UNL     1       3.325   2.125   0.414  0.00  0.00    +0.211 A 
ATOM      2  N   UNL     1       2.433   1.121   0.166  0.00  0.00    -0.186 NA
ATOM      3  C   UNL     1       1.176   1.659   0.184  0.00  0.00    +0.232 A 
ATOM      4  N   UNL     1       1.288   2.942   0.428  0.00  0.00    -0.245 N 
ATOM      5  N   UNL     1       2.649   3.237   0.579  0.00  0.00    -0.144 NA
ATOM      6  N   UNL     1      -0.010   0.969  -0.025  0.00  0.00    -0.205 N 
ATOM      7  H   UNL     1       0.011  -0.113  -0.224  0.00  0.00    +0.177 HD
ATOM      8  H   UNL     1       0.388   3.573   0.480  0.00  0.00    +0.192 HD
ENDROOT
BRANCH   6   9
ATOM      9  N   UNL     1      -1.234   1.650   0.017  0.00  0.00    -0.189 NA
ATOM     10  C   UNL     1      -2.332   0.998  -0.073  0.00  0.00    +0.037 C 
ATOM     11  C   UNL     1      -2.338  -0.514  -0.083  0.00  0.00    +0.052 C 
ATOM     12  C   UNL     1      -3.337  -1.000   0.979  0.00  0.00    +0.006 C 
ATOM     13  C   UNL     1      -4.703  -0.363   0.720  0.00  0.00    +0.001 C 
ATOM     14  C   UNL     1      -4.606   1.155   0.883  0.00  0.00    +0.006 C 
ATOM     15  C   UNL     1      -3.657   1.722  -0.177  0.00  0.00    +0.052 C 
ENDBRANCH   6   9
BRANCH   1  16
ATOM     16  S   UNL     1       5.077   1.956   0.497  0.00  0.00    -0.075 S 
BRANCH  16  17
ATOM     17  C   UNL     1       5.664   3.636   0.853  0.00  0.00    +0.173 C 
BRANCH  17  28
ATOM     18  C   UNL     1       9.014   9.244  -0.704  0.00  0.00    +0.000 A 
ATOM     19  C   UNL     1       7.756   9.409  -0.154  0.00  0.00    +0.000 A 
ATOM     20  C   UNL     1       7.161   8.361   0.518  0.00  0.00    +0.005 A 
ATOM     21  C   UNL     1       7.815   7.143   0.645  0.00  0.00    -0.027 A 
ATOM     22  C   UNL     1       9.064   6.975   0.091  0.00  0.00    -0.041 A 
ATOM     23  C   UNL     1       9.662   8.033  -0.582  0.00  0.00    +0.004 A 
ATOM     24  C   UNL     1       9.829   5.680   0.177  0.00  0.00    +0.054 C 
ATOM     25  C   UNL     1       9.297   4.809   1.314  0.00  0.00    +0.113 C 
ATOM     26  N   UNL     1       7.828   4.778   1.212  0.00  0.00    -0.296 N 
ATOM     27  C   UNL     1       7.114   6.045   1.398  0.00  0.00    +0.143 C 
ATOM     28  C   UNL     1       7.168   3.632   0.952  0.00  0.00    +0.226 C 
ATOM     29  O   UNL     1       7.783   2.599   0.797  0.00  0.00    -0.275 OA
ENDBRANCH  17  28
ENDBRANCH  16  17
ENDBRANCH   1  16
TORSDOF 4
