REMARK  Name = ZINC38743632
REMARK  5 active torsions:
REMARK  status: ('A' for Active; 'I' for Inactive)
REMARK    1  A    between atoms: C_1  and  C_2
REMARK    2  A    between atoms: C_2  and  O_3
REMARK    3  A    between atoms: O_3  and  C_4
REMARK    4  A    between atoms: C_9  and  C_10
REMARK    5  A    between atoms: C_11  and  C_12
REMARK                            x       y       z     vdW  Elec       q    Type
REMARK                         _______ _______ _______ _____ _____    ______ ____
ROOT
ATOM      1  C   UNL     1       3.166  -1.043  -5.580  0.00  0.00    +0.147 C 
ATOM      2  N   UNL     1       3.055   0.265  -5.396  0.00  0.00    -0.157 NA
ATOM      3  C   UNL     1       3.530   1.155  -6.265  0.00  0.00    +0.272 C 
ATOM      4  O   UNL     1       3.413   2.353  -6.063  0.00  0.00    -0.268 OA
ATOM      5  C   UNL     1       4.214   0.645  -7.497  0.00  0.00    +0.071 C 
ATOM      6  C   UNL     1       4.705   1.361  -8.522  0.00  0.00    -0.042 C 
ATOM      7  C   UNL     1       4.496   2.865  -8.686  0.00  0.00    +0.033 C 
ATOM      8  C   UNL     1       3.872   3.076 -10.072  0.00  0.00    +0.004 C 
ATOM      9  C   UNL     1       4.721   2.395 -11.143  0.00  0.00    +0.002 C 
ATOM     10  C   UNL     1       4.752   0.878 -10.931  0.00  0.00    +0.019 C 
ATOM     11  C   UNL     1       5.452   0.586  -9.601  0.00  0.00    +0.079 C 
ATOM     12  S   UNL     1       5.149  -1.151  -9.101  0.00  0.00    -0.097 S 
ATOM     13  C   UNL     1       4.285  -0.830  -7.584  0.00  0.00    +0.112 C 
ATOM     14  N   UNL     1       3.772  -1.581  -6.644  0.00  0.00    -0.223 NA
ENDROOT
BRANCH   1  16
ATOM     15  C   UNL     1       1.985  -1.432  -3.482  0.00  0.00    +0.015 C 
ATOM     16  C   UNL     1       2.603  -1.942  -4.568  0.00  0.00    +0.046 C 
BRANCH  15  22
ATOM     17  C   UNL     1       0.777  -1.808  -1.336  0.00  0.00    +0.128 A 
ATOM     18  C   UNL     1       0.244  -2.668  -0.389  0.00  0.00    +0.046 A 
ATOM     19  C   UNL     1       0.352  -4.035  -0.555  0.00  0.00    +0.004 A 
ATOM     20  C   UNL     1       0.992  -4.559  -1.667  0.00  0.00    +0.001 A 
ATOM     21  C   UNL     1       1.527  -3.720  -2.620  0.00  0.00    +0.011 A 
ATOM     22  C   UNL     1       1.421  -2.333  -2.467  0.00  0.00    +0.017 A 
BRANCH  17  23
ATOM     23  O   UNL     1       0.671  -0.465  -1.174  0.00  0.00    -0.492 OA
BRANCH  23  25
ATOM     24  C   UNL     1      -0.019   1.526   0.010  0.00  0.00    +0.048 C 
ATOM     25  C   UNL     1       0.002  -0.004   0.002  0.00  0.00    +0.226 C 
ENDBRANCH  23  25
ENDBRANCH  17  23
ENDBRANCH  15  22
ENDBRANCH   1  16
TORSDOF 4
