REMARK  Name = ZINC28286565
REMARK  9 active torsions:
REMARK  status: ('A' for Active; 'I' for Inactive)
REMARK    1  A    between atoms: C_1  and  C_2
REMARK    2  A    between atoms: C_4  and  C_28
REMARK    3  A    between atoms: C_18  and  N_21
REMARK    4  A    between atoms: N_21  and  C_22
REMARK    5  A    between atoms: C_22  and  C_23
REMARK    6  A    between atoms: C_23  and  C_24
REMARK    7  A    between atoms: C_24  and  N_25
REMARK    8  A    between atoms: N_25  and  C_26
REMARK    9  A    between atoms: N_25  and  C_27
REMARK                            x       y       z     vdW  Elec       q    Type
REMARK                         _______ _______ _______ _____ _____    ______ ____
ROOT
ATOM      1  C   UNL     1       5.797  -3.351   0.392  0.00  0.00    +0.067 C 
ATOM      2  C   UNL     1       5.143  -2.001   0.242  0.00  0.00    +0.061 A 
ATOM      3  C   UNL     1       5.797  -0.806  -0.083  0.00  0.00    +0.048 A 
ATOM      4  C   UNL     1       4.871   0.179  -0.121  0.00  0.00    +0.045 A 
ATOM      5  N   UNL     1       3.665  -0.379   0.171  0.00  0.00    -0.206 N 
ATOM      6  N   UNL     1       3.870  -1.746   0.399  0.00  0.00    -0.169 NA
ATOM      7  C   UNL     1       2.451   0.287   0.237  0.00  0.00    +0.219 C 
ATOM      8  N   UNL     1       2.404   1.585   0.003  0.00  0.00    -0.207 NA
ATOM      9  C   UNL     1       1.195   2.181   0.002  0.00  0.00    +0.111 A 
ATOM     10  C   UNL     1      -0.019   1.524   0.010  0.00  0.00    +0.023 A 
ATOM     11  C   UNL     1      -1.179   2.303   0.020  0.00  0.00    -0.029 A 
ATOM     12  C   UNL     1      -1.024   3.656   0.014  0.00  0.00    -0.005 A 
ATOM     13  S   UNL     1       0.736   3.889  -0.004  0.00  0.00    -0.073 S 
ATOM     14  C   UNL     1      -2.096   4.697   0.019  0.00  0.00    +0.043 C 
ATOM     15  C   UNL     1      -3.429   4.019  -0.334  0.00  0.00    +0.005 C 
ATOM     16  C   UNL     1      -3.573   2.752   0.513  0.00  0.00    +0.005 C 
ATOM     17  C   UNL     1      -2.578   1.692   0.043  0.00  0.00    +0.036 C 
ATOM     18  C   UNL     1       0.002  -0.004   0.002  0.00  0.00    +0.175 C 
ATOM     19  N   UNL     1       1.307  -0.410   0.545  0.00  0.00    -0.294 N 
ATOM     20  C   UNL     1       5.129   1.631  -0.431  0.00  0.00    +0.066 C 
ATOM     21  H   UNL     1       1.379  -1.284   1.209  0.00  0.00    +0.151 HD
ENDROOT
BRANCH  18  22
ATOM     22  N   UNL     1      -0.147  -0.501  -1.372  0.00  0.00    -0.295 NA
ATOM     23  H   UNL     1      -0.503   0.313  -2.020  0.00  0.00    +0.124 HD
BRANCH  22  24
ATOM     24  C   UNL     1      -1.115  -1.606  -1.430  0.00  0.00    +0.081 C 
BRANCH  24  25
ATOM     25  C   UNL     1      -1.243  -2.096  -2.873  0.00  0.00    -0.003 C 
BRANCH  25  26
ATOM     26  C   UNL     1      -2.250  -3.246  -2.934  0.00  0.00    -0.078 C 
BRANCH  26  27
ATOM     27  N   UNL     1      -2.374  -3.717  -4.320  0.00  0.00    +0.376 N 
ATOM     28  C   UNL     1      -3.145  -4.966  -4.385  0.00  0.00    -0.097 C 
ATOM     29  C   UNL     1      -2.972  -2.684  -5.175  0.00  0.00    -0.097 C 
ATOM     30  H   UNL     1      -1.362  -3.925  -4.697  0.00  0.00    -0.083 HD
ENDBRANCH  26  27
ENDBRANCH  25  26
ENDBRANCH  24  25
ENDBRANCH  22  24
ENDBRANCH  18  22
TORSDOF 5
