REMARK  Name = ZINC08020809
REMARK  7 active torsions:
REMARK  status: ('A' for Active; 'I' for Inactive)
REMARK    1  A    between atoms: C_1  and  C_2
REMARK    2  A    between atoms: C_3  and  C_22
REMARK    3  A    between atoms: N_12  and  C_15
REMARK    4  A    between atoms: C_22  and  C_23
REMARK    5  A    between atoms: C_23  and  C_24
REMARK    6  A    between atoms: C_24  and  C_25
REMARK    7  A    between atoms: C_24  and  C_26
REMARK                            x       y       z     vdW  Elec       q    Type
REMARK                         _______ _______ _______ _____ _____    ______ ____
ROOT
ATOM      1  C   UNL     1      -0.018   1.503   0.010  0.00  0.00    +0.064 C 
ATOM      2  C   UNL     1       0.002  -0.004   0.002  0.00  0.00    +0.021 A 
ATOM      3  C   UNL     1      -1.168  -0.669   0.004  0.00  0.00    +0.019 A 
ATOM      4  C   UNL     1      -1.166  -2.090  -0.004  0.00  0.00    +0.200 A 
ATOM      5  O   UNL     1      -2.211  -2.723  -0.002  0.00  0.00    -0.287 OA
ATOM      6  C   UNL     1       0.128  -2.768  -0.014  0.00  0.00    +0.130 A 
ATOM      7  C   UNL     1       1.294  -1.998  -0.015  0.00  0.00    +0.140 A 
ATOM      8  N   UNL     1       1.201  -0.644  -0.013  0.00  0.00    -0.343 N 
ATOM      9  H   UNL     1       2.015  -0.116  -0.018  0.00  0.00    +0.167 HD
ATOM     10  N   UNL     1       2.355  -2.858  -0.026  0.00  0.00    -0.274 N 
ATOM     11  H   UNL     1       3.288  -2.593  -0.029  0.00  0.00    +0.189 HD
ATOM     12  N   UNL     1       1.892  -4.178  -0.031  0.00  0.00    -0.217 N 
ATOM     13  C   UNL     1       0.542  -4.171  -0.024  0.00  0.00    +0.285 A 
ATOM     14  O   UNL     1      -0.188  -5.144  -0.026  0.00  0.00    -0.265 OA
ENDROOT
BRANCH  12  15
ATOM     15  C   UNL     1       2.699  -5.321  -0.042  0.00  0.00    +0.067 A 
ATOM     16  C   UNL     1       2.118  -6.582  -0.053  0.00  0.00    +0.030 A 
ATOM     17  C   UNL     1       2.916  -7.710  -0.064  0.00  0.00    +0.040 A 
ATOM     18  C   UNL     1       4.295  -7.583  -0.064  0.00  0.00    +0.124 A 
ATOM     19  C   UNL     1       4.877  -6.326  -0.053  0.00  0.00    +0.040 A 
ATOM     20  C   UNL     1       4.082  -5.197  -0.048  0.00  0.00    +0.030 A 
ATOM     21  F   UNL     1       5.074  -8.687  -0.074  0.00  0.00    -0.205 F 
ENDBRANCH  12  15
BRANCH   3  22
ATOM     22  C   UNL     1      -2.471   0.087   0.015  0.00  0.00    +0.041 C 
BRANCH  22  23
ATOM     23  C   UNL     1      -2.982   0.243  -1.418  0.00  0.00    +0.008 C 
BRANCH  23  24
ATOM     24  C   UNL     1      -4.306   1.012  -1.407  0.00  0.00    -0.017 C 
ATOM     25  C   UNL     1      -4.063   2.437  -0.907  0.00  0.00    +0.007 C 
ATOM     26  C   UNL     1      -4.880   1.059  -2.825  0.00  0.00    +0.007 C 
ENDBRANCH  23  24
ENDBRANCH  22  23
ENDBRANCH   3  22
TORSDOF 4
