REMARK  Name = ZINC39631128
REMARK  11 active torsions:
REMARK  status: ('A' for Active; 'I' for Inactive)
REMARK    1  A    between atoms: C_1  and  C_2
REMARK    2  A    between atoms: C_2  and  C_4
REMARK    3  A    between atoms: C_2  and  N_11
REMARK    4  A    between atoms: C_4  and  C_5
REMARK    5  A    between atoms: C_5  and  C_6
REMARK    6  A    between atoms: C_6  and  C_7
REMARK    7  A    between atoms: C_7  and  C_8
REMARK    8  A    between atoms: C_7  and  C_9
REMARK    9  A    between atoms: C_7  and  O_10
REMARK   10  A    between atoms: C_12  and  C_14
REMARK   11  A    between atoms: C_25  and  C_27
REMARK                            x       y       z     vdW  Elec       q    Type
REMARK                         _______ _______ _______ _____ _____    ______ ____
ROOT
ATOM      1  C   UNL     1      -3.442  -1.176   1.183  0.00  0.00    +0.100 C 
ATOM      2  C   UNL     1      -4.400  -0.143   0.549  0.00  0.00    +0.121 C 
ATOM      3  N   UNL     1      -5.639  -0.238   1.355  0.00  0.00    -0.296 N 
ATOM      4  C   UNL     1      -5.161  -0.408   2.748  0.00  0.00    +0.115 C 
ATOM      5  C   UNL     1      -3.944  -1.346   2.627  0.00  0.00    -0.004 C 
ATOM      6  C   UNL     1      -2.859  -0.932   3.616  0.00  0.00    -0.010 C 
ATOM      7  C   UNL     1      -3.361  -1.166   5.044  0.00  0.00    -0.082 C 
ATOM      8  N   UNL     1      -3.697  -2.583   5.221  0.00  0.00    +0.379 N 
ATOM      9  C   UNL     1      -4.806  -2.950   4.331  0.00  0.00    -0.082 C 
ATOM     10  C   UNL     1      -4.365  -2.792   2.873  0.00  0.00    -0.010 C 
ATOM     11  C   UNL     1      -6.914  -0.183   0.920  0.00  0.00    +0.248 C 
ATOM     12  O   UNL     1      -7.148  -0.139  -0.272  0.00  0.00    -0.270 OA
ATOM     13  H   UNL     1      -2.891  -3.149   5.003  0.00  0.00    -0.086 HD
ATOM     14  H   UNL     1      -3.970  -2.746   6.179  0.00  0.00    -0.086 HD
ENDROOT
BRANCH  11  15
ATOM     15  C   UNL     1      -8.026  -0.175   1.892  0.00  0.00    +0.055 A 
ATOM     16  C   UNL     1      -7.882   0.479   3.118  0.00  0.00    +0.016 A 
ATOM     17  C   UNL     1      -8.924   0.482   4.021  0.00  0.00    +0.021 A 
ATOM     18  C   UNL     1     -10.112  -0.162   3.716  0.00  0.00    +0.042 A 
ATOM     19  C   UNL     1     -10.262  -0.812   2.503  0.00  0.00    +0.040 A 
ATOM     20  C   UNL     1      -9.229  -0.818   1.587  0.00  0.00    +0.054 A 
ATOM     21 CL   UNL     1      -9.421  -1.627   0.063  0.00  0.00    -0.083 Cl
ATOM     22 CL   UNL     1     -11.418  -0.153   4.859  0.00  0.00    -0.083 Cl
ENDBRANCH  11  15
BRANCH   1  24
ATOM     23  N   UNL     1      -0.993  -1.509   1.284  0.00  0.00    -0.312 N 
ATOM     24  C   UNL     1      -2.028  -0.653   1.178  0.00  0.00    +0.218 C 
ATOM     25  O   UNL     1      -1.823   0.538   1.078  0.00  0.00    -0.275 OA
ATOM     26  H   UNL     1      -1.157  -2.461   1.364  0.00  0.00    +0.149 HD
BRANCH  23  28
ATOM     27  C   UNL     1       0.858  -0.833  -0.166  0.00  0.00    +0.028 C 
ATOM     28  C   UNL     1       0.381  -1.000   1.279  0.00  0.00    +0.070 C 
BRANCH  28  29
ATOM     29  C   UNL     1       1.294  -1.990   2.005  0.00  0.00    +0.022 C 
BRANCH  29  30
ATOM     30  C   UNL     1       0.895  -2.063   3.481  0.00  0.00    +0.005 C 
BRANCH  30  31
ATOM     31  C   UNL     1       1.808  -3.053   4.207  0.00  0.00    +0.034 C 
BRANCH  31  32
ATOM     32  C   UNL     1       1.409  -3.126   5.682  0.00  0.00    +0.061 C 
ATOM     33  C   UNL     1       2.399  -4.019   6.434  0.00  0.00    +0.041 C 
ATOM     34  C   UNL     1       1.430  -1.721   6.287  0.00  0.00    +0.041 C 
BRANCH  32  35
ATOM     35  O   UNL     1       0.094  -3.673   5.793  0.00  0.00    -0.389 OA
ATOM     36  H   UNL     1       0.007  -4.565   5.430  0.00  0.00    +0.210 HD
ENDBRANCH  32  35
ENDBRANCH  31  32
ENDBRANCH  30  31
ENDBRANCH  29  30
ENDBRANCH  28  29
ENDBRANCH  23  28
ENDBRANCH   1  24
TORSDOF 8
