REMARK  Name = ZINC63167070
REMARK  4 active torsions:
REMARK  status: ('A' for Active; 'I' for Inactive)
REMARK    1  A    between atoms: C_1  and  N_2
REMARK    2  A    between atoms: N_2  and  C_3
REMARK    3  A    between atoms: C_3  and  C_4
REMARK    4  A    between atoms: N_10  and  C_11
REMARK                            x       y       z     vdW  Elec       q    Type
REMARK                         _______ _______ _______ _____ _____    ______ ____
ROOT
ATOM      1  C   UNL     1      -1.178  -2.135  -0.132  0.00  0.00    +0.176 C 
ATOM      2  C   UNL     1      -0.654  -2.831   1.103  0.00  0.00    +0.001 A 
ATOM      3  C   UNL     1       0.583  -2.858   1.709  0.00  0.00    +0.025 A 
ATOM      4  C   UNL     1       0.772  -3.602   2.860  0.00  0.00    +0.053 A 
ATOM      5  C   UNL     1      -0.285  -4.318   3.399  0.00  0.00    +0.139 A 
ATOM      6  C   UNL     1      -1.526  -4.291   2.792  0.00  0.00    +0.063 A 
ATOM      7  C   UNL     1      -1.722  -3.543   1.633  0.00  0.00    +0.041 A 
ATOM      8  N   UNL     1      -2.862  -3.360   0.848  0.00  0.00    -0.284 N 
ATOM      9  C   UNL     1      -2.633  -2.549  -0.203  0.00  0.00    +0.239 C 
ATOM     10  O   UNL     1      -3.437  -2.215  -1.046  0.00  0.00    -0.273 OA
ATOM     11  F   UNL     1      -0.102  -5.045   4.523  0.00  0.00    -0.204 F 
ATOM     12 BR   UNL     1       2.468  -3.642   3.695  0.00  0.00    -0.047 Br
ATOM     13  H   UNL     1      -3.721  -3.768   1.039  0.00  0.00    +0.155 HD
ENDROOT
BRANCH   1  19
ATOM     14  C   UNL     1       0.903  -2.034  -1.363  0.00  0.00    +0.041 C 
ATOM     15  C   UNL     1       1.574  -2.410  -2.686  0.00  0.00    +0.017 C 
ATOM     16  C   UNL     1       1.625  -3.935  -2.811  0.00  0.00    +0.003 C 
ATOM     17  C   UNL     1       0.203  -4.495  -2.720  0.00  0.00    +0.015 C 
ATOM     18  C   UNL     1      -0.428  -4.058  -1.397  0.00  0.00    +0.085 C 
ATOM     19  N   UNL     1      -0.455  -2.591  -1.326  0.00  0.00    -0.287 NA
BRANCH  14  20
ATOM     20  C   UNL     1       0.832  -0.510  -1.243  0.00  0.00    -0.064 C 
BRANCH  20  22
ATOM     21  C   UNL     1      -0.052   1.489  -2.231  0.00  0.00    -0.100 C 
ATOM     22  N   UNL     1      -0.067   0.021  -2.276  0.00  0.00    +0.378 N 
ATOM     23  H   UNL     1      -1.005  -0.311  -2.108  0.00  0.00    -0.086 HD
ATOM     24  H   UNL     1       0.242  -0.291  -3.184  0.00  0.00    -0.086 HD
ENDBRANCH  20  22
ENDBRANCH  14  20
ENDBRANCH   1  19
TORSDOF 3
