REMARK  Name = ZINC49099468
REMARK  4 active torsions:
REMARK  status: ('A' for Active; 'I' for Inactive)
REMARK    1  A    between atoms: C_4  and  S_7
REMARK    2  A    between atoms: S_7  and  C_8
REMARK    3  A    between atoms: C_8  and  C_9
REMARK    4  A    between atoms: C_12  and  C_14
REMARK                            x       y       z     vdW  Elec       q    Type
REMARK                         _______ _______ _______ _____ _____    ______ ____
ROOT
ATOM      1  C   UNL     1       4.560  -3.451  -0.061  0.00  0.00    +0.090 A 
ATOM      2  C   UNL     1       5.198  -3.899  -1.157  0.00  0.00    +0.221 A 
ATOM      3  O   UNL     1       6.241  -4.643  -0.737  0.00  0.00    -0.443 OA
ATOM      4  C   UNL     1       6.229  -4.640   0.607  0.00  0.00    +0.227 A 
ATOM      5  N   UNL     1       5.215  -3.914   1.014  0.00  0.00    -0.213 NA
ENDROOT
BRANCH   4   6
ATOM      6  C   UNL     1       7.199  -5.334   1.480  0.00  0.00    +0.037 A 
ATOM      7  C   UNL     1       7.073  -5.258   2.868  0.00  0.00    +0.014 A 
ATOM      8  C   UNL     1       7.981  -5.908   3.678  0.00  0.00    +0.016 A 
ATOM      9  C   UNL     1       9.017  -6.635   3.116  0.00  0.00    +0.018 A 
ATOM     10  C   UNL     1       9.149  -6.713   1.740  0.00  0.00    +0.016 A 
ATOM     11  C   UNL     1       8.242  -6.074   0.920  0.00  0.00    +0.014 A 
ATOM     12 BR   UNL     1      10.259  -7.522   4.232  0.00  0.00    -0.050 Br
ENDBRANCH   4   6
BRANCH   1  13
ATOM     13  C   UNL     1       3.332  -2.578  -0.044  0.00  0.00    +0.136 C 
BRANCH  13  14
ATOM     14  S   UNL     1       3.830  -0.833  -0.040  0.00  0.00    -0.080 S 
BRANCH  14  18
ATOM     15  C   UNL     1      -0.017   1.382   0.010  0.00  0.00    +0.039 A 
ATOM     16  C   UNL     1       1.192   2.061   0.002  0.00  0.00    +0.115 A 
ATOM     17  N   UNL     1       2.320   1.371  -0.013  0.00  0.00    -0.230 NA
ATOM     18  C   UNL     1       2.303   0.046  -0.020  0.00  0.00    +0.189 A 
ATOM     19  N   UNL     1       1.165  -0.634  -0.013  0.00  0.00    -0.230 NA
ATOM     20  C   UNL     1       0.002  -0.004   0.002  0.00  0.00    +0.115 A 
ENDBRANCH  14  18
ENDBRANCH  13  14
ENDBRANCH   1  13
TORSDOF 4
