REMARK  Name = ZINC13936086
REMARK  7 active torsions:
REMARK  status: ('A' for Active; 'I' for Inactive)
REMARK    1  A    between atoms: C_3  and  S_18
REMARK    2  A    between atoms: C_6  and  N_7
REMARK    3  A    between atoms: N_7  and  C_8
REMARK    4  A    between atoms: C_8  and  N_10
REMARK    5  A    between atoms: N_10  and  C_11
REMARK    6  A    between atoms: S_18  and  N_21
REMARK    7  A    between atoms: N_21  and  C_22
REMARK                            x       y       z     vdW  Elec       q    Type
REMARK                         _______ _______ _______ _____ _____    ______ ____
ROOT
ATOM      1  C   UNL     1       5.919  -3.227   1.313  0.00  0.00    +0.025 A 
ATOM      2  C   UNL     1       4.728  -3.753   0.852  0.00  0.00    +0.030 A 
ATOM      3  C   UNL     1       4.189  -3.305  -0.340  0.00  0.00    +0.109 A 
ATOM      4  C   UNL     1       4.842  -2.333  -1.076  0.00  0.00    +0.030 A 
ATOM      5  C   UNL     1       6.031  -1.799  -0.617  0.00  0.00    +0.025 A 
ATOM      6  C   UNL     1       6.575  -2.247   0.579  0.00  0.00    +0.033 A 
ENDROOT
BRANCH   3   7
ATOM      7  S   UNL     1       2.670  -3.979  -0.926  0.00  0.00    +0.072 S 
ATOM      8  O   UNL     1       2.478  -5.207  -0.238  0.00  0.00    -0.150 OA
ATOM      9  O   UNL     1       2.711  -3.899  -2.345  0.00  0.00    -0.150 OA
BRANCH   7  10
ATOM     10  N   UNL     1       1.460  -2.963  -0.429  0.00  0.00    -0.216 N 
ATOM     11  H   UNL     1       0.918  -2.497  -1.085  0.00  0.00    +0.174 HD
BRANCH  10  12
ATOM     12  C   UNL     1       1.219  -2.778   0.935  0.00  0.00    +0.048 A 
ATOM     13  C   UNL     1       0.991  -1.502   1.434  0.00  0.00    +0.026 A 
ATOM     14  C   UNL     1       0.754  -1.322   2.783  0.00  0.00    +0.022 A 
ATOM     15  C   UNL     1       0.744  -2.412   3.636  0.00  0.00    +0.041 A 
ATOM     16  C   UNL     1       0.971  -3.684   3.141  0.00  0.00    +0.022 A 
ATOM     17  C   UNL     1       1.209  -3.870   1.794  0.00  0.00    +0.026 A 
ATOM     18 CL   UNL     1       0.445  -2.182   5.331  0.00  0.00    -0.084 Cl
ENDBRANCH  10  12
ENDBRANCH   7  10
ENDBRANCH   3   7
BRANCH   6  19
ATOM     19  N   UNL     1       7.781  -1.712   1.045  0.00  0.00    -0.297 N 
ATOM     20  H   UNL     1       7.863  -1.435   1.971  0.00  0.00    +0.154 HD
BRANCH  19  21
ATOM     21  C   UNL     1       8.828  -1.581   0.206  0.00  0.00    +0.139 C 
ATOM     22  S   UNL     1       8.650  -1.967  -1.452  0.00  0.00    -0.018 S 
BRANCH  21  23
ATOM     23  N   UNL     1      10.015  -1.147   0.673  0.00  0.00    -0.297 N 
ATOM     24  H   UNL     1      10.131  -0.979   1.622  0.00  0.00    +0.154 HD
BRANCH  23  25
ATOM     25  C   UNL     1      11.080  -0.937  -0.210  0.00  0.00    +0.033 A 
ATOM     26  C   UNL     1      11.352  -1.866  -1.205  0.00  0.00    +0.024 A 
ATOM     27  C   UNL     1      12.400  -1.653  -2.079  0.00  0.00    +0.017 A 
ATOM     28  C   UNL     1      13.186  -0.521  -1.956  0.00  0.00    +0.018 A 
ATOM     29  C   UNL     1      12.921   0.404  -0.962  0.00  0.00    +0.017 A 
ATOM     30  C   UNL     1      11.870   0.199  -0.089  0.00  0.00    +0.024 A 
ATOM     31 BR   UNL     1      14.625  -0.238  -3.149  0.00  0.00    -0.050 Br
ENDBRANCH  23  25
ENDBRANCH  21  23
ENDBRANCH  19  21
ENDBRANCH   6  19
TORSDOF 7
