REMARK  Name = ZINC03252521
REMARK  8 active torsions:
REMARK  status: ('A' for Active; 'I' for Inactive)
REMARK    1  A    between atoms: C_10  and  C_11
REMARK    2  A    between atoms: C_11  and  C_12
REMARK    3  A    between atoms: C_15  and  S_18
REMARK    4  A    between atoms: N_16  and  N_17
REMARK    5  A    between atoms: S_18  and  C_19
REMARK    6  A    between atoms: C_19  and  C_20
REMARK    7  A    between atoms: N_22  and  C_23
REMARK    8  A    between atoms: C_28  and  C_29
REMARK                            x       y       z     vdW  Elec       q    Type
REMARK                         _______ _______ _______ _____ _____    ______ ____
ROOT
ATOM      1  C   UNL     1      -9.607   0.345   0.675  0.00  0.00    +0.155 A 
ATOM      2  N   UNL     1      -8.787  -0.665   0.612  0.00  0.00    -0.132 NA
ATOM      3  N   UNL     1      -7.577  -0.245   0.505  0.00  0.00    -0.121 NA
ATOM      4  C   UNL     1      -7.560   1.068   0.494  0.00  0.00    +0.209 A 
ATOM      5  N   UNL     1      -8.855   1.485   0.608  0.00  0.00    -0.228 N 
ENDROOT
BRANCH   5   6
ATOM      6  N   UNL     1      -9.306   2.774   0.645  0.00  0.00    -0.295 N 
ATOM      7  H   UNL     1      -9.434   3.139  -0.287  0.00  0.00    +0.163 HD
ATOM      8  H   UNL     1     -10.158   2.844   1.181  0.00  0.00    +0.163 HD
ENDBRANCH   5   6
BRANCH   1   9
ATOM      9  C   UNL     1     -11.107   0.271   0.805  0.00  0.00    +0.113 C 
BRANCH   9  19
ATOM     10  C   UNL     1     -12.146  -3.664  -2.300  0.00  0.00    +0.001 A 
ATOM     11  C   UNL     1     -11.574  -3.537  -1.035  0.00  0.00    +0.001 A 
ATOM     12  C   UNL     1     -11.427  -2.317  -0.452  0.00  0.00    +0.009 A 
ATOM     13  C   UNL     1     -11.856  -1.164  -1.132  0.00  0.00    -0.014 A 
ATOM     14  C   UNL     1     -12.437  -1.293  -2.419  0.00  0.00    -0.018 A 
ATOM     15  C   UNL     1     -12.573  -2.571  -2.989  0.00  0.00    +0.008 A 
ATOM     16  C   UNL     1     -12.867  -0.141  -3.099  0.00  0.00    +0.008 A 
ATOM     17  C   UNL     1     -12.720   1.080  -2.515  0.00  0.00    +0.001 A 
ATOM     18  C   UNL     1     -12.155   1.206  -1.248  0.00  0.00    +0.004 A 
ATOM     19  C   UNL     1     -11.722   0.113  -0.562  0.00  0.00    -0.032 A 
ENDBRANCH   9  19
ENDBRANCH   1   9
BRANCH   4  20
ATOM     20  S   UNL     1      -6.136   2.096   0.364  0.00  0.00    -0.075 S 
BRANCH  20  21
ATOM     21  C   UNL     1      -4.844   0.832   0.261  0.00  0.00    +0.173 C 
BRANCH  21  22
ATOM     22  C   UNL     1      -3.498   1.499   0.140  0.00  0.00    +0.228 C 
ATOM     23  O   UNL     1      -3.419   2.709   0.125  0.00  0.00    -0.275 OA
ATOM     24  N   UNL     1      -2.381   0.750   0.049  0.00  0.00    -0.284 N 
ATOM     25  H   UNL     1      -2.448  -0.216  -0.007  0.00  0.00    +0.155 HD
BRANCH  24  26
ATOM     26  C   UNL     1      -1.129   1.363   0.036  0.00  0.00    +0.052 A 
ATOM     27  C   UNL     1      -0.967   2.604  -0.563  0.00  0.00    +0.044 A 
ATOM     28  C   UNL     1       0.276   3.208  -0.580  0.00  0.00    +0.043 A 
ATOM     29  C   UNL     1       1.367   2.583   0.005  0.00  0.00    +0.021 A 
ATOM     30  C   UNL     1       1.223   1.354   0.610  0.00  0.00    +0.022 A 
ATOM     31  C   UNL     1      -0.028   0.732   0.635  0.00  0.00    +0.073 A 
ATOM     32 CL   UNL     1       0.472   4.757  -1.338  0.00  0.00    -0.083 Cl
BRANCH  31  33
ATOM     33  C   UNL     1      -0.184  -0.546   1.262  0.00  0.00    +0.101 C 
ATOM     34  N   UNL     1      -0.308  -1.560   1.759  0.00  0.00    -0.191 NA
ENDBRANCH  31  33
ENDBRANCH  24  26
ENDBRANCH  21  22
ENDBRANCH  20  21
ENDBRANCH   4  20
TORSDOF 8
