REMARK  Name = ZINC16449025
REMARK  8 active torsions:
REMARK  status: ('A' for Active; 'I' for Inactive)
REMARK    1  A    between atoms: C_4  and  O_23
REMARK    2  A    between atoms: C_5  and  C_7
REMARK    3  A    between atoms: N_8  and  C_9
REMARK    4  A    between atoms: C_9  and  C_10
REMARK    5  A    between atoms: C_10  and  C_11
REMARK    6  A    between atoms: C_11  and  N_12
REMARK    7  A    between atoms: N_12  and  C_13
REMARK    8  A    between atoms: C_16  and  N_20
REMARK                            x       y       z     vdW  Elec       q    Type
REMARK                         _______ _______ _______ _____ _____    ______ ____
ROOT
ATOM      1  C   UNL     1      -0.753   1.593  -1.232  0.00  0.00    +0.039 C 
ENDROOT
BRANCH   1   2
ATOM      2  C   UNL     1      -0.037   1.099  -2.490  0.00  0.00    +0.114 C 
BRANCH   2   4
ATOM      3  C   UNL     1      -0.167   2.419  -4.480  0.00  0.00    +0.089 C 
ATOM      4  N   UNL     1      -0.745   1.585  -3.677  0.00  0.00    -0.390 N 
ATOM      5  H   UNL     1      -1.769   1.240  -3.886  0.00  0.00    +0.159 HD
BRANCH   3  10
ATOM      6  C   UNL     1      -0.932   4.261  -7.658  0.00  0.00    +0.001 A 
ATOM      7  C   UNL     1      -2.221   3.827  -7.921  0.00  0.00    +0.004 A 
ATOM      8  C   UNL     1      -2.845   2.937  -7.070  0.00  0.00    +0.046 A 
ATOM      9  C   UNL     1      -2.184   2.470  -5.944  0.00  0.00    +0.125 A 
ATOM     10  C   UNL     1      -0.880   2.907  -5.674  0.00  0.00    +0.032 A 
ATOM     11  C   UNL     1      -0.261   3.812  -6.540  0.00  0.00    +0.013 A 
BRANCH   9  12
ATOM     12  O   UNL     1      -2.796   1.595  -5.107  0.00  0.00    -0.506 OA
ATOM     13  H   UNL     1      -2.269   1.227  -4.215  0.00  0.00    +0.292 HD
ENDBRANCH   9  12
ENDBRANCH   3  10
ENDBRANCH   2   4
ENDBRANCH   1   2
BRANCH   1  14
ATOM     14  C   UNL     1      -0.013   1.086   0.008  0.00  0.00    +0.103 C 
BRANCH  14  15
ATOM     15  N   UNL     1      -0.698   1.558   1.213  0.00  0.00    -0.343 N 
ATOM     16  H   UNL     1      -1.602   2.179   1.124  0.00  0.00    +0.146 HD
BRANCH  15  17
ATOM     17  C   UNL     1      -0.204   1.220   2.476  0.00  0.00    +0.046 A 
ATOM     18  C   UNL     1       0.937   0.437   2.590  0.00  0.00    +0.026 A 
ATOM     19  C   UNL     1       1.422   0.104   3.840  0.00  0.00    +0.034 A 
ATOM     20  C   UNL     1       0.774   0.551   4.977  0.00  0.00    +0.128 A 
ATOM     21  C   UNL     1      -0.362   1.331   4.868  0.00  0.00    +0.054 A 
ATOM     22  C   UNL     1      -0.850   1.673   3.621  0.00  0.00    +0.064 A 
ATOM     23 CL   UNL     1      -2.272   2.659   3.484  0.00  0.00    -0.082 Cl
BRANCH  20  24
ATOM     24  N   UNL     1       1.298   0.193   6.314  0.00  0.00    +0.056 N 
ATOM     25  O   UNL     1       2.300  -0.494   6.412  0.00  0.00    -0.126 OA
ATOM     26  O   UNL     1       0.729   0.586   7.317  0.00  0.00    -0.126 OA
ENDBRANCH  20  24
ENDBRANCH  15  17
ENDBRANCH  14  15
ENDBRANCH   1  14
TORSDOF 8
