REMARK  Name = ZINC36573065
REMARK  17 active torsions:
REMARK  status: ('A' for Active; 'I' for Inactive)
REMARK    1  A    between atoms: C_1  and  C_2
REMARK    2  A    between atoms: C_2  and  C_3
REMARK    3  A    between atoms: C_3  and  C_4
REMARK    4  A    between atoms: C_4  and  N_5
REMARK    5  A    between atoms: C_6  and  C_8
REMARK    6  A    between atoms: C_8  and  C_10
REMARK    7  A    between atoms: C_8  and  N_19
REMARK    8  A    between atoms: C_11  and  O_18
REMARK    9  A    between atoms: C_13  and  O_17
REMARK   10  A    between atoms: C_15  and  O_16
REMARK   11  A    between atoms: N_19  and  C_20
REMARK   12  A    between atoms: C_20  and  C_21
REMARK   13  A    between atoms: C_21  and  C_22
REMARK   14  A    between atoms: C_23  and  C_25
REMARK   15  A    between atoms: C_25  and  C_26
REMARK   16  A    between atoms: C_25  and  C_32
REMARK   17  A    between atoms: C_25  and  O_38
REMARK                            x       y       z     vdW  Elec       q    Type
REMARK                         _______ _______ _______ _____ _____    ______ ____
ROOT
ATOM      1  C   UNL     1       1.929  -4.731  -5.237  0.00  0.00    +0.199 C 
ENDROOT
BRANCH   1   2
ATOM      2  C   UNL     1       1.286  -5.003  -6.573  0.00  0.00    +0.065 A 
ATOM      3  C   UNL     1       0.057  -4.438  -6.878  0.00  0.00    +0.129 A 
ATOM      4  C   UNL     1      -0.535  -4.689  -8.107  0.00  0.00    +0.091 A 
ATOM      5  C   UNL     1       0.101  -5.504  -9.030  0.00  0.00    +0.124 A 
ATOM      6  C   UNL     1       1.331  -6.069  -8.725  0.00  0.00    +0.091 A 
ATOM      7  C   UNL     1       1.925  -5.815  -7.498  0.00  0.00    +0.129 A 
BRANCH   7   8
ATOM      8  O   UNL     1       3.132  -6.364  -7.201  0.00  0.00    -0.506 OA
ATOM      9  H   UNL     1       3.079  -7.266  -6.854  0.00  0.00    +0.292 HD
ENDBRANCH   7   8
BRANCH   5  10
ATOM     10  O   UNL     1      -0.480  -5.750 -10.234  0.00  0.00    -0.507 OA
ATOM     11  H   UNL     1      -0.239  -5.117 -10.923  0.00  0.00    +0.292 HD
ENDBRANCH   5  10
BRANCH   3  12
ATOM     12  O   UNL     1      -0.567  -3.639  -5.973  0.00  0.00    -0.506 OA
ATOM     13  H   UNL     1      -0.264  -2.720  -5.985  0.00  0.00    +0.292 HD
ENDBRANCH   3  12
ENDBRANCH   1   2
BRANCH   1  15
ATOM     14  N   UNL     1       0.930  -2.600  -4.477  0.00  0.00    -0.313 N 
ATOM     15  C   UNL     1       0.979  -3.942  -4.373  0.00  0.00    +0.238 C 
ATOM     16  O   UNL     1       0.259  -4.516  -3.584  0.00  0.00    -0.273 OA
ATOM     17  H   UNL     1       1.538  -2.137  -5.076  0.00  0.00    +0.149 HD
BRANCH  14  18
ATOM     18  C   UNL     1      -0.041  -1.839  -3.687  0.00  0.00    +0.104 C 
BRANCH  18  19
ATOM     19  C   UNL     1       0.113  -0.347  -3.989  0.00  0.00    +0.018 C 
BRANCH  19  21
ATOM     20  C   UNL     1      -0.748   1.940  -3.466  0.00  0.00    +0.004 C 
ATOM     21  C   UNL     1      -0.901   0.448  -3.164  0.00  0.00    -0.002 C 
ENDBRANCH  19  21
ENDBRANCH  18  19
ENDBRANCH  14  18
ENDBRANCH   1  15
BRANCH   1  22
ATOM     22  N   UNL     1       2.247  -6.001  -4.580  0.00  0.00    -0.283 N 
ATOM     23  C   UNL     1       3.520  -6.282  -4.237  0.00  0.00    +0.257 C 
ATOM     24  O   UNL     1       4.386  -5.445  -4.380  0.00  0.00    -0.272 OA
BRANCH  22  25
ATOM     25  C   UNL     1       1.182  -6.966  -4.297  0.00  0.00    +0.109 C 
BRANCH  25  26
ATOM     26  C   UNL     1       0.914  -7.811  -5.544  0.00  0.00    +0.016 C 
ATOM     27  C   UNL     1      -0.236  -8.781  -5.266  0.00  0.00    +0.005 C 
ENDBRANCH  25  26
ENDBRANCH  22  25
BRANCH  23  28
ATOM     28  C   UNL     1       3.867  -7.636  -3.674  0.00  0.00    +0.192 C 
BRANCH  28  29
ATOM     29  C   UNL     1       5.362  -7.823  -3.701  0.00  0.00    -0.003 A 
ATOM     30  C   UNL     1       6.191  -6.843  -3.188  0.00  0.00    +0.007 A 
ATOM     31  C   UNL     1       7.562  -7.014  -3.213  0.00  0.00    +0.000 A 
ATOM     32  C   UNL     1       8.105  -8.166  -3.750  0.00  0.00    +0.000 A 
ATOM     33  C   UNL     1       7.277  -9.147  -4.262  0.00  0.00    +0.000 A 
ATOM     34  C   UNL     1       5.905  -8.977  -4.234  0.00  0.00    +0.007 A 
ENDBRANCH  28  29
BRANCH  28  35
ATOM     35  C   UNL     1       3.374  -7.731  -2.253  0.00  0.00    -0.003 A 
ATOM     36  C   UNL     1       3.293  -6.594  -1.472  0.00  0.00    +0.007 A 
ATOM     37  C   UNL     1       2.841  -6.681  -0.169  0.00  0.00    +0.000 A 
ATOM     38  C   UNL     1       2.470  -7.906   0.353  0.00  0.00    +0.000 A 
ATOM     39  C   UNL     1       2.551  -9.043  -0.428  0.00  0.00    +0.000 A 
ATOM     40  C   UNL     1       2.999  -8.956  -1.732  0.00  0.00    +0.007 A 
ENDBRANCH  28  35
BRANCH  28  41
ATOM     41  O   UNL     1       3.246  -8.653  -4.463  0.00  0.00    -0.371 OA
ATOM     42  H   UNL     1       3.467  -8.611  -5.403  0.00  0.00    +0.212 HD
ENDBRANCH  28  41
ENDBRANCH  23  28
ENDBRANCH   1  22
TORSDOF 15
