REMARK  Name = ZINC39712360
REMARK  9 active torsions:
REMARK  status: ('A' for Active; 'I' for Inactive)
REMARK    1  A    between atoms: C_1  and  C_2
REMARK    2  A    between atoms: C_7  and  N_8
REMARK    3  A    between atoms: C_9  and  S_20
REMARK    4  A    between atoms: C_13  and  C_14
REMARK    5  A    between atoms: S_20  and  C_21
REMARK    6  A    between atoms: C_21  and  C_23
REMARK    7  A    between atoms: C_21  and  C_24
REMARK    8  A    between atoms: C_29  and  C_36
REMARK    9  A    between atoms: C_30  and  C_35
REMARK                            x       y       z     vdW  Elec       q    Type
REMARK                         _______ _______ _______ _____ _____    ______ ____
ROOT
ATOM      1  N   UNL     1       0.109  -0.687   2.763  0.00  0.00    -0.254 N 
ATOM      2  C   UNL     1      -1.064   0.049   3.265  0.00  0.00    +0.242 C 
ATOM      3  N   UNL     1      -0.536   0.828   4.399  0.00  0.00    -0.237 N 
ATOM      4  N   UNL     1       0.827   0.520   4.488  0.00  0.00    -0.168 NA
ATOM      5  C   UNL     1       1.181  -0.328   3.579  0.00  0.00    +0.153 C 
ATOM      6  H   UNL     1      -1.034   1.433   4.971  0.00  0.00    +0.171 HD
ENDROOT
BRANCH   1  13
ATOM      7  C   UNL     1       0.647   0.363   0.174  0.00  0.00    +0.045 C 
ATOM      8  C   UNL     1       0.398  -1.105   0.403  0.00  0.00    -0.029 A 
ATOM      9  C   UNL     1       0.433  -1.987  -0.659  0.00  0.00    +0.005 A 
ATOM     10  C   UNL     1       0.205  -3.334  -0.450  0.00  0.00    +0.000 A 
ATOM     11  C   UNL     1      -0.059  -3.804   0.824  0.00  0.00    +0.002 A 
ATOM     12  C   UNL     1      -0.096  -2.929   1.891  0.00  0.00    +0.024 A 
ATOM     13  C   UNL     1       0.139  -1.575   1.685  0.00  0.00    +0.041 A 
ENDBRANCH   1  13
BRANCH   5  14
ATOM     14  C   UNL     1       2.555  -0.850   3.421  0.00  0.00    +0.020 A 
ATOM     15  C   UNL     1       2.866  -1.761   2.405  0.00  0.00    +0.029 A 
ATOM     16  C   UNL     1       4.161  -2.222   2.294  0.00  0.00    +0.083 A 
ATOM     17  N   UNL     1       5.099  -1.816   3.130  0.00  0.00    -0.367 N 
ATOM     18  C   UNL     1       4.848  -0.959   4.101  0.00  0.00    +0.083 A 
ATOM     19  C   UNL     1       3.582  -0.443   4.281  0.00  0.00    +0.029 A 
ATOM     20  H   UNL     1       6.000  -2.159   3.026  0.00  0.00    +0.165 HD
ENDBRANCH   5  14
BRANCH   2  21
ATOM     21  S   UNL     1      -2.348  -1.104   3.823  0.00  0.00    -0.107 S 
BRANCH  21  22
ATOM     22  C   UNL     1      -3.844  -0.083   3.918  0.00  0.00    +0.112 C 
ATOM     23  C   UNL     1      -3.692   0.941   5.045  0.00  0.00    +0.027 C 
BRANCH  22  24
ATOM     24  C   UNL     1      -5.036  -0.962   4.195  0.00  0.00    +0.136 C 
ATOM     25  N   UNL     1      -4.856  -2.261   4.227  0.00  0.00    -0.160 NA
ATOM     26  C   UNL     1      -5.849  -3.124   4.464  0.00  0.00    +0.271 C 
ATOM     27  O   UNL     1      -5.646  -4.326   4.487  0.00  0.00    -0.268 OA
ATOM     28  C   UNL     1      -7.218  -2.566   4.702  0.00  0.00    +0.071 C 
ATOM     29  C   UNL     1      -8.354  -3.232   4.958  0.00  0.00    -0.045 C 
ATOM     30  C   UNL     1      -9.614  -2.421   5.162  0.00  0.00    +0.076 C 
ATOM     31  S   UNL     1      -8.991  -0.704   4.952  0.00  0.00    -0.098 S 
ATOM     32  C   UNL     1      -7.287  -1.090   4.639  0.00  0.00    +0.111 C 
ATOM     33  N   UNL     1      -6.209  -0.383   4.399  0.00  0.00    -0.226 NA
ATOM     34  C   UNL     1     -10.661  -2.759   4.099  0.00  0.00    +0.024 C 
ATOM     35  C   UNL     1      -8.374  -4.737   5.039  0.00  0.00    +0.041 C 
ENDBRANCH  22  24
ENDBRANCH  21  22
ENDBRANCH   2  21
TORSDOF 5
