REMARK  Name = ZINC41607260
REMARK  4 active torsions:
REMARK  status: ('A' for Active; 'I' for Inactive)
REMARK    1  A    between atoms: C_6  and  C_7
REMARK    2  A    between atoms: C_7  and  C_9
REMARK    3  A    between atoms: C_9  and  S_10
REMARK    4  A    between atoms: S_10  and  C_11
REMARK                            x       y       z     vdW  Elec       q    Type
REMARK                         _______ _______ _______ _____ _____    ______ ____
ROOT
ATOM      1  C   UNL     1      -1.259  -0.757   0.011  0.00  0.00    +0.173 C 
ATOM      2  O   UNL     1      -1.240  -1.970   0.004  0.00  0.00    -0.291 OA
ENDROOT
BRANCH   1   8
ATOM      3  C   UNL     1      -0.017   1.396   0.010  0.00  0.00    +0.015 A 
ATOM      4  C   UNL     1       1.166   2.102   0.002  0.00  0.00    +0.048 A 
ATOM      5  C   UNL     1       2.379   1.429  -0.013  0.00  0.00    +0.142 A 
ATOM      6  C   UNL     1       2.406   0.032  -0.021  0.00  0.00    +0.076 A 
ATOM      7  C   UNL     1       1.227  -0.684  -0.014  0.00  0.00    +0.038 A 
ATOM      8  C   UNL     1       0.002  -0.004   0.002  0.00  0.00    +0.020 A 
ATOM      9  N   UNL     1       3.643  -0.629  -0.038  0.00  0.00    -0.280 N 
ATOM     10  C   UNL     1       4.760   0.065   0.270  0.00  0.00    +0.255 C 
ATOM     11  O   UNL     1       5.844  -0.478   0.233  0.00  0.00    -0.272 OA
ATOM     12  C   UNL     1       4.653   1.517   0.661  0.00  0.00    +0.325 C 
ATOM     13  O   UNL     1       3.549   2.118  -0.020  0.00  0.00    -0.481 OA
ATOM     14  H   UNL     1       3.696  -1.571  -0.268  0.00  0.00    +0.155 HD
ENDBRANCH   1   8
BRANCH   1  15
ATOM     15  C   UNL     1      -2.575  -0.024   0.028  0.00  0.00    +0.156 C 
BRANCH  15  16
ATOM     16  S   UNL     1      -3.936  -1.223   0.035  0.00  0.00    -0.080 S 
BRANCH  16  17
ATOM     17  C   UNL     1      -5.386  -0.223   0.055  0.00  0.00    +0.170 A 
ATOM     18  N   UNL     1      -6.613  -0.813   0.070  0.00  0.00    -0.302 N 
ATOM     19  H   UNL     1      -6.692  -1.780   0.070  0.00  0.00    +0.171 HD
ATOM     20  C   UNL     1      -7.712  -0.041   0.086  0.00  0.00    +0.256 A 
ATOM     21  O   UNL     1      -8.819  -0.554   0.100  0.00  0.00    -0.267 OA
ATOM     22  C   UNL     1      -7.585   1.374   0.087  0.00  0.00    +0.049 A 
ATOM     23  C   UNL     1      -6.339   1.908   0.071  0.00  0.00    +0.063 A 
ATOM     24  N   UNL     1      -5.273   1.084   0.061  0.00  0.00    -0.227 NA
ATOM     25  C   UNL     1      -6.238   3.435   0.072  0.00  0.00    +0.125 C 
ATOM     26  S   UNL     1      -7.951   3.924  -0.386  0.00  0.00    -0.150 S 
ATOM     27  C   UNL     1      -8.763   2.348   0.103  0.00  0.00    +0.111 C 
ENDBRANCH  16  17
ENDBRANCH  15  16
ENDBRANCH   1  15
TORSDOF 4
