REMARK  Name = ZINC08448603
REMARK  7 active torsions:
REMARK  status: ('A' for Active; 'I' for Inactive)
REMARK    1  A    between atoms: C_1  and  C_2
REMARK    2  A    between atoms: C_2  and  C_3
REMARK    3  A    between atoms: C_2  and  N_54
REMARK    4  A    between atoms: C_6  and  C_7
REMARK    5  A    between atoms: C_17  and  C_25
REMARK    6  A    between atoms: C_19  and  C_23
REMARK    7  A    between atoms: C_20  and  N_22
REMARK                            x       y       z     vdW  Elec       q    Type
REMARK                         _______ _______ _______ _____ _____    ______ ____
ROOT
ATOM      1  C   UNL     1       4.112   2.519  -0.295  0.00  0.00    -0.038 C 
ATOM      2  C   UNL     1       3.119   3.224   0.604  0.00  0.00    -0.021 C 
ATOM      3  C   UNL     1       3.472   4.307   1.319  0.00  0.00    +0.013 C 
ATOM      4  C   UNL     1       1.747   2.679   0.666  0.00  0.00    +0.130 C 
ATOM      5  C   UNL     1       1.367   1.745  -0.206  0.00  0.00    -0.031 C 
ATOM      6  C   UNL     1       2.316   1.213  -1.250  0.00  0.00    -0.042 C 
ATOM      7  C   UNL     1      -0.034   1.185  -0.163  0.00  0.00    +0.092 C 
ATOM      8  C   UNL     1      -0.672   1.472   1.167  0.00  0.00    +0.098 C 
ATOM      9  C   UNL     1      -0.171   2.433   1.982  0.00  0.00    +0.199 C 
ATOM     10  O   UNL     1       0.906   3.151   1.619  0.00  0.00    -0.441 OA
ATOM     11  N   UNL     1       3.382   2.185  -1.539  0.00  0.00    +0.387 N 
ATOM     12  H   UNL     1       2.961   3.041  -1.918  0.00  0.00    -0.081 HD
ENDROOT
BRANCH   3  13
ATOM     13  C   UNL     1       4.883   4.728   1.369  0.00  0.00    -0.023 A 
ATOM     14  C   UNL     1       5.903   3.774   1.315  0.00  0.00    +0.008 A 
ATOM     15  C   UNL     1       7.222   4.176   1.357  0.00  0.00    +0.002 A 
ATOM     16  C   UNL     1       7.537   5.519   1.464  0.00  0.00    +0.020 A 
ATOM     17  C   UNL     1       6.532   6.470   1.524  0.00  0.00    +0.042 A 
ATOM     18  C   UNL     1       5.207   6.083   1.477  0.00  0.00    +0.028 A 
ATOM     19 CL   UNL     1       6.938   8.153   1.658  0.00  0.00    -0.084 Cl
ENDBRANCH   3  13
BRANCH   7  20
ATOM     20  C   UNL     1      -0.858   1.819  -1.254  0.00  0.00    -0.034 A 
ATOM     21  C   UNL     1      -1.422   1.031  -2.240  0.00  0.00    +0.004 A 
ATOM     22  C   UNL     1      -2.179   1.612  -3.241  0.00  0.00    +0.002 A 
ATOM     23  C   UNL     1      -2.372   2.981  -3.255  0.00  0.00    +0.020 A 
ATOM     24  C   UNL     1      -1.808   3.769  -2.269  0.00  0.00    +0.041 A 
ATOM     25  C   UNL     1      -1.055   3.187  -1.264  0.00  0.00    +0.024 A 
ATOM     26 CL   UNL     1      -2.050   5.488  -2.286  0.00  0.00    -0.084 Cl
ENDBRANCH   7  20
BRANCH  11  28
ATOM     27  C   UNL     1       5.356   2.689  -2.900  0.00  0.00    -0.013 C 
ATOM     28  C   UNL     1       4.318   1.625  -2.541  0.00  0.00    -0.074 C 
ATOM     29  C   UNL     1       5.026   0.391  -1.977  0.00  0.00    -0.013 C 
ENDBRANCH  11  28
BRANCH   9  30
ATOM     30  N   UNL     1      -0.770   2.675   3.192  0.00  0.00    -0.328 N 
ATOM     31  H   UNL     1      -0.417   3.361   3.780  0.00  0.00    +0.145 HD
ATOM     32  H   UNL     1      -1.548   2.160   3.460  0.00  0.00    +0.145 HD
ENDBRANCH   9  30
BRANCH   8  33
ATOM     33  C   UNL     1      -1.821   0.722   1.578  0.00  0.00    +0.101 C 
ATOM     34  N   UNL     1      -2.732   0.128   1.904  0.00  0.00    -0.191 NA
ENDBRANCH   8  33
TORSDOF 5
