REMARK  Name = ZINC39534316
REMARK  9 active torsions:
REMARK  status: ('A' for Active; 'I' for Inactive)
REMARK    1  A    between atoms: C_4  and  O_7
REMARK    2  A    between atoms: O_7  and  S_8
REMARK    3  A    between atoms: S_8  and  C_11
REMARK    4  A    between atoms: C_14  and  C_17
REMARK    5  A    between atoms: C_17  and  C_19
REMARK    6  A    between atoms: C_17  and  N_28
REMARK    7  A    between atoms: C_19  and  N_20
REMARK    8  A    between atoms: N_20  and  C_21
REMARK    9  A    between atoms: C_26  and  O_27
REMARK                            x       y       z     vdW  Elec       q    Type
REMARK                         _______ _______ _______ _____ _____    ______ ____
ROOT
ATOM      1  C   UNL     1       0.894  -5.504   3.593  0.00  0.00    +0.104 C 
ENDROOT
BRANCH   1   2
ATOM      2  N   UNL     1       0.725  -6.539   2.564  0.00  0.00    -0.289 NA
ATOM      3  C   UNL     1       2.020  -7.122   2.186  0.00  0.00    +0.100 C 
ATOM      4  C   UNL     1       1.794  -8.248   1.174  0.00  0.00    +0.099 C 
ATOM      5  N   UNL     1       1.098  -7.710  -0.004  0.00  0.00    -0.285 NA
ATOM      6  C   UNL     1      -0.197  -7.127   0.373  0.00  0.00    +0.248 C 
ATOM      7  C   UNL     1       0.030  -6.002   1.386  0.00  0.00    +0.138 C 
ATOM      8  F   UNL     1      -0.826  -6.611  -0.765  0.00  0.00    -0.227 F 
ATOM      9  H   UNL     1       1.672  -7.035  -0.486  0.00  0.00    +0.125 HD
ENDBRANCH   1   2
BRANCH   1  13
ATOM     10  C   UNL     1       3.512  -2.458   2.136  0.00  0.00    +0.128 A 
ATOM     11  C   UNL     1       2.164  -2.195   2.292  0.00  0.00    +0.031 A 
ATOM     12  C   UNL     1       1.317  -3.180   2.763  0.00  0.00    +0.007 A 
ATOM     13  C   UNL     1       1.817  -4.430   3.078  0.00  0.00    -0.029 A 
ATOM     14  C   UNL     1       3.165  -4.694   2.922  0.00  0.00    +0.007 A 
ATOM     15  C   UNL     1       4.012  -3.709   2.447  0.00  0.00    +0.031 A 
BRANCH  10  16
ATOM     16  S   UNL     1       4.591  -1.202   1.536  0.00  0.00    +0.151 S 
ATOM     17  O   UNL     1       5.895  -1.535   1.992  0.00  0.00    -0.131 OA
ATOM     18  O   UNL     1       3.974   0.042   1.837  0.00  0.00    -0.131 OA
BRANCH  16  19
ATOM     19  O   UNL     1       4.618  -1.319   0.019  0.00  0.00    -0.342 OA
BRANCH  19  23
ATOM     20  C   UNL     1       1.219   0.106  -1.835  0.00  0.00    +0.000 A 
ATOM     21  C   UNL     1       2.284   0.955  -1.599  0.00  0.00    +0.004 A 
ATOM     22  C   UNL     1       3.424   0.481  -0.979  0.00  0.00    +0.048 A 
ATOM     23  C   UNL     1       3.498  -0.849  -0.591  0.00  0.00    +0.157 A 
ATOM     24  C   UNL     1       2.428  -1.700  -0.829  0.00  0.00    +0.048 A 
ATOM     25  C   UNL     1       1.291  -1.220  -1.450  0.00  0.00    +0.004 A 
ENDBRANCH  19  23
ENDBRANCH  16  19
ENDBRANCH  10  16
ENDBRANCH   1  13
BRANCH   1  26
ATOM     26  C   UNL     1       1.493  -6.131   4.853  0.00  0.00    +0.125 C 
BRANCH  26  27
ATOM     27  N   UNL     1       0.657  -7.254   5.285  0.00  0.00    -0.339 N 
ATOM     28  H   UNL     1      -0.139  -7.488   4.782  0.00  0.00    +0.146 HD
BRANCH  27  29
ATOM     29  C   UNL     1       1.006  -7.988   6.424  0.00  0.00    +0.069 A 
ATOM     30  C   UNL     1       2.140  -7.652   7.149  0.00  0.00    +0.026 A 
ATOM     31  C   UNL     1       2.482  -8.379   8.273  0.00  0.00    +0.002 A 
ATOM     32  C   UNL     1       1.696  -9.441   8.679  0.00  0.00    +0.004 A 
ATOM     33  C   UNL     1       0.564  -9.783   7.962  0.00  0.00    +0.047 A 
ATOM     34  C   UNL     1       0.212  -9.056   6.837  0.00  0.00    +0.138 A 
BRANCH  34  35
ATOM     35  O   UNL     1      -0.904  -9.388   6.133  0.00  0.00    -0.505 OA
ATOM     36  H   UNL     1      -0.748 -10.032   5.429  0.00  0.00    +0.292 HD
ENDBRANCH  34  35
ENDBRANCH  27  29
ENDBRANCH  26  27
ENDBRANCH   1  26
TORSDOF 9
