REMARK  Name = ZINC59270128
REMARK  7 active torsions:
REMARK  status: ('A' for Active; 'I' for Inactive)
REMARK    1  A    between atoms: C_1  and  N_2
REMARK    2  A    between atoms: N_2  and  C_3
REMARK    3  A    between atoms: C_6  and  C_12
REMARK    4  A    between atoms: C_8  and  N_9
REMARK    5  A    between atoms: C_13  and  C_14
REMARK    6  A    between atoms: C_13  and  C_16
REMARK    7  A    between atoms: C_16  and  C_18
REMARK                            x       y       z     vdW  Elec       q    Type
REMARK                         _______ _______ _______ _____ _____    ______ ____
ROOT
ATOM      1  C   UNL     1      -4.411  -2.301   0.587  0.00  0.00    +0.030 C 
ATOM      2  C   UNL     1      -5.598  -1.675   0.904  0.00  0.00    +0.100 C 
ENDROOT
BRANCH   1   6
ATOM      3  C   UNL     1      -0.815  -0.083   0.475  0.00  0.00    +0.058 A 
ATOM      4  C   UNL     1      -1.805   0.246   1.400  0.00  0.00    +0.026 A 
ATOM      5  C   UNL     1      -2.968  -0.468   1.440  0.00  0.00    +0.010 A 
ATOM      6  C   UNL     1      -3.166  -1.533   0.548  0.00  0.00    -0.021 A 
ATOM      7  C   UNL     1      -2.167  -1.859  -0.381  0.00  0.00    +0.042 A 
ATOM      8  C   UNL     1      -1.009  -1.136  -0.416  0.00  0.00    +0.147 A 
BRANCH   3  10
ATOM      9  C   UNL     1       0.539   1.808   1.316  0.00  0.00    +0.125 C 
ATOM     10  N   UNL     1       0.367   0.647   0.439  0.00  0.00    -0.345 N 
ATOM     11  H   UNL     1       1.078   0.387  -0.168  0.00  0.00    +0.146 HD
ENDBRANCH   3  10
BRANCH   8  12
ATOM     12  N   UNL     1       0.044  -1.475  -1.399  0.00  0.00    +0.058 N 
ATOM     13  O   UNL     1      -0.258  -1.754  -2.536  0.00  0.00    -0.126 OA
ATOM     14  O   UNL     1       1.206  -1.473  -1.065  0.00  0.00    -0.126 OA
ENDBRANCH   8  12
ENDBRANCH   1   6
BRANCH   2  15
ATOM     15  C   UNL     1      -5.641  -0.251   1.047  0.00  0.00    +0.103 C 
ATOM     16  N   UNL     1      -5.674   0.879   1.161  0.00  0.00    -0.191 NA
ENDBRANCH   2  15
BRANCH   2  17
ATOM     17  C   UNL     1      -6.821  -2.470   1.095  0.00  0.00    +0.205 C 
ATOM     18  O   UNL     1      -6.762  -3.687   1.099  0.00  0.00    -0.286 OA
BRANCH  17  19
ATOM     19  C   UNL     1      -8.114  -1.797   1.281  0.00  0.00    +0.048 A 
ATOM     20  C   UNL     1      -8.357  -0.457   1.194  0.00  0.00    +0.095 A 
ATOM     21  N   UNL     1      -9.670  -0.213   1.425  0.00  0.00    -0.360 N 
ATOM     22  H   UNL     1     -10.079   0.666   1.417  0.00  0.00    +0.165 HD
ATOM     23  C   UNL     1     -10.341  -1.393   1.675  0.00  0.00    +0.049 A 
ATOM     24  C   UNL     1      -9.406  -2.437   1.591  0.00  0.00    +0.011 A 
ATOM     25  C   UNL     1      -9.808  -3.754   1.795  0.00  0.00    +0.012 A 
ATOM     26  C   UNL     1     -11.129  -4.028   2.076  0.00  0.00    +0.021 A 
ATOM     27  C   UNL     1     -12.056  -2.998   2.156  0.00  0.00    +0.043 A 
ATOM     28  C   UNL     1     -11.669  -1.688   1.963  0.00  0.00    +0.046 A 
ATOM     29 CL   UNL     1     -13.716  -3.361   2.511  0.00  0.00    -0.083 Cl
ENDBRANCH  17  19
ENDBRANCH   2  17
TORSDOF 6
