REMARK  Name = ZINC33464442
REMARK  4 active torsions:
REMARK  status: ('A' for Active; 'I' for Inactive)
REMARK    1  A    between atoms: C_6  and  C_7
REMARK    2  A    between atoms: C_7  and  N_8
REMARK    3  A    between atoms: C_10  and  N_17
REMARK    4  A    between atoms: C_12  and  C_15
REMARK                            x       y       z     vdW  Elec       q    Type
REMARK                         _______ _______ _______ _____ _____    ______ ____
ROOT
ATOM      1  N   UNL     1      -0.721   1.571  -1.179  0.00  0.00    -0.308 N 
ATOM      2  C   UNL     1      -1.710   0.815  -1.722  0.00  0.00    +0.112 A 
ATOM      3  C   UNL     1      -2.394   1.237  -2.822  0.00  0.00    +0.042 A 
ATOM      4  C   UNL     1      -2.075   2.462  -3.418  0.00  0.00    +0.048 A 
ATOM      5  C   UNL     1      -1.058   3.236  -2.866  0.00  0.00    +0.118 A 
ATOM      6  C   UNL     1      -0.378   2.757  -1.716  0.00  0.00    +0.269 A 
ATOM      7  O   UNL     1       0.517   3.418  -1.216  0.00  0.00    -0.266 OA
ENDROOT
BRANCH   3   8
ATOM      8  N   UNL     1      -3.415   0.439  -3.360  0.00  0.00    -0.357 N 
ATOM      9  H   UNL     1      -3.968   0.779  -4.248  0.00  0.00    +0.142 HD
ATOM     10  H   UNL     1      -3.663  -0.526  -2.895  0.00  0.00    +0.142 HD
ENDBRANCH   3   8
BRANCH   5  11
ATOM     11  C   UNL     1      -0.703   4.495  -3.448  0.00  0.00    +0.105 C 
ATOM     12  N   UNL     1      -0.422   5.494  -3.910  0.00  0.00    -0.191 NA
ENDBRANCH   5  11
BRANCH   1  13
ATOM     13  C   UNL     1      -0.013   1.086   0.008  0.00  0.00    +0.160 C 
BRANCH  13  19
ATOM     14  C   UNL     1      -0.360   2.779   1.818  0.00  0.00    +0.007 A 
ATOM     15  C   UNL     1      -1.010   3.228   2.952  0.00  0.00    +0.020 A 
ATOM     16  C   UNL     1      -2.012   2.464   3.523  0.00  0.00    +0.041 A 
ATOM     17  C   UNL     1      -2.367   1.253   2.955  0.00  0.00    +0.020 A 
ATOM     18  C   UNL     1      -1.719   0.808   1.817  0.00  0.00    +0.007 A 
ATOM     19  C   UNL     1      -0.718   1.572   1.248  0.00  0.00    -0.028 A 
ATOM     20 CL   UNL     1      -2.825   3.024   4.951  0.00  0.00    -0.084 Cl
ENDBRANCH  13  19
ENDBRANCH   1  13
TORSDOF 4
