REMARK  Name = ZINC24454860
REMARK  6 active torsions:
REMARK  status: ('A' for Active; 'I' for Inactive)
REMARK    1  A    between atoms: C_7  and  C_11
REMARK    2  A    between atoms: C_11  and  C_12
REMARK    3  A    between atoms: N_14  and  N_15
REMARK    4  A    between atoms: C_16  and  C_18
REMARK    5  A    between atoms: N_21  and  S_24
REMARK    6  A    between atoms: S_24  and  C_27
REMARK                            x       y       z     vdW  Elec       q    Type
REMARK                         _______ _______ _______ _____ _____    ______ ____
ROOT
ATOM      1  N   UNL     1       1.143   1.898   0.001  0.00  0.00    -0.234 N 
ATOM      2  C   UNL     1      -0.014   1.209   0.009  0.00  0.00    +0.232 C 
ATOM      3  O   UNL     1       0.002  -0.004   0.002  0.00  0.00    -0.274 OA
ATOM      4  H   UNL     1       1.129   2.998   0.007  0.00  0.00    +0.173 HD
ENDROOT
BRANCH   2   5
ATOM      5  C   UNL     1      -1.330   1.944   0.019  0.00  0.00    +0.079 C 
ATOM      6  C   UNL     1      -1.416   2.817   1.273  0.00  0.00    +0.030 C 
ATOM      7  C   UNL     1      -2.739   3.590   1.263  0.00  0.00    +0.110 C 
ATOM      8  N   UNL     1      -3.844   2.633   1.117  0.00  0.00    -0.177 NA
ATOM      9  C   UNL     1      -3.814   1.685  -0.006  0.00  0.00    +0.110 C 
ATOM     10  C   UNL     1      -2.479   0.934   0.019  0.00  0.00    +0.030 C 
BRANCH   8  11
ATOM     11  S   UNL     1      -5.099   2.623   2.196  0.00  0.00    +0.061 S 
ATOM     12  O   UNL     1      -5.150   3.921   2.773  0.00  0.00    -0.153 OA
ATOM     13  O   UNL     1      -6.209   2.044   1.524  0.00  0.00    -0.153 OA
BRANCH  11  14
ATOM     14  C   UNL     1      -4.662   1.513   3.493  0.00  0.00    +0.106 A 
ATOM     15  C   UNL     1      -3.981   1.979   4.603  0.00  0.00    +0.029 A 
ATOM     16  C   UNL     1      -3.640   1.107   5.618  0.00  0.00    +0.006 A 
ATOM     17  C   UNL     1      -3.977  -0.233   5.529  0.00  0.00    -0.044 A 
ATOM     18  C   UNL     1      -4.657  -0.699   4.420  0.00  0.00    -0.042 A 
ATOM     19  C   UNL     1      -5.004   0.178   3.405  0.00  0.00    +0.032 A 
ATOM     20  C   UNL     1      -4.907  -2.185   4.559  0.00  0.00    +0.036 C 
ATOM     21  C   UNL     1      -4.697  -2.491   6.058  0.00  0.00    +0.009 C 
ATOM     22  C   UNL     1      -3.723  -1.375   6.490  0.00  0.00    +0.036 C 
ENDBRANCH  11  14
ENDBRANCH   8  11
ENDBRANCH   2   5
BRANCH   1  25
ATOM     23  C   UNL     1       3.524   1.904  -0.021  0.00  0.00    +0.233 C 
ATOM     24  O   UNL     1       3.508   3.117  -0.015  0.00  0.00    -0.274 OA
ATOM     25  N   UNL     1       2.366   1.214  -0.014  0.00  0.00    -0.234 N 
ATOM     26  H   UNL     1       2.381   0.115  -0.020  0.00  0.00    +0.173 HD
BRANCH  23  27
ATOM     27  C   UNL     1       4.839   1.168  -0.038  0.00  0.00    +0.134 C 
BRANCH  27  34
ATOM     28  C   UNL     1       7.084   3.491   3.359  0.00  0.00    +0.001 A 
ATOM     29  C   UNL     1       8.086   4.322   2.876  0.00  0.00    +0.002 A 
ATOM     30  C   UNL     1       8.338   4.404   1.524  0.00  0.00    +0.026 A 
ATOM     31  C   UNL     1       7.583   3.649   0.632  0.00  0.00    +0.047 A 
ATOM     32  C   UNL     1       6.569   2.809   1.127  0.00  0.00    +0.003 A 
ATOM     33  C   UNL     1       6.330   2.741   2.502  0.00  0.00    +0.010 A 
ATOM     34  C   UNL     1       5.971   2.163  -0.043  0.00  0.00    -0.014 A 
ATOM     35  C   UNL     1       6.627   2.621  -1.122  0.00  0.00    +0.087 A 
ATOM     36  N   UNL     1       7.590   3.514  -0.738  0.00  0.00    -0.360 N 
ATOM     37  H   UNL     1       8.307   4.087  -1.343  0.00  0.00    +0.165 HD
ENDBRANCH  27  34
ENDBRANCH  23  27
ENDBRANCH   1  25
TORSDOF 6
