REMARK  Name = ZINC20686449
REMARK  8 active torsions:
REMARK  status: ('A' for Active; 'I' for Inactive)
REMARK    1  A    between atoms: C_1  and  N_2
REMARK    2  A    between atoms: N_2  and  C_3
REMARK    3  A    between atoms: N_2  and  C_4
REMARK    4  A    between atoms: C_7  and  C_10
REMARK    5  A    between atoms: C_21  and  S_26
REMARK    6  A    between atoms: S_26  and  N_29
REMARK    7  A    between atoms: N_29  and  C_30
REMARK    8  A    between atoms: N_29  and  C_31
REMARK                            x       y       z     vdW  Elec       q    Type
REMARK                         _______ _______ _______ _____ _____    ______ ____
ROOT
ATOM      1  C   UNL     1      -4.870  -2.906   0.033  0.00  0.00    +0.105 C 
ATOM      2  C   UNL     1      -5.460  -2.925   1.431  0.00  0.00    +0.029 C 
ATOM      3  C   UNL     1      -4.695  -3.711   2.504  0.00  0.00    +0.033 C 
ATOM      4  C   UNL     1      -5.828  -4.144   3.437  0.00  0.00    -0.030 C 
ATOM      5  C   UNL     1      -6.971  -4.205   2.764  0.00  0.00    -0.023 C 
ATOM      6  C   UNL     1      -6.722  -3.835   1.337  0.00  0.00    +0.049 C 
ATOM      7  C   UNL     1      -7.721  -3.138   0.499  0.00  0.00    -0.018 A 
ATOM      8  C   UNL     1      -9.076  -3.225   0.736  0.00  0.00    +0.034 A 
ATOM      9  C   UNL     1      -9.972  -2.565  -0.084  0.00  0.00    +0.106 A 
ATOM     10  C   UNL     1      -9.509  -1.814  -1.149  0.00  0.00    +0.030 A 
ATOM     11  C   UNL     1      -8.155  -1.716  -1.392  0.00  0.00    +0.025 A 
ATOM     12  C   UNL     1      -7.245  -2.370  -0.569  0.00  0.00    +0.031 A 
ATOM     13  N   UNL     1      -5.873  -2.228  -0.817  0.00  0.00    -0.336 N 
ATOM     14  H   UNL     1      -5.576  -1.675  -1.556  0.00  0.00    +0.147 HD
ENDROOT
BRANCH   1  18
ATOM     15  C   UNL     1      -1.198  -0.719   0.010  0.00  0.00    +0.029 A 
ATOM     16  C   UNL     1      -1.181  -2.108   0.008  0.00  0.00    +0.023 A 
ATOM     17  C   UNL     1      -2.369  -2.812   0.016  0.00  0.00    +0.007 A 
ATOM     18  C   UNL     1      -3.575  -2.135   0.025  0.00  0.00    -0.027 A 
ATOM     19  C   UNL     1      -3.596  -0.752   0.027  0.00  0.00    +0.007 A 
ATOM     20  C   UNL     1      -2.411  -0.042   0.025  0.00  0.00    +0.023 A 
BRANCH  15  22
ATOM     21  C   UNL     1      -0.018   1.461   0.010  0.00  0.00    +0.129 C 
ATOM     22  N   UNL     1       0.002  -0.004   0.002  0.00  0.00    -0.336 N 
ATOM     23  C   UNL     1       1.281  -0.719  -0.014  0.00  0.00    +0.129 C 
ENDBRANCH  15  22
ENDBRANCH   1  18
BRANCH   9  24
ATOM     24  S   UNL     1     -11.702  -2.680   0.227  0.00  0.00    +0.061 S 
ATOM     25  O   UNL     1     -12.356  -2.417  -1.007  0.00  0.00    -0.153 OA
ATOM     26  O   UNL     1     -11.905  -3.884   0.955  0.00  0.00    -0.153 OA
BRANCH  24  27
ATOM     27  N   UNL     1     -12.100  -1.438   1.248  0.00  0.00    -0.177 NA
ATOM     28  C   UNL     1     -12.505  -0.141   0.700  0.00  0.00    +0.132 C 
BRANCH  27  29
ATOM     29  C   UNL     1     -12.046  -1.636   2.698  0.00  0.00    +0.080 C 
ATOM     30  C   UNL     1     -13.434  -1.400   3.297  0.00  0.00    +0.020 C 
ATOM     31  C   UNL     1     -13.378  -1.607   4.812  0.00  0.00    +0.002 C 
ATOM     32  C   UNL     1     -12.383  -0.619   5.425  0.00  0.00    +0.000 C 
ATOM     33  C   UNL     1     -10.995  -0.856   4.826  0.00  0.00    +0.002 C 
ATOM     34  C   UNL     1     -11.051  -0.649   3.311  0.00  0.00    +0.020 C 
ENDBRANCH  27  29
ENDBRANCH  24  27
ENDBRANCH   9  24
TORSDOF 5
