REMARK  Name = ZINC05485544
REMARK  4 active torsions:
REMARK  status: ('A' for Active; 'I' for Inactive)
REMARK    1  A    between atoms: C_4  and  C_7
REMARK    2  A    between atoms: C_7  and  N_8
REMARK    3  A    between atoms: C_20  and  C_21
REMARK    4  A    between atoms: C_20  and  N_46
REMARK                            x       y       z     vdW  Elec       q    Type
REMARK                         _______ _______ _______ _____ _____    ______ ____
ROOT
ATOM      1  N   UNL     1      -0.072   3.932   0.026  0.00  0.00    -0.277 N 
ATOM      2  C   UNL     1       1.152   3.298   0.005  0.00  0.00    +0.108 A 
ATOM      3  C   UNL     1       1.192   1.937   0.001  0.00  0.00    +0.039 A 
ATOM      4  C   UNL     1      -0.015   1.215   0.009  0.00  0.00    +0.257 A 
ATOM      5  O   UNL     1       0.002  -0.004   0.002  0.00  0.00    -0.267 OA
ATOM      6  N   UNL     1      -1.188   1.875   0.018  0.00  0.00    -0.275 N 
ATOM      7  H   UNL     1      -2.047   1.363   0.013  0.00  0.00    +0.173 HD
ATOM      8  C   UNL     1      -1.212   3.220   0.034  0.00  0.00    +0.331 A 
ATOM      9  O   UNL     1      -2.280   3.800   0.051  0.00  0.00    -0.246 OA
ATOM     10  C   UNL     1       2.495   1.182  -0.004  0.00  0.00    -0.031 C 
ATOM     11  C   UNL     1       3.474   3.335   0.427  0.00  0.00    +0.028 C 
ATOM     12  N   UNL     1       2.284   4.067  -0.014  0.00  0.00    -0.347 N 
ATOM     13  H   UNL     1       2.428   4.476  -0.925  0.00  0.00    +0.145 HD
ATOM     14  N   UNL     1       3.582   2.104  -0.379  0.00  0.00    +0.395 N 
ATOM     15  H   UNL     1       3.493   2.344  -1.373  0.00  0.00    -0.079 HD
ENDROOT
BRANCH   1  16
ATOM     16  C   UNL     1      -0.131   5.396   0.041  0.00  0.00    +0.163 C 
BRANCH  16  20
ATOM     17  C   UNL     1      -0.238   6.858  -3.972  0.00  0.00    +0.000 A 
ATOM     18  C   UNL     1      -1.417   6.573  -3.308  0.00  0.00    +0.000 A 
ATOM     19  C   UNL     1      -1.382   6.100  -2.010  0.00  0.00    +0.005 A 
ATOM     20  C   UNL     1      -0.169   5.912  -1.375  0.00  0.00    -0.028 A 
ATOM     21  C   UNL     1       1.010   6.202  -2.037  0.00  0.00    +0.005 A 
ATOM     22  C   UNL     1       0.975   6.670  -3.337  0.00  0.00    +0.000 A 
ENDBRANCH  16  20
ENDBRANCH   1  16
BRANCH  14  23
ATOM     23  C   UNL     1       4.897   1.460  -0.153  0.00  0.00    -0.039 C 
BRANCH  23  24
ATOM     24  C   UNL     1       5.981   2.344  -0.713  0.00  0.00    -0.046 A 
ATOM     25  C   UNL     1       6.788   3.074   0.140  0.00  0.00    +0.003 A 
ATOM     26  C   UNL     1       7.783   3.885  -0.373  0.00  0.00    +0.000 A 
ATOM     27  C   UNL     1       7.972   3.966  -1.741  0.00  0.00    +0.001 A 
ATOM     28  C   UNL     1       7.166   3.237  -2.595  0.00  0.00    +0.020 A 
ATOM     29  C   UNL     1       6.173   2.421  -2.081  0.00  0.00    +0.042 A 
ATOM     30 CL   UNL     1       5.166   1.499  -3.153  0.00  0.00    -0.083 Cl
ENDBRANCH  23  24
ENDBRANCH  14  23
TORSDOF 4
