REMARK  Name = ZINC04588686
REMARK  6 active torsions:
REMARK  status: ('A' for Active; 'I' for Inactive)
REMARK    1  A    between atoms: C_1  and  C_2
REMARK    2  A    between atoms: C_5  and  C_8
REMARK    3  A    between atoms: C_11  and  C_12
REMARK    4  A    between atoms: C_13  and  C_14
REMARK    5  A    between atoms: C_19  and  O_20
REMARK    6  A    between atoms: O_20  and  C_21
REMARK                            x       y       z     vdW  Elec       q    Type
REMARK                         _______ _______ _______ _____ _____    ______ ____
ROOT
ATOM      1  C   UNL     1       0.634   3.458   0.015  0.00  0.00    +0.232 C 
ATOM      2  N   UNL     1       1.056   2.223   0.004  0.00  0.00    -0.205 NA
ATOM      3  C   UNL     1      -0.017   1.384   0.010  0.00  0.00    +0.152 C 
ATOM      4  C   UNL     1       0.002  -0.004   0.002  0.00  0.00    +0.035 C 
ATOM      5  C   UNL     1      -1.200   2.258   0.019  0.00  0.00    +0.364 C 
ATOM      6  O   UNL     1      -2.369   1.919   0.022  0.00  0.00    -0.243 OA
ATOM      7  O   UNL     1      -0.712   3.518   0.028  0.00  0.00    -0.402 OA
ENDROOT
BRANCH   1  12
ATOM      8  C   UNL     1       4.082   8.063   0.010  0.00  0.00    +0.044 C 
ATOM      9  C   UNL     1       3.178   6.857   0.012  0.00  0.00    -0.050 A 
ATOM     10  C   UNL     1       1.805   7.025   0.025  0.00  0.00    +0.004 A 
ATOM     11  C   UNL     1       0.972   5.925   0.025  0.00  0.00    +0.013 A 
ATOM     12  C   UNL     1       1.518   4.640   0.013  0.00  0.00    +0.037 A 
ATOM     13  C   UNL     1       2.906   4.477   0.006  0.00  0.00    +0.013 A 
ATOM     14  C   UNL     1       3.726   5.586  -0.000  0.00  0.00    +0.004 A 
ENDBRANCH   1  12
BRANCH   4  15
ATOM     15  C   UNL     1       1.225  -0.688  -0.013  0.00  0.00    +0.003 C 
ATOM     16  C   UNL     1       1.243  -2.047  -0.020  0.00  0.00    +0.011 C 
BRANCH  16  17
ATOM     17  C   UNL     1       2.523  -2.763  -0.036  0.00  0.00    +0.017 A 
ATOM     18  C   UNL     1       3.729  -2.051  -0.043  0.00  0.00    +0.011 A 
ATOM     19  C   UNL     1       4.927  -2.731  -0.057  0.00  0.00    +0.001 A 
ATOM     20  C   UNL     1       4.945  -4.117  -0.064  0.00  0.00    +0.004 A 
ATOM     21  C   UNL     1       3.763  -4.833  -0.057  0.00  0.00    +0.046 A 
ATOM     22  C   UNL     1       2.547  -4.169  -0.038  0.00  0.00    +0.127 A 
BRANCH  22  23
ATOM     23  O   UNL     1       1.387  -4.871  -0.025  0.00  0.00    -0.495 OA
ATOM     24  C   UNL     1       1.491  -6.296  -0.028  0.00  0.00    +0.277 C 
ENDBRANCH  22  23
ENDBRANCH  16  17
ENDBRANCH   4  15
TORSDOF 4
