REMARK  Name = ZINC59489399
REMARK  9 active torsions:
REMARK  status: ('A' for Active; 'I' for Inactive)
REMARK    1  A    between atoms: C_1  and  C_2
REMARK    2  A    between atoms: C_2  and  O_3
REMARK    3  A    between atoms: O_3  and  C_4
REMARK    4  A    between atoms: C_8  and  N_10
REMARK    5  A    between atoms: C_14  and  S_18
REMARK    6  A    between atoms: S_18  and  C_19
REMARK    7  A    between atoms: N_21  and  N_22
REMARK    8  A    between atoms: C_23  and  C_24
REMARK    9  A    between atoms: C_23  and  C_25
REMARK                            x       y       z     vdW  Elec       q    Type
REMARK                         _______ _______ _______ _____ _____    ______ ____
ROOT
ATOM      1  N   UNL     1       2.224  -4.264   3.669  0.00  0.00    -0.209 N 
ATOM      2  C   UNL     1       2.849  -3.504   4.577  0.00  0.00    +0.228 C 
ATOM      3  O   UNL     1       2.919  -2.294   4.551  0.00  0.00    -0.275 OA
ATOM      4  C   UNL     1       3.452  -4.395   5.641  0.00  0.00    +0.120 C 
ATOM      5  C   UNL     1       3.064  -5.816   5.186  0.00  0.00    +0.149 C 
ATOM      6  C   UNL     1       2.278  -5.579   3.915  0.00  0.00    +0.240 C 
ATOM      7  O   UNL     1       1.777  -6.443   3.227  0.00  0.00    -0.274 OA
ENDROOT
BRANCH   1  12
ATOM      8  C   UNL     1      -0.465  -3.285   1.352  0.00  0.00    +0.122 A 
ATOM      9  C   UNL     1       0.267  -2.664   0.350  0.00  0.00    +0.046 A 
ATOM     10  C   UNL     1       1.642  -2.576   0.450  0.00  0.00    +0.005 A 
ATOM     11  C   UNL     1       2.292  -3.105   1.549  0.00  0.00    +0.024 A 
ATOM     12  C   UNL     1       1.565  -3.727   2.554  0.00  0.00    +0.047 A 
ATOM     13  C   UNL     1       0.183  -3.812   2.458  0.00  0.00    +0.069 A 
BRANCH   8  14
ATOM     14  O   UNL     1      -1.818  -3.370   1.252  0.00  0.00    -0.492 OA
BRANCH  14  16
ATOM     15  C   UNL     1      -3.936  -2.997   0.150  0.00  0.00    +0.048 C 
ATOM     16  C   UNL     1      -2.419  -2.806   0.085  0.00  0.00    +0.225 C 
ENDBRANCH  14  16
ENDBRANCH   8  14
ENDBRANCH   1  12
BRANCH   5  17
ATOM     17  S   UNL     1       2.027  -6.626   6.434  0.00  0.00    -0.078 S 
BRANCH  17  18
ATOM     18  C   UNL     1       1.814  -8.262   5.815  0.00  0.00    +0.146 C 
ATOM     19  N   UNL     1       2.396  -8.628   4.625  0.00  0.00    -0.338 N 
ATOM     20  N   UNL     1       1.096  -9.135   6.493  0.00  0.00    -0.259 N 
ATOM     21  H   UNL     1       2.925  -7.986   4.126  0.00  0.00    +0.144 HD
ATOM     22  H   UNL     1       2.279  -9.529   4.284  0.00  0.00    +0.144 HD
ATOM     23  H   UNL     1       0.685  -8.877   7.333  0.00  0.00    +0.191 HD
BRANCH  20  24
ATOM     24  N   UNL     1       0.927 -10.436   6.001  0.00  0.00    -0.176 NA
ATOM     25  C   UNL     1       0.215 -11.302   6.674  0.00  0.00    +0.072 C 
ATOM     26  C   UNL     1      -0.424 -10.901   7.979  0.00  0.00    +0.068 C 
BRANCH  25  27
ATOM     27  C   UNL     1       0.038 -12.661   6.160  0.00  0.00    +0.035 A 
ATOM     28  C   UNL     1       0.538 -13.227   4.998  0.00  0.00    +0.017 A 
ATOM     29  C   UNL     1       0.230 -14.540   4.728  0.00  0.00    +0.008 A 
ATOM     30  C   UNL     1      -0.548 -15.234   5.599  0.00  0.00    +0.046 A 
ATOM     31  S   UNL     1      -0.873 -14.023   6.869  0.00  0.00    -0.095 S 
ENDBRANCH  25  27
ENDBRANCH  20  24
ENDBRANCH  17  18
ENDBRANCH   5  17
TORSDOF 7
