REMARK  Name = ZINC01445174
REMARK  9 active torsions:
REMARK  status: ('A' for Active; 'I' for Inactive)
REMARK    1  A    between atoms: C_1  and  O_2
REMARK    2  A    between atoms: O_2  and  C_3
REMARK    3  A    between atoms: C_8  and  O_9
REMARK    4  A    between atoms: O_9  and  C_10
REMARK    5  A    between atoms: C_10  and  C_11
REMARK    6  A    between atoms: N_13  and  N_14
REMARK    7  A    between atoms: C_15  and  C_16
REMARK    8  A    between atoms: C_19  and  O_24
REMARK    9  A    between atoms: C_21  and  O_22
REMARK                            x       y       z     vdW  Elec       q    Type
REMARK                         _______ _______ _______ _____ _____    ______ ____
ROOT
ATOM      1  C   UNL     1      -0.454  -4.838   0.897  0.00  0.00    +0.270 C 
ATOM      2  O   UNL     1      -0.956  -4.164   1.772  0.00  0.00    -0.270 OA
ATOM      3  N   UNL     1      -0.487  -6.183   0.980  0.00  0.00    -0.204 N 
ATOM      4  H   UNL     1      -0.086  -6.722   0.280  0.00  0.00    +0.177 HD
ENDROOT
BRANCH   3   5
ATOM      5  N   UNL     1      -1.100  -6.803   2.076  0.00  0.00    -0.188 NA
ATOM      6  C   UNL     1      -1.132  -8.098   2.156  0.00  0.00    +0.142 C 
BRANCH   6   7
ATOM      7  C   UNL     1      -1.777  -8.750   3.309  0.00  0.00    +0.038 A 
ATOM      8  C   UNL     1      -1.807 -10.144   3.400  0.00  0.00    +0.032 A 
ATOM      9  C   UNL     1      -2.411 -10.750   4.481  0.00  0.00    +0.061 A 
ATOM     10  C   UNL     1      -2.991  -9.979   5.481  0.00  0.00    +0.148 A 
ATOM     11  C   UNL     1      -2.967  -8.594   5.399  0.00  0.00    +0.102 A 
ATOM     12  C   UNL     1      -2.357  -7.974   4.322  0.00  0.00    +0.143 A 
ATOM     13 BR   UNL     1      -3.759  -7.552   6.764  0.00  0.00    -0.043 Br
ATOM     14 BR   UNL     1      -2.451 -12.637   4.602  0.00  0.00    -0.046 Br
BRANCH  12  15
ATOM     15  O   UNL     1      -2.328  -6.618   4.243  0.00  0.00    -0.505 OA
ATOM     16  H   UNL     1      -3.088  -6.234   3.786  0.00  0.00    +0.292 HD
ENDBRANCH  12  15
BRANCH  10  17
ATOM     17  O   UNL     1      -3.585 -10.583   6.543  0.00  0.00    -0.504 OA
ATOM     18  H   UNL     1      -2.989 -10.747   7.287  0.00  0.00    +0.292 HD
ENDBRANCH  10  17
ENDBRANCH   6   7
ENDBRANCH   3   5
BRANCH   1  19
ATOM     19  C   UNL     1       0.206  -4.171  -0.282  0.00  0.00    +0.326 C 
BRANCH  19  20
ATOM     20  O   UNL     1       0.111  -2.752  -0.141  0.00  0.00    -0.479 OA
BRANCH  20  26
ATOM     21  C   UNL     1       0.606  -0.608  -1.056  0.00  0.00    +0.163 A 
ATOM     22  C   UNL     1       1.173   0.159  -2.062  0.00  0.00    +0.064 A 
ATOM     23  C   UNL     1       1.787  -0.456  -3.138  0.00  0.00    +0.022 A 
ATOM     24  C   UNL     1       1.838  -1.837  -3.212  0.00  0.00    +0.019 A 
ATOM     25  C   UNL     1       1.274  -2.607  -2.212  0.00  0.00    +0.050 A 
ATOM     26  C   UNL     1       0.662  -1.996  -1.129  0.00  0.00    +0.163 A 
ATOM     27 BR   UNL     1       2.559   0.591  -4.510  0.00  0.00    -0.050 Br
BRANCH  21  29
ATOM     28  C   UNL     1      -0.017   1.425   0.010  0.00  0.00    +0.277 C 
ATOM     29  O   UNL     1       0.002  -0.004   0.002  0.00  0.00    -0.491 OA
ENDBRANCH  21  29
ENDBRANCH  20  26
ENDBRANCH  19  20
ENDBRANCH   1  19
TORSDOF 8
