REMARK  Name = ZINC39272596
REMARK  6 active torsions:
REMARK  status: ('A' for Active; 'I' for Inactive)
REMARK    1  A    between atoms: C_1  and  C_2
REMARK    2  A    between atoms: C_3  and  C_15
REMARK    3  A    between atoms: N_6  and  C_9
REMARK    4  A    between atoms: C_15  and  C_36
REMARK    5  A    between atoms: N_23  and  C_29
REMARK    6  A    between atoms: C_29  and  C_30
REMARK                            x       y       z     vdW  Elec       q    Type
REMARK                         _______ _______ _______ _____ _____    ______ ____
ROOT
ATOM      1  C   UNL     1      -2.518  -0.354   0.013  0.00  0.00    +0.187 C 
ATOM      2  C   UNL     1      -3.242  -0.846   1.272  0.00  0.00    +0.144 C 
ATOM      3  C   UNL     1      -2.704   0.234   2.258  0.00  0.00    +0.179 C 
ATOM      4  N   UNL     1      -2.798   1.457   1.505  0.00  0.00    -0.295 N 
ATOM      5  C   UNL     1      -2.615   1.165   0.183  0.00  0.00    +0.235 C 
ATOM      6  O   UNL     1      -2.542   1.979  -0.713  0.00  0.00    -0.274 OA
ATOM      7  N   UNL     1      -3.363   0.029   3.519  0.00  0.00    -0.260 N 
ATOM      8  C   UNL     1      -3.440  -1.272   3.929  0.00  0.00    +0.330 C 
ATOM      9  N   UNL     1      -2.967  -2.276   3.162  0.00  0.00    -0.128 NA
ATOM     10  C   UNL     1      -2.824  -2.167   1.834  0.00  0.00    +0.248 C 
ATOM     11  O   UNL     1      -2.343  -3.154   1.060  0.00  0.00    -0.273 OA
ATOM     12  O   UNL     1      -3.943  -1.530   5.006  0.00  0.00    -0.250 OA
ATOM     13  H   UNL     1      -2.962   2.338   1.874  0.00  0.00    +0.151 HD
ENDROOT
BRANCH   1  16
ATOM     14  C   UNL     1      -0.067   1.329   0.937  0.00  0.00    +0.065 C 
ATOM     15  C   UNL     1      -0.019  -0.079   0.403  0.00  0.00    +0.040 A 
ATOM     16  C   UNL     1      -1.081  -0.807   0.003  0.00  0.00    +0.063 A 
ATOM     17  C   UNL     1      -0.611  -2.070  -0.427  0.00  0.00    +0.276 A 
ATOM     18  O   UNL     1      -1.293  -2.983  -0.856  0.00  0.00    -0.266 OA
ATOM     19  N   UNL     1       0.729  -2.079  -0.278  0.00  0.00    -0.219 N 
ATOM     20  N   UNL     1       1.109  -0.833   0.237  0.00  0.00    -0.294 N 
ATOM     21  H   UNL     1       2.015  -0.554   0.442  0.00  0.00    +0.187 HD
BRANCH  19  22
ATOM     22  C   UNL     1       1.586  -3.140  -0.586  0.00  0.00    +0.067 A 
ATOM     23  C   UNL     1       1.073  -4.322  -1.104  0.00  0.00    +0.028 A 
ATOM     24  C   UNL     1       1.922  -5.368  -1.408  0.00  0.00    +0.002 A 
ATOM     25  C   UNL     1       3.283  -5.239  -1.197  0.00  0.00    +0.000 A 
ATOM     26  C   UNL     1       3.797  -4.064  -0.681  0.00  0.00    +0.002 A 
ATOM     27  C   UNL     1       2.954  -3.013  -0.381  0.00  0.00    +0.028 A 
ENDBRANCH  19  22
ENDBRANCH   1  16
BRANCH   1  28
ATOM     28  C   UNL     1      -3.244  -0.813  -1.254  0.00  0.00    +0.409 C 
ATOM     29  F   UNL     1      -3.228  -2.210  -1.321  0.00  0.00    -0.169 F 
ATOM     30  F   UNL     1      -4.569  -0.363  -1.221  0.00  0.00    -0.169 F 
ATOM     31  F   UNL     1      -2.601  -0.284  -2.378  0.00  0.00    -0.169 F 
ENDBRANCH   1  28
BRANCH   7  32
ATOM     32  C   UNL     1      -3.913   1.134   4.308  0.00  0.00    +0.146 C 
BRANCH  32  33
ATOM     33  C   UNL     1      -5.345   1.375   3.906  0.00  0.00    -0.030 A 
ATOM     34  C   UNL     1      -5.636   2.258   2.883  0.00  0.00    +0.005 A 
ATOM     35  C   UNL     1      -6.950   2.479   2.514  0.00  0.00    +0.000 A 
ATOM     36  C   UNL     1      -7.972   1.817   3.167  0.00  0.00    +0.000 A 
ATOM     37  C   UNL     1      -7.681   0.933   4.190  0.00  0.00    +0.000 A 
ATOM     38  C   UNL     1      -6.367   0.709   4.556  0.00  0.00    +0.005 A 
ENDBRANCH  32  33
ENDBRANCH   7  32
TORSDOF 5
