REMARK  Name = ZINC38759869
REMARK  10 active torsions:
REMARK  status: ('A' for Active; 'I' for Inactive)
REMARK    1  A    between atoms: C_1  and  C_2
REMARK    2  A    between atoms: C_2  and  C_3
REMARK    3  A    between atoms: C_3  and  C_4
REMARK    4  A    between atoms: C_4  and  N_5
REMARK    5  A    between atoms: C_6  and  O_39
REMARK    6  A    between atoms: C_8  and  C_15
REMARK    7  A    between atoms: N_28  and  C_33
REMARK    8  A    between atoms: C_33  and  C_34
REMARK    9  A    between atoms: C_34  and  C_35
REMARK   10  A    between atoms: C_35  and  C_36
REMARK                            x       y       z     vdW  Elec       q    Type
REMARK                         _______ _______ _______ _____ _____    ______ ____
ROOT
ATOM      1  C   UNL     1       4.983  -2.894   3.760  0.00  0.00    +0.059 C 
ATOM      2  C   UNL     1       5.642  -2.421   5.032  0.00  0.00    +0.003 A 
ATOM      3  C   UNL     1       4.892  -2.409   6.197  0.00  0.00    +0.027 A 
ATOM      4  C   UNL     1       5.455  -1.988   7.387  0.00  0.00    +0.043 A 
ATOM      5  C   UNL     1       6.777  -1.578   7.420  0.00  0.00    +0.043 A 
ATOM      6  C   UNL     1       7.528  -1.586   6.261  0.00  0.00    +0.085 A 
ATOM      7  C   UNL     1       6.960  -2.005   5.061  0.00  0.00    +0.152 A 
ATOM      8  O   UNL     1       7.732  -1.980   3.939  0.00  0.00    -0.441 OA
ATOM      9  C   UNL     1       7.235  -2.573   2.835  0.00  0.00    +0.202 C 
ATOM     10  N   UNL     1       7.999  -3.281   2.062  0.00  0.00    -0.131 NA
ATOM     11  C   UNL     1       7.543  -3.899   0.963  0.00  0.00    +0.335 C 
ATOM     12  O   UNL     1       8.320  -4.536   0.276  0.00  0.00    -0.250 OA
ATOM     13  N   UNL     1       6.252  -3.834   0.603  0.00  0.00    -0.224 N 
ATOM     14  C   UNL     1       5.361  -3.129   1.318  0.00  0.00    +0.235 C 
ATOM     15  O   UNL     1       4.203  -3.102   0.961  0.00  0.00    -0.274 OA
ATOM     16  C   UNL     1       5.766  -2.372   2.550  0.00  0.00    +0.167 C 
ATOM     17 CL   UNL     1       9.186  -1.073   6.302  0.00  0.00    -0.080 Cl
ATOM     18 CL   UNL     1       4.506  -1.975   8.840  0.00  0.00    -0.083 Cl
ENDROOT
BRANCH   1  21
ATOM     19  N   UNL     1       2.232  -0.378   3.160  0.00  0.00    -0.259 N 
ATOM     20  C   UNL     1       3.568  -0.846   3.530  0.00  0.00    +0.218 C 
ATOM     21  C   UNL     1       3.548  -2.366   3.703  0.00  0.00    +0.131 C 
ATOM     22  C   UNL     1       2.827  -2.988   2.533  0.00  0.00    +0.228 C 
ATOM     23  O   UNL     1       3.180  -4.067   2.107  0.00  0.00    -0.275 OA
ATOM     24  N   UNL     1       1.792  -2.345   1.962  0.00  0.00    -0.240 N 
ATOM     25  C   UNL     1       1.438  -1.113   2.365  0.00  0.00    +0.310 C 
ATOM     26  O   UNL     1       0.376  -0.652   1.996  0.00  0.00    -0.252 OA
ATOM     27  H   UNL     1       1.293  -2.779   1.253  0.00  0.00    +0.159 HD
BRANCH  20  28
ATOM     28  O   UNL     1       4.497  -0.496   2.503  0.00  0.00    -0.373 OA
ATOM     29  H   UNL     1       4.563   0.455   2.339  0.00  0.00    +0.212 HD
ENDBRANCH  20  28
BRANCH  19  30
ATOM     30  C   UNL     1       1.750   0.909   3.668  0.00  0.00    +0.112 C 
BRANCH  30  31
ATOM     31  C   UNL     1       1.036   0.695   5.004  0.00  0.00    +0.019 C 
BRANCH  31  33
ATOM     32  C   UNL     1      -0.181   1.824   6.871  0.00  0.00    +0.004 C 
ATOM     33  C   UNL     1       0.533   2.038   5.536  0.00  0.00    -0.002 C 
ENDBRANCH  31  33
ENDBRANCH  30  31
ENDBRANCH  19  30
ENDBRANCH   1  21
BRANCH  13  34
ATOM     34  C   UNL     1       5.805  -4.548  -0.597  0.00  0.00    +0.118 C 
BRANCH  34  35
ATOM     35  C   UNL     1       5.367  -5.963  -0.215  0.00  0.00    +0.019 C 
BRANCH  35  36
ATOM     36  C   UNL     1       4.901  -6.708  -1.467  0.00  0.00    -0.002 C 
ATOM     37  C   UNL     1       4.463  -8.123  -1.085  0.00  0.00    +0.004 C 
ENDBRANCH  35  36
ENDBRANCH  34  35
ENDBRANCH  13  34
TORSDOF 8
