REMARK  Name = ZINC00692394
REMARK  5 active torsions:
REMARK  status: ('A' for Active; 'I' for Inactive)
REMARK    1  A    between atoms: C_1  and  C_2
REMARK    2  A    between atoms: C_2  and  O_3
REMARK    3  A    between atoms: O_3  and  C_4
REMARK    4  A    between atoms: C_9  and  N_10
REMARK    5  A    between atoms: C_16  and  C_21
REMARK                            x       y       z     vdW  Elec       q    Type
REMARK                         _______ _______ _______ _____ _____    ______ ____
ROOT
ATOM      1  N   UNL     1       1.615   5.416   0.016  0.00  0.00    -0.199 N 
ATOM      2  C   UNL     1       2.209   4.209   0.004  0.00  0.00    +0.258 C 
ATOM      3  O   UNL     1       3.407   4.009  -0.008  0.00  0.00    -0.269 OA
ATOM      4  C   UNL     1       1.161   3.167   0.008  0.00  0.00    +0.050 A 
ATOM      5  C   UNL     1       1.178   1.780   0.000  0.00  0.00    +0.014 A 
ATOM      6  C   UNL     1      -0.013   1.076   0.008  0.00  0.00    +0.014 A 
ATOM      7  C   UNL     1      -1.233   1.754   0.017  0.00  0.00    +0.038 A 
ATOM      8  C   UNL     1      -1.259   3.153   0.030  0.00  0.00    +0.027 A 
ATOM      9  C   UNL     1      -0.069   3.859   0.023  0.00  0.00    +0.050 A 
ATOM     10  C   UNL     1       0.276   5.296   0.028  0.00  0.00    +0.258 C 
ATOM     11  O   UNL     1      -0.518   6.216   0.040  0.00  0.00    -0.269 OA
ENDROOT
BRANCH   7  12
ATOM     12  C   UNL     1      -2.499   0.993   0.019  0.00  0.00    +0.232 A 
ATOM     13  N   UNL     1      -2.436  -0.311   0.007  0.00  0.00    -0.212 NA
ATOM     14  C   UNL     1      -3.556  -1.073   0.012  0.00  0.00    +0.082 A 
ATOM     15  C   UNL     1      -3.496  -2.469   0.004  0.00  0.00    +0.030 A 
ATOM     16  C   UNL     1      -4.662  -3.201   0.006  0.00  0.00    +0.017 A 
ATOM     17  C   UNL     1      -5.899  -2.569   0.016  0.00  0.00    +0.019 A 
ATOM     18  C   UNL     1      -5.984  -1.192   0.023  0.00  0.00    +0.032 A 
ATOM     19  C   UNL     1      -4.817  -0.433   0.022  0.00  0.00    +0.086 A 
ATOM     20  C   UNL     1      -4.843   1.037   0.030  0.00  0.00    +0.348 A 
ATOM     21  O   UNL     1      -5.893   1.651   0.039  0.00  0.00    -0.244 OA
ATOM     22  O   UNL     1      -3.654   1.680   0.029  0.00  0.00    -0.403 OA
ATOM     23 BR   UNL     1      -7.481  -3.606   0.018  0.00  0.00    -0.050 Br
ENDBRANCH   7  12
BRANCH   1  29
ATOM     24  C   UNL     1       2.639   7.251  -1.190  0.00  0.00    +0.142 A 
ATOM     25  C   UNL     1       3.313   8.462  -1.184  0.00  0.00    +0.047 A 
ATOM     26  C   UNL     1       3.660   9.054   0.015  0.00  0.00    +0.004 A 
ATOM     27  C   UNL     1       3.332   8.444   1.212  0.00  0.00    +0.002 A 
ATOM     28  C   UNL     1       2.655   7.239   1.215  0.00  0.00    +0.027 A 
ATOM     29  C   UNL     1       2.303   6.639   0.015  0.00  0.00    +0.086 A 
BRANCH  24  30
ATOM     30  O   UNL     1       2.301   6.665  -2.369  0.00  0.00    -0.490 OA
BRANCH  30  32
ATOM     31  C   UNL     1       2.216   6.543  -4.781  0.00  0.00    +0.048 C 
ATOM     32  C   UNL     1       2.678   7.349  -3.566  0.00  0.00    +0.226 C 
ENDBRANCH  30  32
ENDBRANCH  24  30
ENDBRANCH   1  29
TORSDOF 4
