REMARK  Name = ZINC03459248
REMARK  7 active torsions:
REMARK  status: ('A' for Active; 'I' for Inactive)
REMARK    1  A    between atoms: C_1  and  C_2
REMARK    2  A    between atoms: C_7  and  N_8
REMARK    3  A    between atoms: C_9  and  C_11
REMARK    4  A    between atoms: C_11  and  N_12
REMARK    5  A    between atoms: C_17  and  C_24
REMARK    6  A    between atoms: C_20  and  C_22
REMARK    7  A    between atoms: C_20  and  C_23
REMARK                            x       y       z     vdW  Elec       q    Type
REMARK                         _______ _______ _______ _____ _____    ______ ____
ROOT
ATOM      1  N   UNL     1       2.138   0.480  -0.051  0.00  0.00    -0.215 N 
ATOM      2  C   UNL     1       2.643   0.160  -1.261  0.00  0.00    +0.247 C 
ATOM      3  O   UNL     1       2.175   0.427  -2.346  0.00  0.00    -0.273 OA
ATOM      4  C   UNL     1       3.917  -0.604  -0.976  0.00  0.00    +0.113 C 
ATOM      5  C   UNL     1       3.823  -2.020  -1.535  0.00  0.00    +0.038 C 
ATOM      6  C   UNL     1       5.109  -2.784  -1.212  0.00  0.00    -0.011 C 
ATOM      7  C   UNL     1       6.304  -2.053  -1.829  0.00  0.00    +0.009 C 
ATOM      8  C   UNL     1       6.399  -0.644  -1.240  0.00  0.00    -0.032 C 
ATOM      9  C   UNL     1       5.118   0.130  -1.563  0.00  0.00    +0.041 C 
ATOM     10  C   UNL     1       7.600   0.083  -1.849  0.00  0.00    +0.011 C 
ATOM     11  C   UNL     1       6.572  -0.735   0.277  0.00  0.00    +0.011 C 
ATOM     12  C   UNL     1       5.022  -4.198  -1.792  0.00  0.00    +0.007 C 
ATOM     13  N   UNL     1       3.996  -0.632   0.490  0.00  0.00    -0.285 N 
ATOM     14  C   UNL     1       2.914   0.031   0.942  0.00  0.00    +0.310 C 
ATOM     15  O   UNL     1       2.670   0.200   2.121  0.00  0.00    -0.252 OA
ATOM     16  H   UNL     1       4.691  -1.044   1.026  0.00  0.00    +0.151 HD
ENDROOT
BRANCH   1  17
ATOM     17  C   UNL     1       0.896   1.231   0.149  0.00  0.00    +0.214 C 
BRANCH  17  19
ATOM     18  N   UNL     1      -1.514   0.742   0.412  0.00  0.00    -0.284 N 
ATOM     19  C   UNL     1      -0.263   0.273   0.233  0.00  0.00    +0.235 C 
ATOM     20  O   UNL     1      -0.071  -0.921   0.136  0.00  0.00    -0.274 OA
ATOM     21  H   UNL     1      -1.659   1.688   0.570  0.00  0.00    +0.155 HD
BRANCH  18  28
ATOM     22  C   UNL     1      -3.964   1.582   1.590  0.00  0.00    +0.045 C 
ATOM     23  C   UNL     1      -3.817   0.234   0.932  0.00  0.00    -0.029 A 
ATOM     24  C   UNL     1      -4.891  -0.634   0.887  0.00  0.00    +0.005 A 
ATOM     25  C   UNL     1      -4.757  -1.870   0.283  0.00  0.00    +0.000 A 
ATOM     26  C   UNL     1      -3.549  -2.242  -0.279  0.00  0.00    +0.002 A 
ATOM     27  C   UNL     1      -2.474  -1.376  -0.242  0.00  0.00    +0.023 A 
ATOM     28  C   UNL     1      -2.603  -0.136   0.369  0.00  0.00    +0.036 A 
ENDBRANCH  18  28
ENDBRANCH  17  19
ENDBRANCH   1  17
TORSDOF 3
