REMARK  Name = ZINC56315880
REMARK  11 active torsions:
REMARK  status: ('A' for Active; 'I' for Inactive)
REMARK    1  A    between atoms: C_1  and  C_2
REMARK    2  A    between atoms: C_2  and  C_4
REMARK    3  A    between atoms: C_2  and  N_15
REMARK    4  A    between atoms: N_6  and  C_7
REMARK    5  A    between atoms: C_12  and  C_13
REMARK    6  A    between atoms: C_19  and  N_22
REMARK    7  A    between atoms: C_23  and  O_25
REMARK    8  A    between atoms: O_25  and  C_26
REMARK    9  A    between atoms: C_26  and  C_27
REMARK   10  A    between atoms: C_26  and  C_28
REMARK   11  A    between atoms: C_26  and  C_29
REMARK                            x       y       z     vdW  Elec       q    Type
REMARK                         _______ _______ _______ _____ _____    ______ ____
ROOT
ATOM      1  N   UNL     1       1.060  -0.718   0.651  0.00  0.00    +0.388 N 
ATOM      2  C   UNL     1       2.386  -0.102   0.527  0.00  0.00    -0.078 C 
ATOM      3  C   UNL     1       3.419  -0.951   1.270  0.00  0.00    -0.017 C 
ATOM      4  C   UNL     1       3.449  -2.357   0.663  0.00  0.00    +0.019 C 
ATOM      5  C   UNL     1       2.043  -2.961   0.730  0.00  0.00    +0.060 C 
ATOM      6  C   UNL     1       1.061  -2.037   0.007  0.00  0.00    -0.055 C 
ATOM      7  H   UNL     1       0.830  -0.822   1.628  0.00  0.00    -0.081 HD
ENDROOT
BRANCH   5   8
ATOM      8  N   UNL     1       2.044  -4.276   0.085  0.00  0.00    -0.280 N 
ATOM      9  C   UNL     1       2.408  -5.369   0.784  0.00  0.00    +0.401 C 
ATOM     10  O   UNL     1       2.734  -5.264   1.950  0.00  0.00    -0.226 OA
ATOM     11  H   UNL     1       1.784  -4.360  -0.846  0.00  0.00    +0.152 HD
BRANCH   9  12
ATOM     12  O   UNL     1       2.409  -6.578   0.191  0.00  0.00    -0.445 OA
BRANCH  12  13
ATOM     13  C   UNL     1       2.805  -7.693   0.992  0.00  0.00    +0.107 C 
ATOM     14  C   UNL     1       1.860  -7.823   2.188  0.00  0.00    +0.055 C 
ATOM     15  C   UNL     1       2.744  -8.971   0.152  0.00  0.00    +0.055 C 
ATOM     16  C   UNL     1       4.235  -7.480   1.492  0.00  0.00    +0.055 C 
ENDBRANCH  12  13
ENDBRANCH   9  12
ENDBRANCH   5   8
BRANCH   1  18
ATOM     17  C   UNL     1       0.107   1.538   0.625  0.00  0.00    -0.004 C 
ATOM     18  C   UNL     1       0.060   0.141   0.003  0.00  0.00    +0.016 C 
BRANCH  18  19
ATOM     19  C   UNL     1      -1.313  -0.449   0.199  0.00  0.00    +0.203 C 
ATOM     20  O   UNL     1      -1.543  -1.139   1.170  0.00  0.00    -0.277 OA
ATOM     21  N   UNL     1      -2.284  -0.211  -0.704  0.00  0.00    -0.286 N 
ATOM     22  H   UNL     1      -2.082   0.279  -1.516  0.00  0.00    +0.155 HD
BRANCH  21  23
ATOM     23  C   UNL     1      -3.580  -0.669  -0.471  0.00  0.00    +0.051 A 
ATOM     24  C   UNL     1      -3.987  -0.984   0.818  0.00  0.00    +0.024 A 
ATOM     25  C   UNL     1      -5.271  -1.437   1.047  0.00  0.00    +0.002 A 
ATOM     26  C   UNL     1      -6.162  -1.581  -0.004  0.00  0.00    +0.001 A 
ATOM     27  C   UNL     1      -5.775  -1.274  -1.291  0.00  0.00    +0.021 A 
ATOM     28  C   UNL     1      -4.481  -0.808  -1.537  0.00  0.00    +0.073 A 
BRANCH  28  29
ATOM     29  C   UNL     1      -4.075  -0.481  -2.871  0.00  0.00    +0.101 C 
ATOM     30  N   UNL     1      -3.753  -0.222  -3.929  0.00  0.00    -0.191 NA
ENDBRANCH  28  29
ENDBRANCH  21  23
ENDBRANCH  18  19
ENDBRANCH   1  18
TORSDOF 7
