REMARK  Name = ZINC34794229
REMARK  4 active torsions:
REMARK  status: ('A' for Active; 'I' for Inactive)
REMARK    1  A    between atoms: C_5  and  C_7
REMARK    2  A    between atoms: C_10  and  S_12
REMARK    3  A    between atoms: S_12  and  C_13
REMARK    4  A    between atoms: C_13  and  C_14
REMARK                            x       y       z     vdW  Elec       q    Type
REMARK                         _______ _______ _______ _____ _____    ______ ____
ROOT
ATOM      1  C   UNL     1       2.533  -8.311  -0.065  0.00  0.00    +0.229 C 
ATOM      2  O   UNL     1       3.746  -8.316  -0.070  0.00  0.00    -0.275 OA
ATOM      3  N   UNL     1       1.854  -9.475  -0.070  0.00  0.00    -0.264 N 
ATOM      4  C   UNL     1       2.542 -10.678  -0.080  0.00  0.00    +0.165 A 
ATOM      5  N   UNL     1       3.838 -10.885  -0.081  0.00  0.00    -0.225 NA
ATOM      6  C   UNL     1       4.375 -12.125  -0.092  0.00  0.00    +0.080 A 
ATOM      7  C   UNL     1       5.743 -12.483  -0.095  0.00  0.00    +0.030 A 
ATOM      8  C   UNL     1       6.122 -13.800  -0.107  0.00  0.00    +0.017 A 
ATOM      9  C   UNL     1       5.185 -14.824  -0.117  0.00  0.00    +0.019 A 
ATOM     10  C   UNL     1       3.838 -14.509  -0.115  0.00  0.00    +0.032 A 
ATOM     11  C   UNL     1       3.450 -13.193  -0.102  0.00  0.00    +0.042 A 
ATOM     12  S   UNL     1       1.890 -12.342  -0.088  0.00  0.00    -0.052 S 
ATOM     13 BR   UNL     1       5.744 -16.631  -0.136  0.00  0.00    -0.050 Br
ATOM     14  H   UNL     1       0.884  -9.471  -0.066  0.00  0.00    +0.157 HD
ENDROOT
BRANCH   1  15
ATOM     15  C   UNL     1       1.785  -7.003  -0.054  0.00  0.00    +0.175 C 
BRANCH  15  16
ATOM     16  S   UNL     1       2.970  -5.629  -0.050  0.00  0.00    -0.056 S 
BRANCH  16  20
ATOM     17  C   UNL     1       1.270  -2.142  -0.022  0.00  0.00    +0.267 A 
ATOM     18  N   UNL     1       0.234  -2.945  -0.022  0.00  0.00    -0.105 NA
ATOM     19  N   UNL     1       0.639  -4.166  -0.031  0.00  0.00    -0.101 NA
ATOM     20  C   UNL     1       1.953  -4.190  -0.037  0.00  0.00    +0.278 A 
ATOM     21  O   UNL     1       2.380  -2.913  -0.036  0.00  0.00    -0.410 OA
BRANCH  17  26
ATOM     22  C   UNL     1      -0.017   1.379   0.010  0.00  0.00    +0.004 A 
ATOM     23  C   UNL     1       1.194   2.059   0.002  0.00  0.00    +0.020 A 
ATOM     24  C   UNL     1       2.376   1.341  -0.013  0.00  0.00    +0.111 A 
ATOM     25  N   UNL     1       2.368   0.024  -0.020  0.00  0.00    -0.250 NA
ATOM     26  C   UNL     1       1.232  -0.665  -0.013  0.00  0.00    +0.127 A 
ATOM     27  C   UNL     1       0.002  -0.004   0.002  0.00  0.00    +0.033 A 
ENDBRANCH  17  26
ENDBRANCH  16  20
ENDBRANCH  15  16
ENDBRANCH   1  15
TORSDOF 4
