REMARK  Name = ZINC36637814
REMARK  15 active torsions:
REMARK  status: ('A' for Active; 'I' for Inactive)
REMARK    1  A    between atoms: C_1  and  C_2
REMARK    2  A    between atoms: C_2  and  C_3
REMARK    3  A    between atoms: C_3  and  C_4
REMARK    4  A    between atoms: C_4  and  N_5
REMARK    5  A    between atoms: N_5  and  C_6
REMARK    6  A    between atoms: N_5  and  S_7
REMARK    7  A    between atoms: S_7  and  C_10
REMARK    8  A    between atoms: C_13  and  C_16
REMARK    9  A    between atoms: N_18  and  C_19
REMARK   10  A    between atoms: C_19  and  C_20
REMARK   11  A    between atoms: C_20  and  N_21
REMARK   12  A    between atoms: N_21  and  C_22
REMARK   13  A    between atoms: N_21  and  C_24
REMARK   14  A    between atoms: C_22  and  C_23
REMARK   15  A    between atoms: C_24  and  C_25
REMARK                            x       y       z     vdW  Elec       q    Type
REMARK                         _______ _______ _______ _____ _____    ______ ____
ROOT
ATOM      1  C   UNL     1       5.991   2.118   3.696  0.00  0.00    +0.252 C 
ATOM      2  O   UNL     1       6.371   2.844   2.799  0.00  0.00    -0.270 OA
ATOM      3  N   UNL     1       6.284   2.420   4.977  0.00  0.00    -0.248 N 
ATOM      4  C   UNL     1       6.897   3.623   5.282  0.00  0.00    +0.168 A 
ATOM      5  N   UNL     1       7.262   4.088   6.454  0.00  0.00    -0.224 NA
ATOM      6  C   UNL     1       7.856   5.292   6.605  0.00  0.00    +0.080 A 
ATOM      7  C   UNL     1       8.294   5.904   7.802  0.00  0.00    +0.032 A 
ATOM      8  C   UNL     1       8.883   7.142   7.781  0.00  0.00    +0.040 A 
ATOM      9  C   UNL     1       9.070   7.836   6.592  0.00  0.00    +0.125 A 
ATOM     10  C   UNL     1       8.653   7.265   5.402  0.00  0.00    +0.055 A 
ATOM     11  C   UNL     1       8.063   6.026   5.415  0.00  0.00    +0.043 A 
ATOM     12  S   UNL     1       7.400   4.936   4.178  0.00  0.00    -0.052 S 
ATOM     13  F   UNL     1       9.652   9.055   6.598  0.00  0.00    -0.205 F 
ENDROOT
BRANCH   1  17
ATOM     14  C   UNL     1       3.743  -1.371   2.797  0.00  0.00    +0.106 A 
ATOM     15  C   UNL     1       3.427  -0.171   2.184  0.00  0.00    +0.029 A 
ATOM     16  C   UNL     1       4.153   0.966   2.472  0.00  0.00    +0.015 A 
ATOM     17  C   UNL     1       5.209   0.904   3.384  0.00  0.00    +0.037 A 
ATOM     18  C   UNL     1       5.522  -0.310   3.998  0.00  0.00    +0.015 A 
ATOM     19  C   UNL     1       4.785  -1.438   3.705  0.00  0.00    +0.029 A 
BRANCH  14  20
ATOM     20  S   UNL     1       2.810  -2.818   2.424  0.00  0.00    +0.061 S 
ATOM     21  O   UNL     1       3.646  -3.928   2.720  0.00  0.00    -0.153 OA
ATOM     22  O   UNL     1       2.241  -2.615   1.138  0.00  0.00    -0.153 OA
BRANCH  20  23
ATOM     23  N   UNL     1       1.548  -2.877   3.495  0.00  0.00    -0.180 NA
ATOM     24  C   UNL     1       1.706  -3.572   4.775  0.00  0.00    +0.131 C 
BRANCH  23  25
ATOM     25  C   UNL     1       0.275  -2.234   3.163  0.00  0.00    +0.109 C 
BRANCH  25  26
ATOM     26  C   UNL     1       0.241  -0.827   3.764  0.00  0.00    +0.017 C 
BRANCH  26  28
ATOM     27  C   UNL     1      -1.122   1.251   4.017  0.00  0.00    +0.004 C 
ATOM     28  C   UNL     1      -1.089  -0.156   3.416  0.00  0.00    -0.002 C 
ENDBRANCH  26  28
ENDBRANCH  25  26
ENDBRANCH  23  25
ENDBRANCH  20  23
ENDBRANCH  14  20
ENDBRANCH   1  17
BRANCH   3  29
ATOM     29  C   UNL     1       5.954   1.474   6.046  0.00  0.00    +0.097 C 
BRANCH  29  30
ATOM     30  C   UNL     1       7.208   0.692   6.440  0.00  0.00    -0.059 C 
BRANCH  30  31
ATOM     31  N   UNL     1       6.883  -0.237   7.531  0.00  0.00    +0.380 N 
ATOM     32  H   UNL     1       6.463   0.274   8.293  0.00  0.00    -0.082 HD
BRANCH  31  33
ATOM     33  C   UNL     1       5.941  -1.254   7.045  0.00  0.00    -0.082 C 
ATOM     34  C   UNL     1       5.506  -2.145   8.209  0.00  0.00    -0.017 C 
ENDBRANCH  31  33
BRANCH  31  35
ATOM     35  C   UNL     1       8.112  -0.891   7.999  0.00  0.00    -0.082 C 
ATOM     36  C   UNL     1       9.025   0.147   8.654  0.00  0.00    -0.017 C 
ENDBRANCH  31  35
ENDBRANCH  30  31
ENDBRANCH  29  30
ENDBRANCH   3  29
TORSDOF 11
