REMARK  Name = ZINC13976952
REMARK  8 active torsions:
REMARK  status: ('A' for Active; 'I' for Inactive)
REMARK    1  A    between atoms: C_4  and  C_7
REMARK    2  A    between atoms: C_7  and  C_8
REMARK    3  A    between atoms: C_7  and  C_14
REMARK    4  A    between atoms: N_16  and  N_17
REMARK    5  A    between atoms: N_17  and  C_18
REMARK    6  A    between atoms: C_18  and  N_20
REMARK    7  A    between atoms: C_21  and  C_23
REMARK    8  A    between atoms: C_23  and  C_24
REMARK                            x       y       z     vdW  Elec       q    Type
REMARK                         _______ _______ _______ _____ _____    ______ ____
ROOT
ATOM      1  N   UNL     1      -0.848  -0.188   3.667  0.00  0.00    -0.246 N 
ATOM      2  H   UNL     1      -1.708  -0.636   3.652  0.00  0.00    +0.172 HD
ENDROOT
BRANCH   1   5
ATOM      3  C   UNL     1      -0.722  -0.290   1.292  0.00  0.00    +0.241 C 
ATOM      4  O   UNL     1      -1.798  -0.850   1.273  0.00  0.00    -0.273 OA
ATOM      5  N   UNL     1      -0.175   0.077   2.468  0.00  0.00    -0.234 N 
ATOM      6  H   UNL     1       0.685   0.525   2.483  0.00  0.00    +0.173 HD
BRANCH   3   7
ATOM      7  C   UNL     1       0.002  -0.004   0.002  0.00  0.00    +0.136 C 
BRANCH   7  11
ATOM      8  C   UNL     1       0.585   4.208  -0.402  0.00  0.00    +0.000 A 
ATOM      9  C   UNL     1       1.655   3.346  -0.545  0.00  0.00    +0.000 A 
ATOM     10  C   UNL     1       1.467   1.983  -0.414  0.00  0.00    +0.005 A 
ATOM     11  C   UNL     1       0.208   1.482  -0.140  0.00  0.00    -0.031 A 
ATOM     12  C   UNL     1      -0.864   2.344  -0.003  0.00  0.00    +0.005 A 
ATOM     13  C   UNL     1      -0.675   3.708  -0.129  0.00  0.00    +0.000 A 
ENDBRANCH   7  11
BRANCH   7  14
ATOM     14  C   UNL     1      -0.817  -0.511  -1.157  0.00  0.00    -0.031 A 
ATOM     15  C   UNL     1      -2.134  -0.116  -1.298  0.00  0.00    +0.005 A 
ATOM     16  C   UNL     1      -2.884  -0.577  -2.364  0.00  0.00    +0.000 A 
ATOM     17  C   UNL     1      -2.320  -1.442  -3.283  0.00  0.00    +0.000 A 
ATOM     18  C   UNL     1      -1.005  -1.842  -3.138  0.00  0.00    +0.000 A 
ATOM     19  C   UNL     1      -0.253  -1.376  -2.076  0.00  0.00    +0.005 A 
ENDBRANCH   7  14
ENDBRANCH   3   7
ENDBRANCH   1   5
BRANCH   1  20
ATOM     20  C   UNL     1      -0.301   0.179   4.843  0.00  0.00    +0.153 C 
ATOM     21  S   UNL     1      -1.124  -0.145   6.309  0.00  0.00    -0.017 S 
BRANCH  20  22
ATOM     22  N   UNL     1       0.894   0.801   4.865  0.00  0.00    -0.266 N 
ATOM     23  C   UNL     1       1.442   1.169   6.040  0.00  0.00    +0.223 C 
ATOM     24  O   UNL     1       0.859   0.939   7.078  0.00  0.00    -0.275 OA
ATOM     25  H   UNL     1       1.360   0.985   4.034  0.00  0.00    +0.157 HD
BRANCH  23  26
ATOM     26  C   UNL     1       2.778   1.865   6.065  0.00  0.00    +0.131 C 
BRANCH  26  27
ATOM     27  C   UNL     1       3.162   2.165   7.491  0.00  0.00    -0.031 A 
ATOM     28  C   UNL     1       2.885   3.382   8.032  0.00  0.00    +0.005 A 
ATOM     29  C   UNL     1       3.232   3.678   9.349  0.00  0.00    +0.001 A 
ATOM     30  C   UNL     1       3.859   2.757  10.132  0.00  0.00    +0.008 A 
ATOM     31  C   UNL     1       4.162   1.490   9.607  0.00  0.00    -0.018 A 
ATOM     32  C   UNL     1       3.804   1.187   8.270  0.00  0.00    -0.014 A 
ATOM     33  C   UNL     1       4.111  -0.080   7.744  0.00  0.00    +0.009 A 
ATOM     34  C   UNL     1       4.738  -0.999   8.526  0.00  0.00    +0.001 A 
ATOM     35  C   UNL     1       5.087  -0.704   9.843  0.00  0.00    +0.001 A 
ATOM     36  C   UNL     1       4.809   0.514  10.385  0.00  0.00    +0.008 A 
ENDBRANCH  26  27
ENDBRANCH  23  26
ENDBRANCH  20  22
ENDBRANCH   1  20
TORSDOF 8
