REMARK  Name = ZINC35326611
REMARK  8 active torsions:
REMARK  status: ('A' for Active; 'I' for Inactive)
REMARK    1  A    between atoms: C_1  and  C_2
REMARK    2  A    between atoms: C_4  and  C_37
REMARK    3  A    between atoms: C_6  and  N_8
REMARK    4  A    between atoms: N_8  and  S_9
REMARK    5  A    between atoms: S_9  and  C_12
REMARK    6  A    between atoms: C_15  and  N_18
REMARK    7  A    between atoms: C_24  and  C_31
REMARK    8  A    between atoms: N_29  and  C_30
REMARK                            x       y       z     vdW  Elec       q    Type
REMARK                         _______ _______ _______ _____ _____    ______ ____
ROOT
ATOM      1  N   UNL     1       0.119  -5.797   8.175  0.00  0.00    -0.262 N 
ATOM      2  C   UNL     1       1.314  -6.356   8.825  0.00  0.00    +0.165 C 
ATOM      3  C   UNL     1       0.778  -7.308   9.870  0.00  0.00    +0.042 C 
ATOM      4  C   UNL     1      -0.567  -7.255   9.778  0.00  0.00    +0.058 C 
ATOM      5  C   UNL     1      -0.954  -6.349   8.770  0.00  0.00    +0.251 C 
ATOM      6  O   UNL     1      -2.108  -6.100   8.474  0.00  0.00    -0.270 OA
ATOM      7  C   UNL     1      -1.373  -8.122  10.724  0.00  0.00    +0.142 C 
ATOM      8  N   UNL     1      -0.616  -8.958  11.671  0.00  0.00    -0.288 N 
ATOM      9  C   UNL     1       0.731  -8.903  11.642  0.00  0.00    +0.307 C 
ATOM     10  O   UNL     1       1.364  -9.589  12.420  0.00  0.00    -0.252 OA
ATOM     11  N   UNL     1       1.393  -8.117  10.783  0.00  0.00    -0.260 N 
ATOM     12  C   UNL     1       2.857  -8.124  10.826  0.00  0.00    +0.139 C 
ATOM     13  H   UNL     1      -1.075  -9.535  12.301  0.00  0.00    +0.151 HD
ENDROOT
BRANCH   1  17
ATOM     14  C   UNL     1       0.067  -3.010   5.080  0.00  0.00    +0.111 A 
ATOM     15  C   UNL     1      -1.122  -3.492   5.594  0.00  0.00    +0.031 A 
ATOM     16  C   UNL     1      -1.109  -4.416   6.620  0.00  0.00    +0.025 A 
ATOM     17  C   UNL     1       0.102  -4.862   7.136  0.00  0.00    +0.037 A 
ATOM     18  C   UNL     1       1.295  -4.375   6.617  0.00  0.00    +0.025 A 
ATOM     19  C   UNL     1       1.274  -3.455   5.587  0.00  0.00    +0.031 A 
BRANCH  14  20
ATOM     20  S   UNL     1       0.045  -1.831   3.770  0.00  0.00    +0.094 S 
ATOM     21  O   UNL     1       1.282  -1.133   3.831  0.00  0.00    -0.148 OA
ATOM     22  O   UNL     1      -1.209  -1.167   3.843  0.00  0.00    -0.148 OA
BRANCH  20  23
ATOM     23  N   UNL     1       0.050  -2.679   2.348  0.00  0.00    -0.058 NA
BRANCH  23  29
ATOM     24  C   UNL     1      -0.018   1.503   0.010  0.00  0.00    +0.066 C 
ATOM     25  C   UNL     1       0.002  -0.004   0.002  0.00  0.00    +0.044 A 
ATOM     26  C   UNL     1       0.006  -0.699  -1.197  0.00  0.00    +0.046 A 
ATOM     27  C   UNL     1       0.025  -2.084  -1.160  0.00  0.00    +0.044 A 
ATOM     28  N   UNL     1       0.040  -2.698   0.011  0.00  0.00    -0.217 NA
ATOM     29  C   UNL     1       0.035  -2.004   1.140  0.00  0.00    +0.258 A 
ATOM     30  N   UNL     1       0.022  -0.679   1.139  0.00  0.00    -0.217 NA
ATOM     31  C   UNL     1       0.030  -2.881  -2.439  0.00  0.00    +0.066 C 
ENDBRANCH  23  29
ENDBRANCH  20  23
ENDBRANCH  14  20
ENDBRANCH   1  17
BRANCH   7  32
ATOM     32  C   UNL     1      -2.280  -7.222  11.522  0.00  0.00    -0.023 A 
ATOM     33  C   UNL     1      -1.781  -6.523  12.605  0.00  0.00    +0.006 A 
ATOM     34  C   UNL     1      -2.613  -5.697  13.337  0.00  0.00    +0.000 A 
ATOM     35  C   UNL     1      -3.944  -5.569  12.986  0.00  0.00    +0.000 A 
ATOM     36  C   UNL     1      -4.443  -6.267  11.902  0.00  0.00    +0.000 A 
ATOM     37  C   UNL     1      -3.610  -7.090  11.168  0.00  0.00    +0.006 A 
ENDBRANCH   7  32
TORSDOF 5
