REMARK  Name = ZINC36643719
REMARK  17 active torsions:
REMARK  status: ('A' for Active; 'I' for Inactive)
REMARK    1  A    between atoms: C_1  and  C_2
REMARK    2  A    between atoms: C_2  and  C_3
REMARK    3  A    between atoms: C_3  and  N_4
REMARK    4  A    between atoms: N_4  and  C_5
REMARK    5  A    between atoms: N_4  and  S_8
REMARK    6  A    between atoms: C_5  and  C_6
REMARK    7  A    between atoms: C_6  and  C_7
REMARK    8  A    between atoms: S_8  and  C_11
REMARK    9  A    between atoms: C_14  and  C_17
REMARK   10  A    between atoms: N_19  and  C_20
REMARK   11  A    between atoms: C_20  and  C_21
REMARK   12  A    between atoms: C_21  and  C_22
REMARK   13  A    between atoms: C_22  and  N_23
REMARK   14  A    between atoms: N_23  and  C_24
REMARK   15  A    between atoms: N_23  and  C_25
REMARK   16  A    between atoms: C_30  and  C_36
REMARK   17  A    between atoms: C_32  and  C_35
REMARK                            x       y       z     vdW  Elec       q    Type
REMARK                         _______ _______ _______ _____ _____    ______ ____
ROOT
ATOM      1  C   UNL     1       3.683  -3.548  -3.295  0.00  0.00    +0.252 C 
ATOM      2  O   UNL     1       3.945  -2.679  -4.104  0.00  0.00    -0.270 OA
ATOM      3  N   UNL     1       4.538  -4.572  -3.104  0.00  0.00    -0.246 N 
ATOM      4  C   UNL     1       5.769  -4.572  -3.736  0.00  0.00    +0.168 A 
ATOM      5  N   UNL     1       6.724  -5.472  -3.680  0.00  0.00    -0.224 NA
ATOM      6  C   UNL     1       7.885  -5.341  -4.357  0.00  0.00    +0.081 A 
ATOM      7  C   UNL     1       8.986  -6.230  -4.382  0.00  0.00    +0.032 A 
ATOM      8  C   UNL     1      10.099  -5.944  -5.128  0.00  0.00    -0.048 A 
ATOM      9  C   UNL     1      10.189  -4.782  -5.881  0.00  0.00    +0.008 A 
ATOM     10  C   UNL     1       9.131  -3.891  -5.880  0.00  0.00    -0.034 A 
ATOM     11  C   UNL     1       8.012  -4.169  -5.136  0.00  0.00    +0.044 A 
ATOM     12  S   UNL     1       6.462  -3.352  -4.844  0.00  0.00    -0.052 S 
ATOM     13  C   UNL     1       9.207  -2.623  -6.690  0.00  0.00    +0.045 C 
ATOM     14  C   UNL     1      11.252  -6.913  -5.130  0.00  0.00    +0.044 C 
ENDROOT
BRANCH   1  18
ATOM     15  C   UNL     1       0.069  -3.356  -1.073  0.00  0.00    +0.106 A 
ATOM     16  C   UNL     1       0.851  -2.224  -1.213  0.00  0.00    +0.029 A 
ATOM     17  C   UNL     1       2.026  -2.280  -1.934  0.00  0.00    +0.015 A 
ATOM     18  C   UNL     1       2.425  -3.481  -2.522  0.00  0.00    +0.037 A 
ATOM     19  C   UNL     1       1.631  -4.620  -2.376  0.00  0.00    +0.015 A 
ATOM     20  C   UNL     1       0.461  -4.552  -1.648  0.00  0.00    +0.029 A 
BRANCH  15  21
ATOM     21  S   UNL     1      -1.431  -3.277  -0.151  0.00  0.00    +0.061 S 
ATOM     22  O   UNL     1      -2.253  -4.336  -0.620  0.00  0.00    -0.153 OA
ATOM     23  O   UNL     1      -1.851  -1.919  -0.174  0.00  0.00    -0.153 OA
BRANCH  21  24
ATOM     24  N   UNL     1      -1.057  -3.630   1.423  0.00  0.00    -0.177 NA
BRANCH  24  25
ATOM     25  C   UNL     1      -0.687  -2.554   2.347  0.00  0.00    +0.109 C 
BRANCH  25  27
ATOM     26  C   UNL     1       1.224  -1.304   3.361  0.00  0.00    +0.005 C 
ATOM     27  C   UNL     1       0.837  -2.427   2.397  0.00  0.00    +0.014 C 
ENDBRANCH  25  27
ENDBRANCH  24  25
BRANCH  24  28
ATOM     28  C   UNL     1      -1.097  -5.017   1.893  0.00  0.00    +0.109 C 
BRANCH  28  29
ATOM     29  C   UNL     1      -2.457  -5.299   2.535  0.00  0.00    +0.014 C 
ATOM     30  C   UNL     1      -2.498  -6.748   3.025  0.00  0.00    +0.005 C 
ENDBRANCH  28  29
ENDBRANCH  24  28
ENDBRANCH  21  24
ENDBRANCH  15  21
ENDBRANCH   1  18
BRANCH   3  31
ATOM     31  C   UNL     1       4.165  -5.684  -2.227  0.00  0.00    +0.114 C 
BRANCH  31  32
ATOM     32  C   UNL     1       3.641  -6.847  -3.073  0.00  0.00    +0.001 C 
BRANCH  32  33
ATOM     33  C   UNL     1       3.126  -7.955  -2.153  0.00  0.00    -0.078 C 
BRANCH  33  34
ATOM     34  N   UNL     1       2.623  -9.071  -2.965  0.00  0.00    +0.376 N 
ATOM     35  C   UNL     1       2.239 -10.183  -2.085  0.00  0.00    -0.097 C 
ATOM     36  C   UNL     1       1.452  -8.629  -3.733  0.00  0.00    -0.097 C 
ATOM     37  H   UNL     1       3.345  -9.378  -3.599  0.00  0.00    -0.083 HD
ENDBRANCH  33  34
ENDBRANCH  32  33
ENDBRANCH  31  32
ENDBRANCH   3  31
TORSDOF 11
