REMARK  Name = ZINC12660031
REMARK  4 active torsions:
REMARK  status: ('A' for Active; 'I' for Inactive)
REMARK    1  A    between atoms: C_1  and  C_2
REMARK    2  A    between atoms: C_19  and  C_21
REMARK    3  A    between atoms: C_21  and  N_57
REMARK    4  A    between atoms: C_22  and  N_57
REMARK                            x       y       z     vdW  Elec       q    Type
REMARK                         _______ _______ _______ _____ _____    ______ ____
ROOT
ATOM      1  C   UNL     1       2.942  -1.506  -5.073  0.00  0.00    +0.012 C 
ATOM      2  C   UNL     1       3.903  -1.000  -3.993  0.00  0.00    -0.022 C 
ATOM      3  C   UNL     1       5.326  -1.426  -4.326  0.00  0.00    +0.007 C 
ATOM      4  C   UNL     1       5.452  -2.944  -4.417  0.00  0.00    +0.005 C 
ATOM      5  C   UNL     1       5.021  -3.605  -3.107  0.00  0.00    +0.030 C 
ATOM      6  C   UNL     1       3.664  -3.078  -2.702  0.00  0.00    -0.073 C 
ATOM      7  C   UNL     1       2.677  -3.890  -2.415  0.00  0.00    +0.008 C 
ATOM      8  C   UNL     1       3.485  -1.569  -2.632  0.00  0.00    +0.021 C 
ATOM      9  C   UNL     1       4.422  -1.041  -1.552  0.00  0.00    +0.016 C 
ATOM     10  C   UNL     1       4.666   0.435  -1.552  0.00  0.00    +0.042 C 
ATOM     11  C   UNL     1       4.771   1.110  -2.923  0.00  0.00    +0.181 C 
ATOM     12  C   UNL     1       3.790   0.520  -3.935  0.00  0.00    +0.052 C 
ATOM     13  O   UNL     1       4.348   2.494  -2.684  0.00  0.00    -0.461 OA
ATOM     14  C   UNL     1       3.712   2.631  -1.514  0.00  0.00    +0.309 C 
ATOM     15  O   UNL     1       3.244   3.666  -1.086  0.00  0.00    -0.251 OA
ATOM     16  C   UNL     1       3.659   1.296  -0.789  0.00  0.00    +0.087 C 
ENDROOT
BRANCH  16  17
ATOM     17  C   UNL     1       2.242   0.733  -0.802  0.00  0.00    -0.067 C 
BRANCH  17  18
ATOM     18  N   UNL     1       1.367   1.607   0.003  0.00  0.00    +0.387 N 
ATOM     19  H   UNL     1       1.371   2.552  -0.399  0.00  0.00    -0.085 HD
ATOM     20  H   UNL     1       1.719   1.643   0.967  0.00  0.00    -0.085 HD
BRANCH  18  21
ATOM     21  C   UNL     1      -0.013   1.086   0.008  0.00  0.00    +0.016 C 
ATOM     22  C   UNL     1      -0.737   1.583   1.261  0.00  0.00    -0.007 C 
ATOM     23  C   UNL     1      -0.280   2.984   1.626  0.00  0.00    +0.000 C 
ATOM     24  C   UNL     1      -0.680   4.043   0.615  0.00  0.00    +0.019 C 
ATOM     25  C   UNL     1       0.053   3.834  -0.712  0.00  0.00    +0.104 C 
ATOM     26  N   UNL     1      -0.718   2.885  -1.532  0.00  0.00    -0.317 N 
ATOM     27  C   UNL     1      -0.753   1.591  -1.212  0.00  0.00    +0.199 C 
ATOM     28  O   UNL     1      -1.385   0.817  -1.900  0.00  0.00    -0.278 OA
ATOM     29  H   UNL     1      -1.201   3.203  -2.311  0.00  0.00    +0.149 HD
ENDBRANCH  18  21
ENDBRANCH  17  18
ENDBRANCH  16  17
TORSDOF 3
