REMARK  Name = ZINC06282255
REMARK  9 active torsions:
REMARK  status: ('A' for Active; 'I' for Inactive)
REMARK    1  A    between atoms: C_1  and  C_2
REMARK    2  A    between atoms: C_7  and  C_14
REMARK    3  A    between atoms: C_14  and  C_16
REMARK    4  A    between atoms: C_14  and  N_69
REMARK    5  A    between atoms: N_20  and  C_21
REMARK    6  A    between atoms: C_27  and  C_28
REMARK    7  A    between atoms: C_27  and  N_69
REMARK    8  A    between atoms: C_34  and  C_35
REMARK    9  A    between atoms: C_34  and  N_69
REMARK                            x       y       z     vdW  Elec       q    Type
REMARK                         _______ _______ _______ _____ _____    ______ ____
ROOT
ATOM      1  C   UNL     1       0.510  -3.742  -1.295  0.00  0.00    +0.040 C 
ENDROOT
BRANCH   1   8
ATOM      2  C   UNL     1       1.461  -8.611  -7.542  0.00  0.00    +0.044 C 
ATOM      3  C   UNL     1       1.407  -7.848  -6.243  0.00  0.00    -0.048 A 
ATOM      4  C   UNL     1       2.038  -8.362  -5.118  0.00  0.00    +0.004 A 
ATOM      5  C   UNL     1       2.001  -7.687  -3.931  0.00  0.00    +0.010 A 
ATOM      6  C   UNL     1       1.323  -6.466  -3.848  0.00  0.00    -0.001 A 
ATOM      7  C   UNL     1       1.263  -5.716  -2.592  0.00  0.00    +0.017 A 
ATOM      8  C   UNL     1       0.591  -4.539  -2.572  0.00  0.00    +0.011 A 
ATOM      9  C   UNL     1      -0.040  -4.060  -3.740  0.00  0.00    +0.251 A 
ATOM     10  O   UNL     1      -0.643  -3.002  -3.699  0.00  0.00    -0.268 OA
ATOM     11  N   UNL     1       0.014  -4.739  -4.900  0.00  0.00    -0.322 N 
ATOM     12  H   UNL     1      -0.427  -4.379  -5.685  0.00  0.00    +0.169 HD
ATOM     13  C   UNL     1       0.682  -5.942  -4.987  0.00  0.00    +0.049 A 
ATOM     14  C   UNL     1       0.733  -6.648  -6.184  0.00  0.00    +0.029 A 
ENDBRANCH   1   8
BRANCH   1  15
ATOM     15  C   UNL     1      -0.882  -3.843  -0.727  0.00  0.00    +0.143 A 
ATOM     16  N   UNL     1      -1.953  -3.228  -1.167  0.00  0.00    -0.115 NA
ATOM     17  N   UNL     1      -2.945  -3.573  -0.420  0.00  0.00    -0.023 NA
ATOM     18  N   UNL     1      -2.533  -4.385   0.490  0.00  0.00    -0.044 NA
ATOM     19  N   UNL     1      -1.266  -4.577   0.334  0.00  0.00    -0.227 N 
BRANCH  19  20
ATOM     20  C   UNL     1      -0.408  -5.432   1.157  0.00  0.00    +0.111 C 
ATOM     21  C   UNL     1      -0.916  -6.874   1.096  0.00  0.00    +0.027 C 
ATOM     22  C   UNL     1      -0.019  -7.768   1.956  0.00  0.00    +0.002 C 
ATOM     23  C   UNL     1      -0.049  -7.277   3.404  0.00  0.00    +0.000 C 
ATOM     24  C   UNL     1       0.459  -5.835   3.465  0.00  0.00    +0.002 C 
ATOM     25  C   UNL     1      -0.437  -4.941   2.606  0.00  0.00    +0.027 C 
ENDBRANCH  19  20
ENDBRANCH   1  15
BRANCH   1  26
ATOM     26  N   UNL     1       0.809  -2.327  -1.599  0.00  0.00    +0.397 N 
ATOM     27  H   UNL     1       0.285  -2.048  -2.437  0.00  0.00    -0.079 HD
BRANCH  26  28
ATOM     28  C   UNL     1       0.398  -1.470  -0.468  0.00  0.00    -0.039 C 
BRANCH  28  29
ATOM     29  C   UNL     1       0.508  -0.026  -0.887  0.00  0.00    -0.046 A 
ATOM     30  C   UNL     1       1.683   0.679  -0.676  0.00  0.00    +0.005 A 
ATOM     31  C   UNL     1       1.739   2.004  -1.078  0.00  0.00    +0.020 A 
ATOM     32  C   UNL     1       0.629   2.575  -1.672  0.00  0.00    +0.111 A 
ATOM     33  N   UNL     1      -0.472   1.874  -1.856  0.00  0.00    -0.263 NA
ATOM     34  C   UNL     1      -0.561   0.611  -1.486  0.00  0.00    +0.112 A 
ENDBRANCH  28  29
ENDBRANCH  26  28
BRANCH  26  35
ATOM     35  C   UNL     1       2.255  -2.161  -1.860  0.00  0.00    -0.001 C 
BRANCH  35  36
ATOM     36  C   UNL     1       2.561  -2.688  -3.238  0.00  0.00    +0.089 A 
ATOM     37  C   UNL     1       2.383  -2.022  -4.393  0.00  0.00    +0.042 A 
ATOM     38  C   UNL     1       2.797  -2.886  -5.432  0.00  0.00    +0.041 A 
ATOM     39  C   UNL     1       3.204  -4.029  -4.851  0.00  0.00    +0.195 A 
ATOM     40  O   UNL     1       3.064  -3.901  -3.521  0.00  0.00    -0.470 OA
ENDBRANCH  35  36
ENDBRANCH  26  35
ENDBRANCH   1  26
TORSDOF 8
