REMARK  Name = ZINC58342843
REMARK  6 active torsions:
REMARK  status: ('A' for Active; 'I' for Inactive)
REMARK    1  A    between atoms: C_1  and  C_2
REMARK    2  A    between atoms: C_4  and  C_23
REMARK    3  A    between atoms: N_10  and  C_12
REMARK    4  A    between atoms: C_12  and  C_13
REMARK    5  A    between atoms: C_13  and  C_15
REMARK    6  A    between atoms: C_13  and  O_22
REMARK                            x       y       z     vdW  Elec       q    Type
REMARK                         _______ _______ _______ _____ _____    ______ ____
ROOT
ATOM      1  C   UNL     1      -0.018   1.503   0.010  0.00  0.00    +0.068 C 
ATOM      2  C   UNL     1       0.002  -0.004   0.002  0.00  0.00    +0.071 A 
ATOM      3  C   UNL     1      -1.257  -0.754   0.004  0.00  0.00    +0.072 A 
ATOM      4  C   UNL     1      -2.587  -0.428   0.013  0.00  0.00    +0.144 A 
ATOM      5  O   UNL     1      -3.292  -1.567   0.010  0.00  0.00    -0.359 OA
ATOM      6  N   UNL     1      -2.407  -2.672  -0.001  0.00  0.00    -0.072 NA
ATOM      7  C   UNL     1      -1.182  -2.227  -0.005  0.00  0.00    +0.181 A 
ATOM      8  C   UNL     1       0.162  -2.837  -0.015  0.00  0.00    +0.297 A 
ATOM      9  O   UNL     1       0.295  -4.047  -0.023  0.00  0.00    -0.264 OA
ATOM     10  N   UNL     1       1.240  -2.026  -0.015  0.00  0.00    -0.225 N 
ATOM     11  N   UNL     1       1.134  -0.638  -0.012  0.00  0.00    -0.173 NA
ATOM     12  C   UNL     1      -3.157   0.967   0.024  0.00  0.00    +0.090 C 
ENDROOT
BRANCH  10  13
ATOM     13  C   UNL     1       2.575  -2.630  -0.025  0.00  0.00    +0.183 C 
BRANCH  13  14
ATOM     14  C   UNL     1       3.033  -2.832  -1.471  0.00  0.00    +0.166 C 
BRANCH  14  15
ATOM     15  C   UNL     1       4.350  -3.564  -1.483  0.00  0.00    -0.015 A 
ATOM     16  C   UNL     1       5.524  -2.877  -1.238  0.00  0.00    +0.006 A 
ATOM     17  C   UNL     1       6.734  -3.547  -1.249  0.00  0.00    +0.003 A 
ATOM     18  C   UNL     1       6.770  -4.904  -1.505  0.00  0.00    +0.038 A 
ATOM     19  C   UNL     1       5.594  -5.593  -1.751  0.00  0.00    +0.124 A 
ATOM     20  C   UNL     1       4.383  -4.922  -1.734  0.00  0.00    +0.044 A 
ATOM     21  F   UNL     1       5.628  -6.920  -2.003  0.00  0.00    -0.205 F 
ENDBRANCH  14  15
BRANCH  14  22
ATOM     22  O   UNL     1       3.189  -1.560  -2.103  0.00  0.00    -0.385 OA
ATOM     23  H   UNL     1       3.838  -0.985  -1.676  0.00  0.00    +0.210 HD
ENDBRANCH  14  22
ENDBRANCH  13  14
ENDBRANCH  10  13
TORSDOF 4
