REMARK  Name = ZINC09850824
REMARK  7 active torsions:
REMARK  status: ('A' for Active; 'I' for Inactive)
REMARK    1  A    between atoms: C_4  and  C_7
REMARK    2  A    between atoms: C_8  and  C_9
REMARK    3  A    between atoms: C_9  and  N_60
REMARK    4  A    between atoms: C_15  and  C_17
REMARK    5  A    between atoms: C_17  and  C_19
REMARK    6  A    between atoms: C_17  and  N_28
REMARK    7  A    between atoms: C_19  and  C_21
REMARK                            x       y       z     vdW  Elec       q    Type
REMARK                         _______ _______ _______ _____ _____    ______ ____
ROOT
ATOM      1  C   UNL     1      -5.705   1.834  -3.300  0.00  0.00    -0.059 C 
ATOM      2  C   UNL     1      -4.178   1.714  -3.351  0.00  0.00    +0.089 C 
ATOM      3  N   UNL     1      -3.717   1.088  -2.102  0.00  0.00    -0.303 N 
ATOM      4  C   UNL     1      -4.349  -0.172  -1.681  0.00  0.00    +0.089 C 
ATOM      5  C   UNL     1      -5.873   0.026  -1.692  0.00  0.00    -0.059 C 
ATOM      6  C   UNL     1      -2.737   1.650  -1.367  0.00  0.00    +0.246 C 
ATOM      7  O   UNL     1      -2.157   2.632  -1.779  0.00  0.00    -0.273 OA
ATOM      8  N   UNL     1      -6.278   0.497  -3.035  0.00  0.00    +0.384 N 
ATOM      9  H   UNL     1      -5.925  -0.162  -3.739  0.00  0.00    -0.081 HD
ENDROOT
BRANCH   8  10
ATOM     10  C   UNL     1      -7.752   0.553  -3.126  0.00  0.00    -0.051 C 
BRANCH  10  12
ATOM     11  C   UNL     1      -9.246  -0.701  -1.636  0.00  0.00    +0.002 C 
ATOM     12  C   UNL     1      -8.329  -0.733  -2.592  0.00  0.00    -0.045 C 
BRANCH  11  16
ATOM     13  C   UNL     1     -10.872  -4.325  -0.132  0.00  0.00    +0.000 A 
ATOM     14  C   UNL     1     -11.301  -3.114   0.379  0.00  0.00    +0.001 A 
ATOM     15  C   UNL     1     -10.777  -1.933  -0.105  0.00  0.00    +0.008 A 
ATOM     16  C   UNL     1      -9.811  -1.963  -1.112  0.00  0.00    -0.025 A 
ATOM     17  C   UNL     1      -9.386  -3.188  -1.627  0.00  0.00    +0.008 A 
ATOM     18  C   UNL     1      -9.914  -4.362  -1.130  0.00  0.00    +0.001 A 
ENDBRANCH  11  16
ENDBRANCH  10  12
ENDBRANCH   8  10
BRANCH   6  19
ATOM     19  C   UNL     1      -2.363   1.060  -0.032  0.00  0.00    +0.247 C 
BRANCH  19  20
ATOM     20  N   UNL     1      -0.935   0.734  -0.025  0.00  0.00    -0.296 N 
ATOM     21  C   UNL     1      -0.021   1.720  -0.216  0.00  0.00    +0.090 A 
ATOM     22  C   UNL     1       1.304   1.443  -0.219  0.00  0.00    +0.018 A 
ATOM     23  C   UNL     1       1.744   0.127  -0.019  0.00  0.00    +0.007 A 
ATOM     24  C   UNL     1       0.825  -0.861   0.178  0.00  0.00    +0.070 A 
ATOM     25  C   UNL     1      -0.543  -0.538   0.175  0.00  0.00    +0.252 A 
ATOM     26  O   UNL     1      -1.376  -1.413   0.350  0.00  0.00    -0.268 OA
ENDBRANCH  19  20
BRANCH  19  27
ATOM     27  C   UNL     1      -2.657   2.057   1.059  0.00  0.00    +0.195 C 
ATOM     28  O   UNL     1      -1.787   2.811   1.441  0.00  0.00    -0.289 OA
BRANCH  27  29
ATOM     29  C   UNL     1      -3.998   2.116   1.660  0.00  0.00    +0.020 A 
ATOM     30  C   UNL     1      -4.973   1.180   1.298  0.00  0.00    +0.012 A 
ATOM     31  C   UNL     1      -6.226   1.239   1.869  0.00  0.00    +0.016 A 
ATOM     32  C   UNL     1      -6.524   2.228   2.792  0.00  0.00    +0.018 A 
ATOM     33  C   UNL     1      -5.566   3.162   3.151  0.00  0.00    +0.016 A 
ATOM     34  C   UNL     1      -4.307   3.112   2.592  0.00  0.00    +0.012 A 
ATOM     35 BR   UNL     1      -8.248   2.304   3.565  0.00  0.00    -0.050 Br
ENDBRANCH  27  29
ENDBRANCH  19  27
ENDBRANCH   6  19
TORSDOF 7
