REMARK  Name = ZINC36309292
REMARK  14 active torsions:
REMARK  status: ('A' for Active; 'I' for Inactive)
REMARK    1  A    between atoms: C_2  and  C_3
REMARK    2  A    between atoms: C_3  and  N_4
REMARK    3  A    between atoms: N_4  and  C_5
REMARK    4  A    between atoms: N_4  and  C_14
REMARK    5  A    between atoms: C_5  and  C_6
REMARK    6  A    between atoms: C_6  and  C_8
REMARK    7  A    between atoms: C_6  and  O_13
REMARK    8  A    between atoms: C_8  and  O_9
REMARK    9  A    between atoms: O_9  and  C_10
REMARK   10  A    between atoms: C_10  and  C_11
REMARK   11  A    between atoms: C_14  and  C_15
REMARK   12  A    between atoms: C_25  and  C_27
REMARK   13  A    between atoms: C_27  and  O_28
REMARK   14  A    between atoms: O_28  and  C_29
REMARK                            x       y       z     vdW  Elec       q    Type
REMARK                         _______ _______ _______ _____ _____    ______ ____
ROOT
ATOM      1  C   UNL     1       3.733  -0.989   1.616  0.00  0.00    +0.200 C 
ATOM      2  O   UNL     1       3.330   0.155   1.612  0.00  0.00    -0.278 OA
ATOM      3  N   UNL     1       5.040  -1.241   1.830  0.00  0.00    -0.292 N 
ATOM      4  C   UNL     1       5.542  -2.624   1.830  0.00  0.00    +0.113 C 
ATOM      5  C   UNL     1       6.508  -2.787   0.647  0.00  0.00    +0.061 C 
ATOM      6  C   UNL     1       7.392  -1.584   0.581  0.00  0.00    -0.004 A 
ATOM      7  C   UNL     1       7.208  -0.378   1.184  0.00  0.00    -0.014 A 
ATOM      8  C   UNL     1       8.184   0.592   0.954  0.00  0.00    +0.013 A 
ATOM      9  C   UNL     1       9.248   0.307   0.170  0.00  0.00    +0.046 A 
ATOM     10  S   UNL     1       8.920  -1.386  -0.297  0.00  0.00    -0.101 S 
ATOM     11  C   UNL     1       5.984  -0.139   2.059  0.00  0.00    +0.144 C 
ENDROOT
BRANCH   1  12
ATOM     12  C   UNL     1       2.774  -2.127   1.382  0.00  0.00    +0.019 C 
BRANCH  12  13
ATOM     13  N   UNL     1       1.421  -1.593   1.177  0.00  0.00    +0.389 N 
ATOM     14  H   UNL     1       1.168  -1.008   1.959  0.00  0.00    -0.081 HD
BRANCH  13  15
ATOM     15  C   UNL     1       1.390  -0.799  -0.059  0.00  0.00    -0.051 C 
BRANCH  15  17
ATOM     16  C   UNL     1      -0.031   1.167  -0.335  0.00  0.00    +0.002 C 
ATOM     17  C   UNL     1       0.045  -0.133  -0.194  0.00  0.00    -0.053 C 
ENDBRANCH  15  17
ENDBRANCH  13  15
BRANCH  13  18
ATOM     18  C   UNL     1       0.467  -2.705   1.068  0.00  0.00    -0.044 C 
BRANCH  18  19
ATOM     19  C   UNL     1       0.391  -3.444   2.406  0.00  0.00    +0.124 C 
BRANCH  19  20
ATOM     20  O   UNL     1      -0.050  -2.543   3.424  0.00  0.00    -0.391 OA
ATOM     21  H   UNL     1      -0.952  -2.218   3.298  0.00  0.00    +0.210 HD
ENDBRANCH  19  20
BRANCH  19  22
ATOM     22  C   UNL     1      -0.598  -4.606   2.291  0.00  0.00    +0.190 C 
BRANCH  22  23
ATOM     23  O   UNL     1      -0.583  -5.366   3.501  0.00  0.00    -0.365 OA
BRANCH  23  24
ATOM     24  C   UNL     1      -1.477  -6.481   3.498  0.00  0.00    +0.248 C 
BRANCH  24  25
ATOM     25  C   UNL     1      -1.381  -7.189   4.785  0.00  0.00    -0.077 C 
ATOM     26  C   UNL     1      -1.305  -7.754   5.811  0.00  0.00    +0.006 C 
ENDBRANCH  24  25
ENDBRANCH  23  24
ENDBRANCH  22  23
ENDBRANCH  19  22
ENDBRANCH  18  19
ENDBRANCH  13  18
ENDBRANCH  12  13
ENDBRANCH   1  12
BRANCH  11  27
ATOM     27  C   UNL     1       6.402  -0.112   3.530  0.00  0.00    +0.256 C 
BRANCH  27  28
ATOM     28  O   UNL     1       7.132  -1.301   3.840  0.00  0.00    -0.490 OA
BRANCH  28  29
ATOM     29  C   UNL     1       7.579  -1.436   5.117  0.00  0.00    +0.121 A 
ATOM     30  C   UNL     1       7.315  -0.447   6.053  0.00  0.00    +0.047 A 
ATOM     31  C   UNL     1       7.771  -0.585   7.349  0.00  0.00    +0.023 A 
ATOM     32  C   UNL     1       8.490  -1.709   7.715  0.00  0.00    +0.041 A 
ATOM     33  C   UNL     1       8.754  -2.697   6.782  0.00  0.00    +0.023 A 
ATOM     34  C   UNL     1       8.294  -2.565   5.486  0.00  0.00    +0.047 A 
ATOM     35 CL   UNL     1       9.061  -1.881   9.345  0.00  0.00    -0.084 Cl
ENDBRANCH  28  29
ENDBRANCH  27  28
ENDBRANCH  11  27
TORSDOF 14
