REMARK  Name = ZINC09344455
REMARK  8 active torsions:
REMARK  status: ('A' for Active; 'I' for Inactive)
REMARK    1  A    between atoms: C_1  and  O_2
REMARK    2  A    between atoms: O_2  and  C_3
REMARK    3  A    between atoms: C_6  and  C_9
REMARK    4  A    between atoms: C_20  and  C_22
REMARK    5  A    between atoms: C_24  and  O_30
REMARK    6  A    between atoms: C_27  and  O_28
REMARK    7  A    between atoms: O_28  and  C_29
REMARK    8  A    between atoms: O_30  and  C_31
REMARK                            x       y       z     vdW  Elec       q    Type
REMARK                         _______ _______ _______ _____ _____    ______ ____
ROOT
ATOM      1  C   UNL     1       2.529  -2.116  -4.481  0.00  0.00    +0.159 C 
ATOM      2  C   UNL     1       1.480  -2.833  -5.302  0.00  0.00    +0.027 C 
ATOM      3  C   UNL     1       1.561  -4.176  -5.401  0.00  0.00    +0.083 C 
ATOM      4  C   UNL     1       0.530  -4.865  -6.218  0.00  0.00    +0.042 A 
ATOM      5  C   UNL     1       0.331  -6.236  -6.127  0.00  0.00    +0.013 A 
ATOM      6  C   UNL     1      -0.642  -6.837  -6.904  0.00  0.00    +0.001 A 
ATOM      7  C   UNL     1      -1.413  -6.077  -7.766  0.00  0.00    +0.004 A 
ATOM      8  C   UNL     1      -1.219  -4.711  -7.863  0.00  0.00    +0.046 A 
ATOM      9  C   UNL     1      -0.249  -4.096  -7.092  0.00  0.00    +0.131 A 
ATOM     10  O   UNL     1      -0.033  -2.758  -7.172  0.00  0.00    -0.479 OA
ATOM     11  C   UNL     1       0.373  -2.081  -5.980  0.00  0.00    +0.238 C 
ATOM     12  N   UNL     1       2.544  -4.875  -4.783  0.00  0.00    -0.213 NA
ATOM     13  C   UNL     1       3.491  -4.332  -4.054  0.00  0.00    +0.237 C 
ATOM     14  N   UNL     1       3.548  -2.970  -3.858  0.00  0.00    -0.208 N 
ATOM     15  N   UNL     1       4.659  -2.731  -3.047  0.00  0.00    -0.251 N 
ATOM     16  C   UNL     1       5.216  -3.946  -2.787  0.00  0.00    +0.203 C 
ATOM     17  N   UNL     1       4.531  -4.872  -3.379  0.00  0.00    -0.205 NA
ATOM     18  H   UNL     1       4.972  -1.869  -2.732  0.00  0.00    +0.171 HD
ENDROOT
BRANCH   1  22
ATOM     19  C   UNL     1       0.543   0.064  -1.388  0.00  0.00    +0.120 A 
ATOM     20  C   UNL     1       0.889   0.698  -2.573  0.00  0.00    +0.046 A 
ATOM     21  C   UNL     1       1.531  -0.009  -3.571  0.00  0.00    +0.009 A 
ATOM     22  C   UNL     1       1.829  -1.347  -3.391  0.00  0.00    -0.021 A 
ATOM     23  C   UNL     1       1.485  -1.981  -2.211  0.00  0.00    +0.009 A 
ATOM     24  C   UNL     1       0.849  -1.277  -1.207  0.00  0.00    +0.046 A 
BRANCH  19  26
ATOM     25  C   UNL     1      -0.370   2.135  -0.660  0.00  0.00    +0.277 C 
ATOM     26  O   UNL     1      -0.088   0.757  -0.405  0.00  0.00    -0.495 OA
ENDBRANCH  19  26
ENDBRANCH   1  22
BRANCH  11  27
ATOM     27  C   UNL     1      -0.803  -1.973  -5.044  0.00  0.00    +0.042 A 
ATOM     28  C   UNL     1      -1.051  -2.976  -4.127  0.00  0.00    +0.056 A 
ATOM     29  C   UNL     1      -2.132  -2.876  -3.265  0.00  0.00    +0.121 A 
ATOM     30  C   UNL     1      -2.965  -1.768  -3.323  0.00  0.00    +0.049 A 
ATOM     31  C   UNL     1      -2.718  -0.765  -4.239  0.00  0.00    +0.049 A 
ATOM     32  C   UNL     1      -1.633  -0.863  -5.098  0.00  0.00    +0.127 A 
BRANCH  32  33
ATOM     33  O   UNL     1      -1.386   0.127  -5.997  0.00  0.00    -0.495 OA
ATOM     34  C   UNL     1      -2.243   1.270  -5.955  0.00  0.00    +0.277 C 
ENDBRANCH  32  33
BRANCH  29  35
ATOM     35  O   UNL     1      -2.376  -3.864  -2.363  0.00  0.00    -0.495 OA
ATOM     36  C   UNL     1      -3.507  -3.695  -1.506  0.00  0.00    +0.277 C 
ENDBRANCH  29  35
ENDBRANCH  11  27
TORSDOF 5
