REMARK  Name = ZINC32072929
REMARK  2 active torsions:
REMARK  status: ('A' for Active; 'I' for Inactive)
REMARK    1  A    between atoms: N_16  and  C_17
REMARK    2  A    between atoms: C_20  and  C_23
REMARK                            x       y       z     vdW  Elec       q    Type
REMARK                         _______ _______ _______ _____ _____    ______ ____
ROOT
ATOM      1  C   UNL     1      -0.017   1.386   0.010  0.00  0.00    +0.000 A 
ATOM      2  C   UNL     1       1.151   2.121   0.003  0.00  0.00    +0.002 A 
ATOM      3  C   UNL     1       2.398   1.516  -0.012  0.00  0.00    +0.023 A 
ATOM      4  C   UNL     1       2.432   0.121  -0.020  0.00  0.00    +0.038 A 
ATOM      5  C   UNL     1       1.238  -0.613  -0.013  0.00  0.00    -0.006 A 
ATOM      6  C   UNL     1       0.002  -0.004   0.002  0.00  0.00    +0.007 A 
ATOM      7  C   UNL     1       1.635  -2.054  -0.021  0.00  0.00    +0.111 C 
ATOM      8  C   UNL     1       1.131  -2.773   1.229  0.00  0.00    +0.122 C 
ATOM      9  C   UNL     1      -0.318  -3.152   1.090  0.00  0.00    +0.220 C 
ATOM     10  O   UNL     1      -1.040  -3.078   2.062  0.00  0.00    -0.275 OA
ATOM     11  N   UNL     1      -0.839  -3.574  -0.082  0.00  0.00    -0.270 N 
ATOM     12  C   UNL     1      -0.060  -3.466  -1.232  0.00  0.00    +0.133 A 
ATOM     13  C   UNL     1       1.116  -2.758  -1.243  0.00  0.00    +0.032 A 
ATOM     14  C   UNL     1       1.651  -2.841  -2.520  0.00  0.00    +0.141 A 
ATOM     15  N   UNL     1       0.839  -3.555  -3.263  0.00  0.00    -0.173 NA
ATOM     16  N   UNL     1      -0.253  -3.954  -2.474  0.00  0.00    -0.218 N 
ATOM     17  C   UNL     1       3.148  -2.029  -0.034  0.00  0.00    +0.233 C 
ATOM     18  O   UNL     1       3.886  -2.992  -0.044  0.00  0.00    -0.274 OA
ATOM     19  N   UNL     1       3.521  -0.732  -0.034  0.00  0.00    -0.284 N 
ATOM     20  H   UNL     1      -1.736  -3.942  -0.122  0.00  0.00    +0.156 HD
ATOM     21  H   UNL     1       4.444  -0.433  -0.043  0.00  0.00    +0.155 HD
ENDROOT
BRANCH  16  22
ATOM     22  C   UNL     1      -1.345  -4.721  -2.900  0.00  0.00    +0.067 A 
ATOM     23  C   UNL     1      -1.941  -5.626  -2.031  0.00  0.00    +0.028 A 
ATOM     24  C   UNL     1      -3.018  -6.380  -2.454  0.00  0.00    +0.014 A 
ATOM     25  C   UNL     1      -3.503  -6.235  -3.741  0.00  0.00    +0.055 A 
ATOM     26  C   UNL     1      -2.911  -5.336  -4.609  0.00  0.00    +0.014 A 
ATOM     27  C   UNL     1      -1.838  -4.574  -4.190  0.00  0.00    +0.028 A 
BRANCH  25  28
ATOM     28  C   UNL     1      -4.678  -7.060  -4.200  0.00  0.00    +0.417 C 
ATOM     29  F   UNL     1      -5.865  -6.373  -3.925  0.00  0.00    -0.166 F 
ATOM     30  F   UNL     1      -4.578  -7.289  -5.576  0.00  0.00    -0.166 F 
ATOM     31  F   UNL     1      -4.680  -8.285  -3.523  0.00  0.00    -0.166 F 
ENDBRANCH  25  28
ENDBRANCH  16  22
TORSDOF 2
