REMARK  Name = ZINC13532596
REMARK  5 active torsions:
REMARK  status: ('A' for Active; 'I' for Inactive)
REMARK    1  A    between atoms: C_4  and  O_27
REMARK    2  A    between atoms: C_5  and  C_7
REMARK    3  A    between atoms: N_8  and  N_9
REMARK    4  A    between atoms: C_10  and  C_12
REMARK    5  A    between atoms: C_12  and  N_13
REMARK                            x       y       z     vdW  Elec       q    Type
REMARK                         _______ _______ _______ _____ _____    ______ ____
ROOT
ATOM      1  C   UNL     1       3.602  -4.670  -1.219  0.00  0.00    +0.223 C 
ENDROOT
BRANCH   1   2
ATOM      2  N   UNL     1       2.793  -3.479  -0.947  0.00  0.00    -0.290 N 
ATOM      3  C   UNL     1       1.715  -3.602  -0.136  0.00  0.00    +0.203 A 
ATOM      4  N   UNL     1       0.928  -2.594   0.168  0.00  0.00    -0.230 NA
ATOM      5  C   UNL     1       1.224  -1.408  -0.356  0.00  0.00    +0.116 A 
ATOM      6  C   UNL     1       2.325  -1.178  -1.210  0.00  0.00    +0.076 A 
ATOM      7  C   UNL     1       3.159  -2.306  -1.516  0.00  0.00    +0.263 A 
ATOM      8  O   UNL     1       4.133  -2.214  -2.243  0.00  0.00    -0.267 OA
ATOM      9  C   UNL     1       2.492   0.182  -1.688  0.00  0.00    -0.023 A 
ATOM     10  C   UNL     1       1.579   1.090  -1.268  0.00  0.00    -0.004 A 
ATOM     11  S   UNL     1       0.466   0.180  -0.227  0.00  0.00    -0.073 S 
ATOM     12  C   UNL     1       1.524   2.546  -1.611  0.00  0.00    +0.043 C 
ATOM     13  C   UNL     1       2.874   2.954  -2.218  0.00  0.00    +0.005 C 
ATOM     14  C   UNL     1       3.263   1.926  -3.284  0.00  0.00    +0.005 C 
ATOM     15  C   UNL     1       3.630   0.600  -2.617  0.00  0.00    +0.037 C 
ENDBRANCH   1   2
BRANCH   1  17
ATOM     16  N   UNL     1       3.655  -6.500  -2.882  0.00  0.00    -0.206 N 
ATOM     17  C   UNL     1       3.065  -5.372  -2.440  0.00  0.00    +0.252 C 
ATOM     18  O   UNL     1       2.102  -4.922  -3.024  0.00  0.00    -0.272 OA
ATOM     19  H   UNL     1       4.425  -6.860  -2.415  0.00  0.00    +0.177 HD
BRANCH  16  21
ATOM     20  C   UNL     1       3.655  -8.296  -4.380  0.00  0.00    +0.142 C 
ATOM     21  N   UNL     1       3.156  -7.154  -4.017  0.00  0.00    -0.188 NA
BRANCH  20  26
ATOM     22  C   UNL     1       5.321  -9.522  -1.250  0.00  0.00    +0.001 A 
ATOM     23  C   UNL     1       6.255 -10.404  -1.766  0.00  0.00    +0.004 A 
ATOM     24  C   UNL     1       6.348 -10.603  -3.131  0.00  0.00    +0.046 A 
ATOM     25  C   UNL     1       5.505  -9.920  -3.992  0.00  0.00    +0.125 A 
ATOM     26  C   UNL     1       4.557  -9.027  -3.473  0.00  0.00    +0.036 A 
ATOM     27  C   UNL     1       4.476  -8.831  -2.093  0.00  0.00    +0.013 A 
BRANCH  25  28
ATOM     28  O   UNL     1       5.595 -10.116  -5.333  0.00  0.00    -0.506 OA
ATOM     29  H   UNL     1       6.151  -9.468  -5.788  0.00  0.00    +0.292 HD
ENDBRANCH  25  28
ENDBRANCH  20  26
ENDBRANCH  16  21
ENDBRANCH   1  17
TORSDOF 5
