REMARK  Name = ZINC14656570
REMARK  9 active torsions:
REMARK  status: ('A' for Active; 'I' for Inactive)
REMARK    1  A    between atoms: C_1  and  C_2
REMARK    2  A    between atoms: C_2  and  C_3
REMARK    3  A    between atoms: C_3  and  C_4
REMARK    4  A    between atoms: C_4  and  N_5
REMARK    5  A    between atoms: C_6  and  N_33
REMARK    6  A    between atoms: C_7  and  N_14
REMARK    7  A    between atoms: N_14  and  C_15
REMARK    8  A    between atoms: C_16  and  C_18
REMARK    9  A    between atoms: C_20  and  C_28
REMARK                            x       y       z     vdW  Elec       q    Type
REMARK                         _______ _______ _______ _____ _____    ______ ____
ROOT
ATOM      1  N   UNL     1       1.296   3.480   0.380  0.00  0.00    -0.263 N 
ATOM      2  C   UNL     1       0.115   4.184   0.888  0.00  0.00    +0.139 C 
ATOM      3  C   UNL     1       2.365   4.180  -0.049  0.00  0.00    +0.251 C 
ATOM      4  O   UNL     1       3.375   3.597  -0.393  0.00  0.00    -0.270 OA
ENDROOT
BRANCH   3   5
ATOM      5  C   UNL     1       2.309   5.656  -0.102  0.00  0.00    +0.048 A 
ATOM      6  C   UNL     1       1.835   6.399   0.969  0.00  0.00    +0.042 A 
ATOM      7  C   UNL     1       1.805   7.801   0.877  0.00  0.00    +0.079 A 
ATOM      8  N   UNL     1       2.203   8.444  -0.204  0.00  0.00    -0.246 NA
ATOM      9  C   UNL     1       2.667   7.807  -1.281  0.00  0.00    +0.072 A 
ATOM     10  C   UNL     1       2.745   6.392  -1.290  0.00  0.00    +0.013 A 
ATOM     11  C   UNL     1       3.233   5.729  -2.421  0.00  0.00    +0.011 A 
ATOM     12  C   UNL     1       3.631   6.453  -3.507  0.00  0.00    +0.001 A 
ATOM     13  C   UNL     1       3.556   7.844  -3.504  0.00  0.00    +0.002 A 
ATOM     14  C   UNL     1       3.087   8.520  -2.420  0.00  0.00    +0.028 A 
BRANCH   7  15
ATOM     15  C   UNL     1       1.305   8.580   2.026  0.00  0.00    +0.038 A 
ATOM     16  C   UNL     1       1.185   9.939   2.162  0.00  0.00    +0.017 A 
ATOM     17  C   UNL     1       0.683  10.444   3.339  0.00  0.00    +0.008 A 
ATOM     18  C   UNL     1       0.331   9.585   4.332  0.00  0.00    +0.046 A 
ATOM     19  S   UNL     1       0.705   7.998   3.604  0.00  0.00    -0.095 S 
ENDBRANCH   7  15
ENDBRANCH   3   5
BRANCH   1  22
ATOM     20  N   UNL     1       0.525   0.008  -0.538  0.00  0.00    -0.280 N 
ATOM     21  C   UNL     1       0.484   1.383  -0.522  0.00  0.00    +0.127 A 
ATOM     22  C   UNL     1       1.313   2.071   0.340  0.00  0.00    +0.140 A 
ATOM     23  C   UNL     1       2.178   1.342   1.179  0.00  0.00    +0.277 A 
ATOM     24  O   UNL     1       2.921   1.925   1.950  0.00  0.00    -0.266 OA
ATOM     25  N   UNL     1       2.178  -0.004   1.124  0.00  0.00    -0.273 N 
ATOM     26  H   UNL     1       2.791  -0.523   1.719  0.00  0.00    +0.173 HD
ATOM     27  C   UNL     1       1.363  -0.658   0.277  0.00  0.00    +0.331 A 
ATOM     28  O   UNL     1       1.384  -1.873   0.247  0.00  0.00    -0.246 OA
BRANCH  21  29
ATOM     29  N   UNL     1      -0.368   2.063  -1.359  0.00  0.00    -0.343 N 
ATOM     30  H   UNL     1      -0.890   1.579  -2.018  0.00  0.00    +0.144 HD
ATOM     31  H   UNL     1      -0.447   3.027  -1.291  0.00  0.00    +0.144 HD
ENDBRANCH  21  29
BRANCH  20  32
ATOM     32  C   UNL     1      -0.349  -0.736  -1.449  0.00  0.00    +0.128 C 
BRANCH  32  33
ATOM     33  C   UNL     1       0.369  -0.952  -2.782  0.00  0.00    +0.021 C 
BRANCH  33  35
ATOM     34  C   UNL     1       0.175  -1.946  -5.067  0.00  0.00    +0.004 C 
ATOM     35  C   UNL     1      -0.544  -1.729  -3.733  0.00  0.00    -0.002 C 
ENDBRANCH  33  35
ENDBRANCH  32  33
ENDBRANCH  20  32
ENDBRANCH   1  22
TORSDOF 7
