REMARK  Name = ZINC64645070
REMARK  8 active torsions:
REMARK  status: ('A' for Active; 'I' for Inactive)
REMARK    1  A    between atoms: C_1  and  C_2
REMARK    2  A    between atoms: C_5  and  C_9
REMARK    3  A    between atoms: C_6  and  C_8
REMARK    4  A    between atoms: C_9  and  N_10
REMARK    5  A    between atoms: N_13  and  C_14
REMARK    6  A    between atoms: C_14  and  C_15
REMARK    7  A    between atoms: C_14  and  C_16
REMARK    8  A    between atoms: C_18  and  C_21
REMARK                            x       y       z     vdW  Elec       q    Type
REMARK                         _______ _______ _______ _____ _____    ______ ____
ROOT
ATOM      1  N   UNL     1      -1.293  -4.782   0.223  0.00  0.00    -0.295 N 
ATOM      2  C   UNL     1      -1.518  -6.111   0.260  0.00  0.00    +0.300 C 
ATOM      3  O   UNL     1      -0.599  -6.888   0.090  0.00  0.00    -0.253 OA
ATOM      4  N   UNL     1      -2.762  -6.577   0.485  0.00  0.00    -0.288 N 
ATOM      5  H   UNL     1      -2.026  -4.162   0.359  0.00  0.00    +0.151 HD
ATOM      6  H   UNL     1      -3.496  -5.957   0.620  0.00  0.00    +0.151 HD
ENDROOT
BRANCH   4   7
ATOM      7  C   UNL     1      -3.007  -8.021   0.525  0.00  0.00    +0.160 C 
ATOM      8  C   UNL     1      -2.713  -8.550   1.930  0.00  0.00    +0.038 C 
BRANCH   7   9
ATOM      9  C   UNL     1      -4.447  -8.296   0.176  0.00  0.00    +0.248 A 
ATOM     10  N   UNL     1      -4.870  -9.223  -0.636  0.00  0.00    -0.190 NA
ATOM     11  C   UNL     1      -6.212  -9.188  -0.717  0.00  0.00    +0.202 A 
ATOM     12  N   UNL     1      -6.652  -8.225   0.055  0.00  0.00    -0.056 NA
ATOM     13  O   UNL     1      -5.508  -7.633   0.652  0.00  0.00    -0.336 OA
BRANCH  11  14
ATOM     14  C   UNL     1      -7.053 -10.089  -1.542  0.00  0.00    +0.023 A 
ATOM     15  C   UNL     1      -6.460 -11.083  -2.318  0.00  0.00    +0.014 A 
ATOM     16  C   UNL     1      -7.246 -11.919  -3.083  0.00  0.00    +0.039 A 
ATOM     17  C   UNL     1      -8.624 -11.773  -3.081  0.00  0.00    +0.123 A 
ATOM     18  C   UNL     1      -9.218 -10.786  -2.310  0.00  0.00    +0.039 A 
ATOM     19  C   UNL     1      -8.440  -9.949  -1.538  0.00  0.00    +0.014 A 
ATOM     20  F   UNL     1      -9.390 -12.594  -3.832  0.00  0.00    -0.205 F 
ENDBRANCH  11  14
ENDBRANCH   7   9
ENDBRANCH   4   7
BRANCH   1  21
ATOM     21  C   UNL     1       0.059  -4.275  -0.021  0.00  0.00    +0.141 C 
BRANCH  21  26
ATOM     22  C   UNL     1      -0.018   1.503   0.010  0.00  0.00    +0.044 C 
ATOM     23  C   UNL     1       0.002  -0.004   0.002  0.00  0.00    -0.050 A 
ATOM     24  C   UNL     1       0.006  -0.689  -1.199  0.00  0.00    +0.004 A 
ATOM     25  C   UNL     1       0.025  -2.071  -1.207  0.00  0.00    +0.006 A 
ATOM     26  C   UNL     1       0.040  -2.768  -0.013  0.00  0.00    -0.027 A 
ATOM     27  C   UNL     1       0.037  -2.084   1.188  0.00  0.00    -0.046 A 
ATOM     28  C   UNL     1       0.023  -0.702   1.195  0.00  0.00    +0.007 A 
ATOM     29  C   UNL     1       0.054  -2.845   2.489  0.00  0.00    +0.044 C 
ENDBRANCH  21  26
ENDBRANCH   1  21
TORSDOF 5
