REMARK  Name = ZINC41143115
REMARK  7 active torsions:
REMARK  status: ('A' for Active; 'I' for Inactive)
REMARK    1  A    between atoms: C_1  and  C_2
REMARK    2  A    between atoms: C_2  and  C_3
REMARK    3  A    between atoms: C_2  and  C_4
REMARK    4  A    between atoms: C_7  and  C_10
REMARK    5  A    between atoms: C_13  and  C_23
REMARK    6  A    between atoms: N_15  and  C_16
REMARK    7  A    between atoms: C_23  and  N_24
REMARK                            x       y       z     vdW  Elec       q    Type
REMARK                         _______ _______ _______ _____ _____    ______ ____
ROOT
ATOM      1  C   UNL     1      -5.419  -2.005   0.043  0.00  0.00    +0.134 C 
ATOM      2  C   UNL     1      -6.308  -1.191  -0.919  0.00  0.00    +0.079 C 
ATOM      3  C   UNL     1      -6.772  -2.212  -1.933  0.00  0.00    +0.022 C 
ATOM      4  N   UNL     1      -6.284  -3.350  -1.650  0.00  0.00    -0.190 NA
ATOM      5  N   UNL     1      -5.474  -3.367  -0.512  0.00  0.00    -0.217 N 
ENDROOT
BRANCH   5   6
ATOM      6  C   UNL     1      -4.823  -4.486   0.012  0.00  0.00    +0.052 A 
ATOM      7  C   UNL     1      -4.046  -4.367   1.158  0.00  0.00    +0.026 A 
ATOM      8  C   UNL     1      -3.404  -5.476   1.673  0.00  0.00    +0.022 A 
ATOM      9  C   UNL     1      -3.534  -6.704   1.050  0.00  0.00    +0.041 A 
ATOM     10  C   UNL     1      -4.307  -6.826  -0.091  0.00  0.00    +0.022 A 
ATOM     11  C   UNL     1      -4.955  -5.723  -0.609  0.00  0.00    +0.026 A 
ATOM     12 CL   UNL     1      -2.724  -8.095   1.701  0.00  0.00    -0.084 Cl
ENDBRANCH   5   6
BRANCH   1  16
ATOM     13  C   UNL     1      -1.412  -0.526   0.013  0.00  0.00    -0.045 A 
ATOM     14  C   UNL     1      -2.259  -0.204   1.056  0.00  0.00    +0.004 A 
ATOM     15  C   UNL     1      -3.556  -0.683   1.066  0.00  0.00    +0.006 A 
ATOM     16  C   UNL     1      -4.006  -1.482   0.032  0.00  0.00    -0.025 A 
ATOM     17  C   UNL     1      -3.159  -1.803  -1.012  0.00  0.00    +0.006 A 
ATOM     18  C   UNL     1      -1.863  -1.321  -1.024  0.00  0.00    +0.004 A 
BRANCH  13  20
ATOM     19  C   UNL     1      -0.019   1.526   0.010  0.00  0.00    +0.012 C 
ATOM     20  C   UNL     1       0.002  -0.004   0.002  0.00  0.00    +0.013 C 
ATOM     21  C   UNL     1       0.742  -0.511   1.242  0.00  0.00    +0.012 C 
ENDBRANCH  13  20
ENDBRANCH   1  16
BRANCH   3  22
ATOM     22  C   UNL     1      -7.677  -1.923  -3.103  0.00  0.00    -0.033 C 
BRANCH  22  23
ATOM     23  N   UNL     1      -7.905  -3.160  -3.862  0.00  0.00    +0.382 N 
ATOM     24  H   UNL     1      -8.338  -3.847  -3.263  0.00  0.00    -0.090 HD
ATOM     25  H   UNL     1      -8.511  -2.967  -4.645  0.00  0.00    -0.090 HD
ATOM     26  H   UNL     1      -7.023  -3.516  -4.199  0.00  0.00    -0.090 HD
ENDBRANCH  22  23
ENDBRANCH   3  22
TORSDOF 5
