REMARK  Name = ZINC12984787
REMARK  7 active torsions:
REMARK  status: ('A' for Active; 'I' for Inactive)
REMARK    1  A    between atoms: C_1  and  C_2
REMARK    2  A    between atoms: C_2  and  C_4
REMARK    3  A    between atoms: C_2  and  N_63
REMARK    4  A    between atoms: N_6  and  C_7
REMARK    5  A    between atoms: C_19  and  N_22
REMARK    6  A    between atoms: N_22  and  S_23
REMARK    7  A    between atoms: S_23  and  C_26
REMARK                            x       y       z     vdW  Elec       q    Type
REMARK                         _______ _______ _______ _____ _____    ______ ____
ROOT
ATOM      1  C   UNL     1      -0.013   1.086   0.008  0.00  0.00    -0.076 C 
ATOM      2  C   UNL     1      -0.729   1.579   1.267  0.00  0.00    +0.002 C 
ATOM      3  C   UNL     1      -0.764   3.110   1.262  0.00  0.00    +0.073 C 
ATOM      4  C   UNL     1      -1.466   3.591  -0.011  0.00  0.00    +0.002 C 
ATOM      5  C   UNL     1      -0.729   3.040  -1.234  0.00  0.00    -0.076 C 
ATOM      6  N   UNL     1      -0.751   1.562  -1.181  0.00  0.00    +0.387 N 
ATOM      7  H   UNL     1      -1.726   1.246  -1.117  0.00  0.00    -0.081 HD
ENDROOT
BRANCH   6   9
ATOM      8  C   UNL     1       1.288   1.512  -2.579  0.00  0.00    -0.004 C 
ATOM      9  C   UNL     1      -0.145   1.005  -2.408  0.00  0.00    +0.016 C 
BRANCH   9  10
ATOM     10  C   UNL     1      -0.972   1.427  -3.595  0.00  0.00    +0.200 C 
ATOM     11  O   UNL     1      -1.947   2.131  -3.435  0.00  0.00    -0.278 OA
ATOM     12  N   UNL     1      -0.629   1.022  -4.833  0.00  0.00    -0.311 N 
ATOM     13  H   UNL     1       0.150   0.458  -4.961  0.00  0.00    +0.149 HD
BRANCH  12  14
ATOM     14  C   UNL     1      -1.433   1.432  -5.987  0.00  0.00    +0.035 C 
ATOM     15  C   UNL     1      -1.441   2.959  -6.087  0.00  0.00    +0.029 C 
ATOM     16  C   UNL     1      -2.281   3.387  -7.292  0.00  0.00    -0.008 C 
ATOM     17  C   UNL     1      -1.679   2.796  -8.568  0.00  0.00    +0.007 C 
ATOM     18  C   UNL     1      -1.672   1.270  -8.469  0.00  0.00    -0.008 C 
ATOM     19  C   UNL     1      -0.832   0.841  -7.264  0.00  0.00    +0.029 C 
ATOM     20  C   UNL     1      -3.105   0.762  -8.298  0.00  0.00    +0.007 C 
ATOM     21  C   UNL     1      -3.707   1.353  -7.021  0.00  0.00    -0.008 C 
ATOM     22  C   UNL     1      -3.714   2.880  -7.121  0.00  0.00    +0.007 C 
ATOM     23  C   UNL     1      -2.867   0.925  -5.816  0.00  0.00    +0.029 C 
ENDBRANCH  12  14
ENDBRANCH   9  10
ENDBRANCH   6   9
BRANCH   3  24
ATOM     24  N   UNL     1      -1.499   3.587   2.436  0.00  0.00    -0.187 NA
ATOM     25  H   UNL     1      -2.467   3.653   2.409  0.00  0.00    +0.148 HD
BRANCH  24  26
ATOM     26  S   UNL     1      -0.678   4.013   3.809  0.00  0.00    +0.065 S 
ATOM     27  O   UNL     1      -1.653   4.453   4.745  0.00  0.00    -0.153 OA
ATOM     28  O   UNL     1       0.223   2.951   4.090  0.00  0.00    -0.153 OA
BRANCH  26  29
ATOM     29  C   UNL     1       0.307   5.419   3.412  0.00  0.00    +0.142 A 
ATOM     30  C   UNL     1      -0.009   6.734   3.497  0.00  0.00    +0.036 A 
ATOM     31  C   UNL     1       0.934   7.675   3.127  0.00  0.00    +0.010 A 
ATOM     32  C   UNL     1       2.147   7.254   2.691  0.00  0.00    +0.047 A 
ATOM     33  S   UNL     1       1.984   5.480   2.801  0.00  0.00    -0.077 S 
ENDBRANCH  26  29
ENDBRANCH  24  26
ENDBRANCH   3  24
TORSDOF 6
