REMARK  Name = ZINC14022501
REMARK  7 active torsions:
REMARK  status: ('A' for Active; 'I' for Inactive)
REMARK    1  A    between atoms: C_1  and  C_2
REMARK    2  A    between atoms: C_5  and  S_8
REMARK    3  A    between atoms: S_8  and  N_11
REMARK    4  A    between atoms: C_15  and  C_18
REMARK    5  A    between atoms: C_23  and  C_26
REMARK    6  A    between atoms: C_32  and  O_35
REMARK    7  A    between atoms: O_35  and  C_36
REMARK                            x       y       z     vdW  Elec       q    Type
REMARK                         _______ _______ _______ _____ _____    ______ ____
ROOT
ATOM      1  C   UNL     1      -0.261   4.354   4.117  0.00  0.00    +0.223 C 
ATOM      2  O   UNL     1      -0.434   5.365   3.469  0.00  0.00    -0.275 OA
ATOM      3  N   UNL     1       0.007   4.437   5.435  0.00  0.00    -0.264 N 
ATOM      4  C   UNL     1       0.086   5.680   6.051  0.00  0.00    +0.165 A 
ATOM      5  N   UNL     1       0.329   5.970   7.315  0.00  0.00    -0.221 NA
ATOM      6  C   UNL     1       0.372   7.232   7.737  0.00  0.00    +0.115 A 
ATOM      7  C   UNL     1       0.147   8.243   6.842  0.00  0.00    +0.080 A 
ATOM      8  S   UNL     1      -0.124   7.307   5.343  0.00  0.00    -0.060 S 
ATOM      9  H   UNL     1       0.146   3.629   5.953  0.00  0.00    +0.157 HD
ENDROOT
BRANCH   6  10
ATOM     10  C   UNL     1       0.652   7.537   9.155  0.00  0.00    +0.155 A 
ATOM     11  C   UNL     1       0.887   6.614  10.119  0.00  0.00    +0.060 A 
ATOM     12  C   UNL     1       1.112   7.366  11.356  0.00  0.00    +0.024 A 
ATOM     13  C   UNL     1       1.399   7.007  12.675  0.00  0.00    +0.012 A 
ATOM     14  C   UNL     1       1.556   7.978  13.624  0.00  0.00    +0.004 A 
ATOM     15  C   UNL     1       1.434   9.318  13.287  0.00  0.00    +0.049 A 
ATOM     16  C   UNL     1       1.151   9.695  11.986  0.00  0.00    +0.163 A 
ATOM     17  C   UNL     1       0.987   8.720  11.004  0.00  0.00    +0.177 A 
ATOM     18  O   UNL     1       0.717   8.775   9.683  0.00  0.00    -0.450 OA
BRANCH  16  19
ATOM     19  O   UNL     1       1.033  11.011  11.668  0.00  0.00    -0.491 OA
ATOM     20  C   UNL     1       1.214  11.954  12.726  0.00  0.00    +0.277 C 
ENDBRANCH  16  19
ENDBRANCH   6  10
BRANCH   1  25
ATOM     21  N   UNL     1      -0.872   1.871   1.353  0.00  0.00    -0.176 NA
ATOM     22  C   UNL     1      -1.852   0.960   1.960  0.00  0.00    +0.109 C 
ATOM     23  C   UNL     1      -1.521   0.799   3.447  0.00  0.00    +0.018 C 
ATOM     24  C   UNL     1      -1.456   2.180   4.104  0.00  0.00    +0.015 C 
ATOM     25  C   UNL     1      -0.346   3.007   3.448  0.00  0.00    +0.091 C 
ATOM     26  C   UNL     1      -0.660   3.190   1.965  0.00  0.00    +0.122 C 
BRANCH  21  27
ATOM     27  S   UNL     1      -0.017   1.417   0.010  0.00  0.00    +0.061 S 
ATOM     28  O   UNL     1       0.002  -0.004   0.002  0.00  0.00    -0.153 OA
ATOM     29  O   UNL     1       1.172   2.195   0.003  0.00  0.00    -0.153 OA
BRANCH  27  34
ATOM     30  C   UNL     1      -3.225   3.125  -4.807  0.00  0.00    +0.044 C 
ATOM     31  C   UNL     1      -2.423   2.698  -3.604  0.00  0.00    -0.050 A 
ATOM     32  C   UNL     1      -1.494   3.559  -3.052  0.00  0.00    +0.005 A 
ATOM     33  C   UNL     1      -0.759   3.168  -1.948  0.00  0.00    +0.029 A 
ATOM     34  C   UNL     1      -0.954   1.915  -1.397  0.00  0.00    +0.105 A 
ATOM     35  C   UNL     1      -1.879   1.052  -1.952  0.00  0.00    +0.029 A 
ATOM     36  C   UNL     1      -2.617   1.445  -3.053  0.00  0.00    +0.005 A 
ENDBRANCH  27  34
ENDBRANCH  21  27
ENDBRANCH   1  25
TORSDOF 5
