REMARK  Name = ZINC57478029
REMARK  5 active torsions:
REMARK  status: ('A' for Active; 'I' for Inactive)
REMARK    1  A    between atoms: C_1  and  O_2
REMARK    2  A    between atoms: O_2  and  C_3
REMARK    3  A    between atoms: C_8  and  S_9
REMARK    4  A    between atoms: S_9  and  C_12
REMARK    5  A    between atoms: C_17  and  N_18
REMARK                            x       y       z     vdW  Elec       q    Type
REMARK                         _______ _______ _______ _____ _____    ______ ____
ROOT
ATOM      1  C   UNL     1       0.868  -2.653   1.623  0.00  0.00    +0.151 A 
ATOM      2  C   UNL     1       0.273  -2.044   2.711  0.00  0.00    +0.145 A 
ATOM      3  N   UNL     1       0.991  -1.820   3.801  0.00  0.00    -0.221 NA
ATOM      4  C   UNL     1       2.267  -2.172   3.860  0.00  0.00    +0.220 A 
ATOM      5  N   UNL     1       2.874  -2.758   2.839  0.00  0.00    -0.198 NA
ATOM      6  C   UNL     1       2.212  -3.018   1.716  0.00  0.00    +0.147 A 
ATOM      7  N   UNL     1       2.983  -1.921   5.018  0.00  0.00    -0.300 N 
ATOM      8  C   UNL     1       4.401  -2.293   5.116  0.00  0.00    +0.108 C 
ATOM      9  C   UNL     1       5.206  -1.059   5.536  0.00  0.00    +0.019 C 
ATOM     10  C   UNL     1       4.616  -0.485   6.826  0.00  0.00    +0.003 C 
ATOM     11  C   UNL     1       3.168  -0.056   6.580  0.00  0.00    +0.019 C 
ATOM     12  C   UNL     1       2.341  -1.273   6.169  0.00  0.00    +0.108 C 
ENDROOT
BRANCH   1  13
ATOM     13  S   UNL     1      -0.051  -2.969   0.153  0.00  0.00    +0.033 S 
ATOM     14  O   UNL     1      -1.359  -2.459   0.374  0.00  0.00    -0.164 OA
ATOM     15  O   UNL     1       0.188  -4.327  -0.191  0.00  0.00    -0.164 OA
BRANCH  13  21
ATOM     16  C   UNL     1       0.606  -0.607  -1.056  0.00  0.00    +0.145 A 
ATOM     17  C   UNL     1       1.173   0.161  -2.062  0.00  0.00    +0.049 A 
ATOM     18  C   UNL     1       1.786  -0.454  -3.137  0.00  0.00    +0.024 A 
ATOM     19  C   UNL     1       1.835  -1.835  -3.210  0.00  0.00    +0.043 A 
ATOM     20  C   UNL     1       1.269  -2.603  -2.207  0.00  0.00    +0.051 A 
ATOM     21  C   UNL     1       0.661  -1.991  -1.128  0.00  0.00    +0.137 A 
ATOM     22 CL   UNL     1       2.605  -2.605  -4.561  0.00  0.00    -0.083 Cl
BRANCH  16  24
ATOM     23  C   UNL     1      -0.017   1.425   0.010  0.00  0.00    +0.277 C 
ATOM     24  O   UNL     1       0.002  -0.004   0.002  0.00  0.00    -0.493 OA
ENDBRANCH  16  24
ENDBRANCH  13  21
ENDBRANCH   1  13
BRANCH   6  25
ATOM     25  N   UNL     1       2.849  -3.635   0.652  0.00  0.00    -0.341 N 
ATOM     26  H   UNL     1       2.360  -3.818  -0.166  0.00  0.00    +0.144 HD
ATOM     27  H   UNL     1       3.783  -3.886   0.725  0.00  0.00    +0.144 HD
ENDBRANCH   6  25
TORSDOF 4
