REMARK  Name = ZINC18156868
REMARK  9 active torsions:
REMARK  status: ('A' for Active; 'I' for Inactive)
REMARK    1  A    between atoms: C_1  and  C_2
REMARK    2  A    between atoms: C_7  and  N_8
REMARK    3  A    between atoms: C_13  and  C_27
REMARK    4  A    between atoms: N_15  and  C_21
REMARK    5  A    between atoms: C_29  and  O_38
REMARK    6  A    between atoms: C_30  and  O_36
REMARK    7  A    between atoms: C_32  and  N_33
REMARK    8  A    between atoms: O_36  and  C_37
REMARK    9  A    between atoms: O_38  and  C_39
REMARK                            x       y       z     vdW  Elec       q    Type
REMARK                         _______ _______ _______ _____ _____    ______ ____
ROOT
ATOM      1  N   UNL     1       5.746   4.232  -2.565  0.00  0.00    -0.208 N 
ATOM      2  C   UNL     1       4.675   5.085  -2.654  0.00  0.00    +0.235 C 
ATOM      3  O   UNL     1       4.481   5.937  -3.494  0.00  0.00    -0.274 OA
ATOM      4  C   UNL     1       3.828   4.748  -1.533  0.00  0.00    +0.145 C 
ATOM      5  C   UNL     1       2.401   4.847  -1.160  0.00  0.00    +0.159 C 
ATOM      6  N   UNL     1       2.350   3.887  -0.001  0.00  0.00    -0.244 N 
ATOM      7  O   UNL     1       3.517   2.974  -0.133  0.00  0.00    -0.257 OA
ATOM      8  C   UNL     1       4.061   3.193  -1.420  0.00  0.00    +0.249 C 
ATOM      9  C   UNL     1       5.535   3.211  -1.682  0.00  0.00    +0.259 C 
ATOM     10  O   UNL     1       6.371   2.472  -1.207  0.00  0.00    -0.272 OA
ENDROOT
BRANCH   1  17
ATOM     11  C   UNL     1       7.837   5.794  -1.429  0.00  0.00    +0.045 C 
ATOM     12  C   UNL     1       7.974   5.146  -2.782  0.00  0.00    -0.029 A 
ATOM     13  C   UNL     1       9.140   5.297  -3.506  0.00  0.00    +0.005 A 
ATOM     14  C   UNL     1       9.264   4.707  -4.751  0.00  0.00    +0.000 A 
ATOM     15  C   UNL     1       8.223   3.960  -5.272  0.00  0.00    +0.002 A 
ATOM     16  C   UNL     1       7.057   3.801  -4.550  0.00  0.00    +0.024 A 
ATOM     17  C   UNL     1       6.929   4.392  -3.300  0.00  0.00    +0.047 A 
ENDBRANCH   1  17
BRANCH   6  18
ATOM     18  C   UNL     1       1.151   3.171   0.003  0.00  0.00    +0.065 A 
ATOM     19  C   UNL     1       1.171   1.782  -0.006  0.00  0.00    +0.028 A 
ATOM     20  C   UNL     1      -0.017   1.076  -0.002  0.00  0.00    +0.002 A 
ATOM     21  C   UNL     1      -1.224   1.751   0.004  0.00  0.00    +0.000 A 
ATOM     22  C   UNL     1      -1.246   3.134   0.019  0.00  0.00    +0.002 A 
ATOM     23  C   UNL     1      -0.063   3.845   0.015  0.00  0.00    +0.028 A 
ENDBRANCH   6  18
BRANCH   5  24
ATOM     24  C   UNL     1       2.048   6.246  -0.725  0.00  0.00    +0.012 A 
ATOM     25  C   UNL     1       2.107   6.588   0.614  0.00  0.00    +0.057 A 
ATOM     26  C   UNL     1       1.788   7.874   1.015  0.00  0.00    +0.162 A 
ATOM     27  C   UNL     1       1.397   8.818   0.070  0.00  0.00    +0.164 A 
ATOM     28  C   UNL     1       1.334   8.468  -1.269  0.00  0.00    +0.082 A 
ATOM     29  C   UNL     1       1.660   7.183  -1.664  0.00  0.00    +0.135 A 
BRANCH  29  30
ATOM     30  N   UNL     1       1.593   6.810  -3.094  0.00  0.00    +0.057 N 
ATOM     31  O   UNL     1       1.340   7.657  -3.933  0.00  0.00    -0.126 OA
ATOM     32  O   UNL     1       1.790   5.657  -3.433  0.00  0.00    -0.126 OA
ENDBRANCH  29  30
BRANCH  27  33
ATOM     33  O   UNL     1       1.077  10.081   0.459  0.00  0.00    -0.491 OA
ATOM     34  C   UNL     1       0.685  10.996  -0.566  0.00  0.00    +0.277 C 
ENDBRANCH  27  33
BRANCH  26  35
ATOM     35  O   UNL     1       1.851   8.213   2.331  0.00  0.00    -0.491 OA
ATOM     36  C   UNL     1       2.261   7.194   3.244  0.00  0.00    +0.277 C 
ENDBRANCH  26  35
ENDBRANCH   5  24
TORSDOF 6
