REMARK  Name = ZINC37373020
REMARK  3 active torsions:
REMARK  status: ('A' for Active; 'I' for Inactive)
REMARK    1  A    between atoms: C_1  and  C_2
REMARK    2  A    between atoms: C_7  and  C_10
REMARK    3  A    between atoms: CA_19  and  C_21
REMARK                            x       y       z     vdW  Elec       q    Type
REMARK                         _______ _______ _______ _____ _____    ______ ____
ROOT
ATOM      1  C   UNL     1      -0.262   1.347  -0.255  0.00  0.00    +0.039 C 
ATOM      2  C   UNL     1      -0.078  -0.169  -0.152  0.00  0.00    +0.133 C 
ATOM      3  C   UNL     1       0.780  -0.661  -1.324  0.00  0.00    +0.137 C 
ATOM      4  N   UNL     1       2.143  -0.135  -1.154  0.00  0.00    -0.311 N 
ATOM      5  C   UNL     1       2.801  -0.326   0.148  0.00  0.00    +0.137 C 
ATOM      6  C   UNL     1       1.845   0.149   1.248  0.00  0.00    +0.133 C 
ATOM      7  O   UNL     1       0.576  -0.489   1.078  0.00  0.00    -0.371 OA
ATOM      8  C   UNL     1       2.421  -0.214   2.618  0.00  0.00    +0.039 C 
ATOM      9  C   UNL     1       2.788   0.521  -2.188  0.00  0.00    +0.107 A 
ATOM     10  C   UNL     1       3.540  -0.235  -3.185  0.00  0.00    +0.020 A 
ATOM     11  C   UNL     1       3.639  -1.629  -3.139  0.00  0.00    +0.012 A 
ATOM     12  C   UNL     1       4.355  -2.285  -4.099  0.00  0.00    +0.001 A 
ATOM     13  C   UNL     1       4.989  -1.587  -5.123  0.00  0.00    +0.001 A 
ATOM     14  C   UNL     1       4.912  -0.228  -5.198  0.00  0.00    +0.009 A 
ATOM     15  C   UNL     1       4.185   0.477  -4.229  0.00  0.00    -0.012 A 
ATOM     16  C   UNL     1       4.068   1.879  -4.251  0.00  0.00    +0.041 A 
ATOM     17  CA  UNL     1       3.335   2.510  -3.264  0.00  0.00    +0.130 A 
ATOM     18  N   UNL     1       2.725   1.833  -2.286  0.00  0.00    -0.337 N 
ATOM     19  H   UNL     1       2.220   2.326  -1.621  0.00  0.00    +0.167 HD
ENDROOT
BRANCH  17  20
ATOM     20  C   UNL     1       3.217   3.981  -3.294  0.00  0.00    +0.402 C 
ATOM     21  O   UNL     1       2.574   4.561  -2.431  0.00  0.00    -0.239 OA
ATOM     22  OXT UNL     1       3.764   4.621  -4.182  0.00  0.00    -0.239 OA
ENDBRANCH  17  20
TORSDOF 1
