REMARK  Name = ZINC34829667
REMARK  13 active torsions:
REMARK  status: ('A' for Active; 'I' for Inactive)
REMARK    1  A    between atoms: C_1  and  C_2
REMARK    2  A    between atoms: C_2  and  C_3
REMARK    3  A    between atoms: C_3  and  C_4
REMARK    4  A    between atoms: C_4  and  C_5
REMARK    5  A    between atoms: C_5  and  C_7
REMARK    6  A    between atoms: C_5  and  C_9
REMARK    7  A    between atoms: C_7  and  C_8
REMARK    8  A    between atoms: C_16  and  C_18
REMARK    9  A    between atoms: C_19  and  C_21
REMARK   10  A    between atoms: C_21  and  N_22
REMARK   11  A    between atoms: C_30  and  C_32
REMARK   12  A    between atoms: C_35  and  O_38
REMARK   13  A    between atoms: O_38  and  C_39
REMARK                            x       y       z     vdW  Elec       q    Type
REMARK                         _______ _______ _______ _____ _____    ______ ____
ROOT
ATOM      1  C   UNL     1      -7.903  -6.297   2.740  0.00  0.00    +0.020 C 
ENDROOT
BRANCH   1  11
ATOM      2  C   UNL     1      -2.693  -4.130   0.252  0.00  0.00    +0.219 C 
ATOM      3  O   UNL     1      -1.602  -4.632   0.081  0.00  0.00    -0.275 OA
ATOM      4  N   UNL     1      -3.750  -4.906   0.563  0.00  0.00    -0.295 N 
ATOM      5  C   UNL     1      -5.091  -4.323   0.701  0.00  0.00    +0.127 C 
ATOM      6  C   UNL     1      -5.645  -4.688   2.084  0.00  0.00    +0.126 C 
ATOM      7  N   UNL     1      -5.476  -6.133   2.291  0.00  0.00    -0.300 N 
ATOM      8  C   UNL     1      -4.135  -6.717   2.153  0.00  0.00    +0.130 C 
ATOM      9  C   UNL     1      -3.582  -6.353   0.764  0.00  0.00    +0.090 C 
ATOM     10  C   UNL     1      -4.354  -7.114  -0.315  0.00  0.00    +0.029 C 
ATOM     11  C   UNL     1      -6.533  -6.909   2.602  0.00  0.00    +0.199 C 
ATOM     12  O   UNL     1      -6.382  -8.101   2.770  0.00  0.00    -0.278 OA
BRANCH   2  13
ATOM     13  C   UNL     1      -2.866  -2.639   0.118  0.00  0.00    +0.075 C 
BRANCH  13  14
ATOM     14  C   UNL     1      -3.215  -2.041   1.482  0.00  0.00    +0.009 C 
ATOM     15  C   UNL     1      -2.102  -2.366   2.481  0.00  0.00    +0.004 C 
ENDBRANCH  13  14
BRANCH  13  16
ATOM     16  C   UNL     1      -1.565  -2.018  -0.394  0.00  0.00    +0.013 C 
BRANCH  16  17
ATOM     17  C   UNL     1      -1.774  -0.522  -0.634  0.00  0.00    +0.000 C 
BRANCH  17  19
ATOM     18  C   UNL     1      -0.660   1.612  -1.305  0.00  0.00    +0.004 C 
ATOM     19  C   UNL     1      -0.451   0.115  -1.065  0.00  0.00    -0.003 C 
ENDBRANCH  17  19
ENDBRANCH  16  17
ENDBRANCH  13  16
ENDBRANCH   2  13
ENDBRANCH   1  11
BRANCH   1  20
ATOM     20  N   UNL     1      -8.876  -7.344   3.081  0.00  0.00    +0.393 N 
ATOM     21  C   UNL     1      -8.536  -7.911   4.392  0.00  0.00    -0.072 C 
ATOM     22  C   UNL     1      -9.336  -9.210   4.595  0.00  0.00    +0.024 C 
ATOM     23  C   UNL     1     -10.755  -8.926   4.224  0.00  0.00    -0.010 A 
ATOM     24  C   UNL     1     -11.213  -7.834   3.550  0.00  0.00    -0.047 A 
ATOM     25  C   UNL     1     -12.584  -7.776   3.318  0.00  0.00    +0.010 A 
ATOM     26  C   UNL     1     -13.387  -8.776   3.752  0.00  0.00    +0.045 A 
ATOM     27  S   UNL     1     -12.215  -9.877   4.532  0.00  0.00    -0.101 S 
ATOM     28  C   UNL     1     -10.224  -6.764   3.096  0.00  0.00    -0.005 C 
ATOM     29  H   UNL     1      -8.836  -8.073   2.384  0.00  0.00    -0.080 HD
BRANCH  28  30
ATOM     30  C   UNL     1     -10.588  -6.294   1.712  0.00  0.00    -0.056 A 
ATOM     31  C   UNL     1     -10.244  -7.056   0.611  0.00  0.00    +0.006 A 
ATOM     32  C   UNL     1     -10.576  -6.628  -0.659  0.00  0.00    +0.046 A 
ATOM     33  C   UNL     1     -11.257  -5.431  -0.830  0.00  0.00    +0.120 A 
ATOM     34  C   UNL     1     -11.602  -4.668   0.276  0.00  0.00    +0.046 A 
ATOM     35  C   UNL     1     -11.271  -5.103   1.544  0.00  0.00    +0.006 A 
BRANCH  33  36
ATOM     36  O   UNL     1     -11.584  -5.006  -2.079  0.00  0.00    -0.495 OA
ATOM     37  C   UNL     1     -12.285  -3.765  -2.179  0.00  0.00    +0.277 C 
ENDBRANCH  33  36
ENDBRANCH  28  30
ENDBRANCH   1  20
TORSDOF 9
