REMARK  Name = ZINC15730431
REMARK  6 active torsions:
REMARK  status: ('A' for Active; 'I' for Inactive)
REMARK    1  A    between atoms: C_1  and  C_2
REMARK    2  A    between atoms: C_5  and  N_9
REMARK    3  A    between atoms: C_7  and  C_8
REMARK    4  A    between atoms: N_9  and  S_10
REMARK    5  A    between atoms: S_10  and  C_13
REMARK    6  A    between atoms: C_23  and  C_26
REMARK                            x       y       z     vdW  Elec       q    Type
REMARK                         _______ _______ _______ _____ _____    ______ ____
ROOT
ATOM      1  C   UNL     1       2.992   3.711  -2.671  0.00  0.00    +0.110 A 
ATOM      2  C   UNL     1       3.191   4.934  -3.284  0.00  0.00    +0.030 A 
ATOM      3  C   UNL     1       2.737   5.150  -4.573  0.00  0.00    +0.018 A 
ATOM      4  C   UNL     1       2.081   4.133  -5.247  0.00  0.00    +0.029 A 
ATOM      5  C   UNL     1       1.881   2.900  -4.631  0.00  0.00    +0.049 A 
ATOM      6  C   UNL     1       2.342   2.690  -3.342  0.00  0.00    +0.053 A 
ATOM      7  N   UNL     1       1.220   1.879  -5.330  0.00  0.00    -0.284 N 
ATOM      8  C   UNL     1       1.610   1.544  -6.566  0.00  0.00    +0.218 C 
ATOM      9  O   UNL     1       0.915   0.803  -7.229  0.00  0.00    -0.275 OA
ATOM     10  C   UNL     1       2.889   2.069  -7.148  0.00  0.00    +0.110 C 
ATOM     11  C   UNL     1       2.636   3.387  -7.901  0.00  0.00    +0.057 C 
ATOM     12  S   UNL     1       1.488   4.380  -6.890  0.00  0.00    -0.120 S 
ATOM     13  C   UNL     1       2.008   3.094  -9.265  0.00  0.00    +0.020 C 
ATOM     14  H   UNL     1       0.477   1.413  -4.915  0.00  0.00    +0.155 HD
ENDROOT
BRANCH   1  15
ATOM     15  S   UNL     1       3.574   3.448  -1.029  0.00  0.00    +0.072 S 
ATOM     16  O   UNL     1       4.633   4.373  -0.821  0.00  0.00    -0.150 OA
ATOM     17  O   UNL     1       3.747   2.046  -0.878  0.00  0.00    -0.150 OA
BRANCH  15  18
ATOM     18  N   UNL     1       2.353   3.888   0.000  0.00  0.00    -0.216 N 
ATOM     19  H   UNL     1       2.470   4.644   0.597  0.00  0.00    +0.174 HD
BRANCH  18  24
ATOM     20  C   UNL     1      -2.513   0.977   0.019  0.00  0.00    +0.044 C 
ATOM     21  C   UNL     1      -1.220   1.750   0.017  0.00  0.00    -0.047 A 
ATOM     22  C   UNL     1      -0.013   1.076   0.008  0.00  0.00    +0.005 A 
ATOM     23  C   UNL     1       1.174   1.782   0.000  0.00  0.00    +0.025 A 
ATOM     24  C   UNL     1       1.154   3.171   0.008  0.00  0.00    +0.048 A 
ATOM     25  C   UNL     1      -0.060   3.845   0.023  0.00  0.00    +0.028 A 
ATOM     26  C   UNL     1      -1.243   3.133   0.031  0.00  0.00    -0.046 A 
ATOM     27  C   UNL     1      -2.561   3.863   0.047  0.00  0.00    +0.044 C 
ENDBRANCH  18  24
ENDBRANCH  15  18
ENDBRANCH   1  15
TORSDOF 3
