REMARK  Name = ZINC39911807
REMARK  13 active torsions:
REMARK  status: ('A' for Active; 'I' for Inactive)
REMARK    1  A    between atoms: C_1  and  C_2
REMARK    2  A    between atoms: C_2  and  C_3
REMARK    3  A    between atoms: C_3  and  N_4
REMARK    4  A    between atoms: C_5  and  C_24
REMARK    5  A    between atoms: C_8  and  C_15
REMARK    6  A    between atoms: C_17  and  C_23
REMARK    7  A    between atoms: C_19  and  C_22
REMARK    8  A    between atoms: C_20  and  O_21
REMARK    9  A    between atoms: C_27  and  O_32
REMARK   10  A    between atoms: C_28  and  O_30
REMARK   11  A    between atoms: O_30  and  C_31
REMARK   12  A    between atoms: O_32  and  C_33
REMARK   13  A    between atoms: C_33  and  C_34
REMARK                            x       y       z     vdW  Elec       q    Type
REMARK                         _______ _______ _______ _____ _____    ______ ____
ROOT
ATOM      1  N   UNL     1      -0.861  -2.660  -0.115  0.00  0.00    -0.285 N 
ATOM      2  C   UNL     1      -1.186  -3.414  -1.332  0.00  0.00    +0.141 C 
ATOM      3  C   UNL     1      -1.515  -4.811  -0.882  0.00  0.00    +0.035 A 
ATOM      4  C   UNL     1      -1.899  -6.107  -1.243  0.00  0.00    +0.102 A 
ATOM      5  N   UNL     1      -1.977  -6.818  -0.136  0.00  0.00    -0.173 NA
ATOM      6  N   UNL     1      -1.681  -6.100   0.888  0.00  0.00    -0.272 N 
ATOM      7  H   UNL     1      -1.672  -6.415   1.806  0.00  0.00    +0.189 HD
ATOM      8  C   UNL     1      -1.380  -4.828   0.493  0.00  0.00    +0.126 A 
ATOM      9  C   UNL     1      -0.971  -3.491   0.938  0.00  0.00    +0.265 C 
ATOM     10  O   UNL     1      -0.764  -3.177   2.095  0.00  0.00    -0.268 OA
ENDROOT
BRANCH   4  11
ATOM     11  C   UNL     1      -2.169  -6.592  -2.620  0.00  0.00    +0.044 A 
ATOM     12  C   UNL     1      -2.162  -5.700  -3.689  0.00  0.00    +0.017 A 
ATOM     13  C   UNL     1      -2.413  -6.156  -4.968  0.00  0.00    -0.049 A 
ATOM     14  C   UNL     1      -2.673  -7.496  -5.191  0.00  0.00    +0.010 A 
ATOM     15  C   UNL     1      -2.682  -8.390  -4.136  0.00  0.00    -0.008 A 
ATOM     16  C   UNL     1      -2.426  -7.946  -2.849  0.00  0.00    +0.129 A 
ATOM     17  C   UNL     1      -2.966  -9.848  -4.388  0.00  0.00    +0.047 C 
ATOM     18  C   UNL     1      -2.405  -5.190  -6.124  0.00  0.00    +0.044 C 
BRANCH  16  19
ATOM     19  O   UNL     1      -2.429  -8.825  -1.812  0.00  0.00    -0.506 OA
ATOM     20  H   UNL     1      -3.294  -8.935  -1.393  0.00  0.00    +0.292 HD
ENDBRANCH  16  19
ENDBRANCH   4  11
BRANCH   2  21
ATOM     21  C   UNL     1      -0.001  -3.433  -2.263  0.00  0.00    -0.019 A 
ATOM     22  C   UNL     1      -0.171  -3.138  -3.603  0.00  0.00    +0.009 A 
ATOM     23  C   UNL     1       0.913  -3.154  -4.460  0.00  0.00    +0.050 A 
ATOM     24  C   UNL     1       2.174  -3.466  -3.977  0.00  0.00    +0.162 A 
ATOM     25  C   UNL     1       2.346  -3.762  -2.628  0.00  0.00    +0.162 A 
ATOM     26  C   UNL     1       1.256  -3.739  -1.773  0.00  0.00    +0.055 A 
BRANCH  25  27
ATOM     27  O   UNL     1       3.581  -4.068  -2.150  0.00  0.00    -0.491 OA
ATOM     28  C   UNL     1       3.709  -4.221  -0.735  0.00  0.00    +0.277 C 
ENDBRANCH  25  27
BRANCH  24  29
ATOM     29  O   UNL     1       3.242  -3.482  -4.820  0.00  0.00    -0.484 OA
BRANCH  29  30
ATOM     30  C   UNL     1       2.991  -3.168  -6.191  0.00  0.00    +0.264 C 
BRANCH  30  31
ATOM     31  C   UNL     1       4.281  -3.236  -6.966  0.00  0.00    -0.010 A 
ATOM     32  C   UNL     1       5.074  -2.111  -7.088  0.00  0.00    +0.007 A 
ATOM     33  C   UNL     1       6.258  -2.173  -7.799  0.00  0.00    +0.000 A 
ATOM     34  C   UNL     1       6.649  -3.361  -8.388  0.00  0.00    +0.000 A 
ATOM     35  C   UNL     1       5.857  -4.487  -8.265  0.00  0.00    +0.000 A 
ATOM     36  C   UNL     1       4.675  -4.426  -7.550  0.00  0.00    +0.007 A 
ENDBRANCH  30  31
ENDBRANCH  29  30
ENDBRANCH  24  29
ENDBRANCH   2  21
BRANCH   1  37
ATOM     37  C   UNL     1      -0.476  -1.248  -0.057  0.00  0.00    +0.109 C 
BRANCH  37  39
ATOM     38  C   UNL     1       1.446   0.347  -0.123  0.00  0.00    +0.005 C 
ATOM     39  C   UNL     1       1.044  -1.128  -0.183  0.00  0.00    +0.016 C 
ENDBRANCH  37  39
ENDBRANCH   1  37
TORSDOF 9
