REMARK  Name = ZINC63749573
REMARK  13 active torsions:
REMARK  status: ('A' for Active; 'I' for Inactive)
REMARK    1  A    between atoms: C_1  and  C_2
REMARK    2  A    between atoms: N_6  and  C_8
REMARK    3  A    between atoms: C_8  and  C_9
REMARK    4  A    between atoms: C_8  and  C_10
REMARK    5  A    between atoms: C_10  and  N_11
REMARK    6  A    between atoms: C_12  and  C_14
REMARK    7  A    between atoms: C_14  and  C_15
REMARK    8  A    between atoms: C_14  and  N_16
REMARK    9  A    between atoms: C_17  and  O_19
REMARK   10  A    between atoms: O_19  and  C_20
REMARK   11  A    between atoms: C_20  and  C_21
REMARK   12  A    between atoms: C_20  and  C_22
REMARK   13  A    between atoms: C_20  and  C_23
REMARK                            x       y       z     vdW  Elec       q    Type
REMARK                         _______ _______ _______ _____ _____    ______ ____
ROOT
ATOM      1  N   UNL     1       3.213  -0.344   3.118  0.00  0.00    -0.315 N 
ATOM      2  C   UNL     1       4.204   0.451   2.667  0.00  0.00    +0.233 C 
ATOM      3  O   UNL     1       5.137  -0.029   2.059  0.00  0.00    -0.274 OA
ATOM      4  H   UNL     1       2.432   0.047   3.540  0.00  0.00    +0.149 HD
ENDROOT
BRANCH   2   5
ATOM      5  C   UNL     1       4.151   1.936   2.916  0.00  0.00    +0.159 C 
ATOM      6  C   UNL     1       3.341   2.612   1.808  0.00  0.00    +0.038 C 
BRANCH   5   7
ATOM      7  N   UNL     1       5.512   2.478   2.926  0.00  0.00    -0.270 N 
ATOM      8  C   UNL     1       5.781   3.614   3.600  0.00  0.00    +0.401 C 
ATOM      9  O   UNL     1       4.894   4.189   4.199  0.00  0.00    -0.226 OA
ATOM     10  H   UNL     1       6.220   2.019   2.447  0.00  0.00    +0.153 HD
BRANCH   8  11
ATOM     11  O   UNL     1       7.032   4.112   3.609  0.00  0.00    -0.445 OA
BRANCH  11  12
ATOM     12  C   UNL     1       7.244   5.319   4.343  0.00  0.00    +0.107 C 
ATOM     13  C   UNL     1       6.881   5.093   5.812  0.00  0.00    +0.055 C 
ATOM     14  C   UNL     1       8.715   5.728   4.238  0.00  0.00    +0.055 C 
ATOM     15  C   UNL     1       6.364   6.429   3.765  0.00  0.00    +0.055 C 
ENDBRANCH  11  12
ENDBRANCH   8  11
ENDBRANCH   5   7
ENDBRANCH   2   5
BRANCH   1  16
ATOM     16  C   UNL     1       3.317  -1.798   2.973  0.00  0.00    +0.089 C 
BRANCH  16  17
ATOM     17  C   UNL     1       2.136  -2.466   3.679  0.00  0.00    -0.054 C 
ATOM     18  C   UNL     1       0.835  -2.087   2.969  0.00  0.00    -0.012 C 
BRANCH  17  24
ATOM     19  C   UNL     1       4.649  -2.131   7.867  0.00  0.00    +0.005 C 
ATOM     20  C   UNL     1       3.328  -1.793   7.174  0.00  0.00    -0.031 C 
ATOM     21  C   UNL     1       2.169  -2.437   7.940  0.00  0.00    -0.001 C 
ATOM     22  C   UNL     1       0.860  -2.160   7.196  0.00  0.00    -0.018 C 
ATOM     23  C   UNL     1       0.973  -2.687   5.764  0.00  0.00    -0.078 C 
ATOM     24  N   UNL     1       2.081  -2.014   5.076  0.00  0.00    +0.383 N 
ATOM     25  C   UNL     1       3.349  -2.334   5.743  0.00  0.00    -0.075 C 
ATOM     26  H   UNL     1       1.933  -1.016   5.098  0.00  0.00    -0.081 HD
ENDBRANCH  17  24
ENDBRANCH  16  17
ENDBRANCH   1  16
TORSDOF 7
