REMARK  Name = ZINC10395786
REMARK  5 active torsions:
REMARK  status: ('A' for Active; 'I' for Inactive)
REMARK    1  A    between atoms: C_2  and  C_3
REMARK    2  A    between atoms: C_3  and  N_4
REMARK    3  A    between atoms: C_14  and  S_15
REMARK    4  A    between atoms: S_15  and  C_16
REMARK    5  A    between atoms: C_16  and  C_17
REMARK                            x       y       z     vdW  Elec       q    Type
REMARK                         _______ _______ _______ _____ _____    ______ ____
ROOT
ATOM      1  C   UNL     1       3.795   3.006  -0.193  0.00  0.00    +0.143 A 
ATOM      2  N   UNL     1       4.377   1.819  -0.200  0.00  0.00    -0.216 NA
ATOM      3  C   UNL     1       3.694   0.699  -0.031  0.00  0.00    +0.128 A 
ATOM      4  C   UNL     1       2.287   0.769   0.165  0.00  0.00    +0.051 A 
ATOM      5  C   UNL     1       1.337  -0.330   0.373  0.00  0.00    -0.025 A 
ATOM      6  C   UNL     1       0.042   0.011   0.531  0.00  0.00    -0.004 A 
ATOM      7  S   UNL     1       0.009   1.782   0.422  0.00  0.00    -0.073 S 
ATOM      8  C   UNL     1       1.739   2.066   0.159  0.00  0.00    +0.114 A 
ATOM      9  N   UNL     1       2.494   3.134  -0.017  0.00  0.00    -0.224 NA
ATOM     10  C   UNL     1      -1.127  -0.901   0.738  0.00  0.00    +0.043 C 
ATOM     11  C   UNL     1      -0.797  -1.906   1.850  0.00  0.00    +0.005 C 
ATOM     12  C   UNL     1      -0.148  -3.130   1.212  0.00  0.00    +0.001 C 
ATOM     13  C   UNL     1       0.675  -2.711  -0.004  0.00  0.00    +0.005 C 
ATOM     14  C   UNL     1       1.808  -1.781   0.413  0.00  0.00    +0.037 C 
ATOM     15  N   UNL     1       4.340  -0.525  -0.045  0.00  0.00    -0.343 N 
ATOM     16  H   UNL     1       5.169  -0.630  -0.537  0.00  0.00    +0.144 HD
ATOM     17  H   UNL     1       3.963  -1.278   0.436  0.00  0.00    +0.144 HD
ENDROOT
BRANCH   1  18
ATOM     18  C   UNL     1       4.636   4.240  -0.392  0.00  0.00    +0.153 C 
BRANCH  18  19
ATOM     19  S   UNL     1       4.734   4.627  -2.157  0.00  0.00    -0.080 S 
BRANCH  19  30
ATOM     20  N   UNL     1       6.067   6.685  -3.275  0.00  0.00    -0.283 N 
ATOM     21  C   UNL     1       6.836   7.799  -3.277  0.00  0.00    +0.263 A 
ATOM     22  O   UNL     1       7.128   8.362  -4.315  0.00  0.00    -0.267 OA
ATOM     23  C   UNL     1       7.311   8.297  -1.979  0.00  0.00    +0.065 A 
ATOM     24  C   UNL     1       8.113   9.433  -1.875  0.00  0.00    +0.015 A 
ATOM     25  C   UNL     1       8.527   9.855  -0.641  0.00  0.00    +0.001 A 
ATOM     26  C   UNL     1       8.157   9.165   0.506  0.00  0.00    +0.002 A 
ATOM     27  C   UNL     1       7.372   8.049   0.433  0.00  0.00    +0.028 A 
ATOM     28  C   UNL     1       6.933   7.592  -0.814  0.00  0.00    +0.079 A 
ATOM     29  N   UNL     1       6.157   6.496  -0.931  0.00  0.00    -0.223 NA
ATOM     30  C   UNL     1       5.745   6.069  -2.099  0.00  0.00    +0.173 A 
BRANCH  20  31
ATOM     31  C   UNL     1       5.571   6.141  -4.541  0.00  0.00    +0.154 C 
BRANCH  31  33
ATOM     32  C   UNL     1       4.062   7.366  -6.020  0.00  0.00    +0.005 C 
ATOM     33  C   UNL     1       4.239   6.765  -4.869  0.00  0.00    -0.013 C 
ENDBRANCH  31  33
ENDBRANCH  20  31
ENDBRANCH  19  30
ENDBRANCH  18  19
ENDBRANCH   1  18
TORSDOF 5
