REMARK  Name = ZINC44785899
REMARK  5 active torsions:
REMARK  status: ('A' for Active; 'I' for Inactive)
REMARK    1  A    between atoms: C_4  and  C_6
REMARK    2  A    between atoms: C_4  and  C_10
REMARK    3  A    between atoms: N_7  and  O_8
REMARK    4  A    between atoms: N_15  and  C_18
REMARK    5  A    between atoms: C_18  and  C_19
REMARK                            x       y       z     vdW  Elec       q    Type
REMARK                         _______ _______ _______ _____ _____    ______ ____
ROOT
ATOM      1  C   UNL     1      -0.082   1.446  -0.456  0.00  0.00    +0.001 C 
ATOM      2  C   UNL     1       1.417   1.435  -0.845  0.00  0.00    +0.001 C 
ATOM      3  C   UNL     1       2.030   0.451   0.181  0.00  0.00    +0.024 C 
ATOM      4  C   UNL     1       0.960  -0.650   0.335  0.00  0.00    +0.105 C 
ATOM      5  C   UNL     1      -0.383  -0.017  -0.070  0.00  0.00    +0.024 C 
ENDROOT
BRANCH   4   6
ATOM      6  C   UNL     1       1.278  -1.810  -0.572  0.00  0.00    +0.229 C 
ATOM      7  O   UNL     1       2.229  -1.750  -1.323  0.00  0.00    -0.275 OA
ATOM      8  N   UNL     1       0.506  -2.915  -0.550  0.00  0.00    -0.298 N 
ATOM      9  C   UNL     1      -0.728  -2.957   0.249  0.00  0.00    +0.123 C 
ATOM     10  C   UNL     1      -1.874  -3.433  -0.650  0.00  0.00    +0.103 C 
ATOM     11  N   UNL     1      -1.500  -4.705  -1.283  0.00  0.00    -0.299 NA
ATOM     12  C   UNL     1      -0.333  -4.541  -2.161  0.00  0.00    +0.103 C 
ATOM     13  C   UNL     1       0.872  -4.108  -1.328  0.00  0.00    +0.123 C 
BRANCH  11  14
ATOM     14  C   UNL     1      -2.634  -5.282  -2.017  0.00  0.00    +0.088 C 
BRANCH  14  15
ATOM     15  C   UNL     1      -2.289  -6.709  -2.448  0.00  0.00    +0.003 C 
ATOM     16  C   UNL     1      -2.214  -6.995  -3.949  0.00  0.00    +0.005 C 
ATOM     17  C   UNL     1      -3.389  -7.527  -3.127  0.00  0.00    +0.005 C 
ENDBRANCH  14  15
ENDBRANCH  11  14
ENDBRANCH   4   6
BRANCH   4  18
ATOM     18  C   UNL     1       0.900  -1.115   1.767  0.00  0.00    +0.147 C 
ATOM     19  N   UNL     1       0.502  -0.306   2.693  0.00  0.00    -0.076 NA
ATOM     20  N   UNL     1       1.270  -2.402   2.089  0.00  0.00    -0.343 N 
ATOM     21  H   UNL     1       1.669  -2.975   1.416  0.00  0.00    +0.144 HD
ATOM     22  H   UNL     1       1.131  -2.736   2.989  0.00  0.00    +0.144 HD
BRANCH  19  23
ATOM     23  O   UNL     1       0.216   1.044   2.379  0.00  0.00    -0.408 OA
ATOM     24  H   UNL     1      -0.074   1.571   3.135  0.00  0.00    +0.328 HD
ENDBRANCH  19  23
ENDBRANCH   4  18
TORSDOF 5
