REMARK  Name = ZINC39667627
REMARK  11 active torsions:
REMARK  status: ('A' for Active; 'I' for Inactive)
REMARK    1  A    between atoms: C_1  and  C_2
REMARK    2  A    between atoms: C_2  and  C_3
REMARK    3  A    between atoms: C_3  and  C_4
REMARK    4  A    between atoms: C_4  and  C_5
REMARK    5  A    between atoms: C_5  and  C_7
REMARK    6  A    between atoms: C_5  and  C_8
REMARK    7  A    between atoms: C_12  and  C_21
REMARK    8  A    between atoms: N_23  and  C_24
REMARK    9  A    between atoms: C_24  and  C_25
REMARK   10  A    between atoms: C_29  and  C_32
REMARK   11  A    between atoms: C_30  and  C_31
REMARK                            x       y       z     vdW  Elec       q    Type
REMARK                         _______ _______ _______ _____ _____    ______ ____
ROOT
ATOM      1  C   UNL     1       1.419  -4.165   2.498  0.00  0.00    +0.218 C 
ATOM      2  O   UNL     1       0.798  -4.788   1.663  0.00  0.00    -0.275 OA
ATOM      3  N   UNL     1       1.990  -4.811   3.534  0.00  0.00    -0.300 N 
ATOM      4  C   UNL     1       2.776  -4.228   4.646  0.00  0.00    +0.121 C 
ATOM      5  C   UNL     1       2.333  -5.021   5.896  0.00  0.00    +0.100 C 
ATOM      6  C   UNL     1       1.808  -6.358   5.346  0.00  0.00    -0.004 C 
ATOM      7  C   UNL     1       1.967  -6.266   3.821  0.00  0.00    +0.115 C 
ATOM      8  C   UNL     1       2.635  -7.517   5.895  0.00  0.00    -0.010 C 
ATOM      9  C   UNL     1       2.059  -8.839   5.380  0.00  0.00    -0.082 C 
ATOM     10  N   UNL     1       0.660  -8.964   5.808  0.00  0.00    +0.379 N 
ATOM     11  C   UNL     1      -0.146  -7.899   5.200  0.00  0.00    -0.082 C 
ATOM     12  C   UNL     1       0.337  -6.538   5.707  0.00  0.00    -0.010 C 
ATOM     13  H   UNL     1       0.302  -9.862   5.520  0.00  0.00    -0.086 HD
ATOM     14  H   UNL     1       0.610  -8.891   6.813  0.00  0.00    -0.086 HD
ENDROOT
BRANCH   5  15
ATOM     15  C   UNL     1       3.505  -5.253   6.814  0.00  0.00    +0.218 C 
ATOM     16  O   UNL     1       4.619  -5.383   6.353  0.00  0.00    -0.275 OA
ATOM     17  N   UNL     1       3.315  -5.314   8.147  0.00  0.00    -0.311 N 
ATOM     18  H   UNL     1       2.424  -5.210   8.515  0.00  0.00    +0.149 HD
BRANCH  17  19
ATOM     19  C   UNL     1       4.455  -5.539   9.039  0.00  0.00    +0.139 C 
BRANCH  19  20
ATOM     20  C   UNL     1       3.976  -5.565  10.468  0.00  0.00    -0.027 A 
ATOM     21  C   UNL     1       4.115  -4.444  11.264  0.00  0.00    +0.005 A 
ATOM     22  C   UNL     1       3.676  -4.468  12.575  0.00  0.00    +0.001 A 
ATOM     23  C   UNL     1       3.098  -5.613  13.089  0.00  0.00    +0.003 A 
ATOM     24  C   UNL     1       2.958  -6.734  12.293  0.00  0.00    -0.047 A 
ATOM     25  C   UNL     1       3.393  -6.709  10.981  0.00  0.00    -0.043 A 
ATOM     26  C   UNL     1       3.236  -7.929  10.111  0.00  0.00    +0.044 C 
ATOM     27  C   UNL     1       2.328  -7.983  12.854  0.00  0.00    +0.044 C 
ENDBRANCH  19  20
ENDBRANCH  17  19
ENDBRANCH   5  15
BRANCH   1  28
ATOM     28  C   UNL     1       1.554  -2.669   2.376  0.00  0.00    +0.072 C 
ATOM     29  C   UNL     1       3.035  -2.297   2.274  0.00  0.00    +0.017 C 
BRANCH  28  30
ATOM     30  C   UNL     1       0.820  -2.191   1.122  0.00  0.00    +0.012 C 
BRANCH  30  31
ATOM     31  C   UNL     1       0.851  -0.662   1.065  0.00  0.00    +0.000 C 
BRANCH  31  33
ATOM     32  C   UNL     1       0.147   1.344  -0.247  0.00  0.00    +0.004 C 
ATOM     33  C   UNL     1       0.117  -0.184  -0.190  0.00  0.00    -0.003 C 
ENDBRANCH  31  33
ENDBRANCH  30  31
ENDBRANCH  28  30
ENDBRANCH   1  28
TORSDOF 7
