REMARK  Name = ZINC65265812
REMARK  8 active torsions:
REMARK  status: ('A' for Active; 'I' for Inactive)
REMARK    1  A    between atoms: C_1  and  C_2
REMARK    2  A    between atoms: C_7  and  O_8
REMARK    3  A    between atoms: O_8  and  C_9
REMARK    4  A    between atoms: C_9  and  C_10
REMARK    5  A    between atoms: N_27  and  C_28
REMARK    6  A    between atoms: C_28  and  C_29
REMARK    7  A    between atoms: C_29  and  O_30
REMARK    8  A    between atoms: O_30  and  C_31
REMARK                            x       y       z     vdW  Elec       q    Type
REMARK                         _______ _______ _______ _____ _____    ______ ____
ROOT
ATOM      1  C   UNL     1       0.009   0.137   4.786  0.00  0.00    +0.253 C 
ATOM      2  O   UNL     1      -0.007   1.341   4.647  0.00  0.00    -0.272 OA
ATOM      3  N   UNL     1       0.037  -0.399   6.022  0.00  0.00    -0.296 N 
ATOM      4  C   UNL     1       0.066  -1.840   6.335  0.00  0.00    +0.110 C 
ATOM      5  C   UNL     1       0.696  -1.930   7.750  0.00  0.00    +0.050 C 
ATOM      6  C   UNL     1       0.124  -0.668   8.421  0.00  0.00    +0.091 C 
ATOM      7  C   UNL     1       0.051   0.358   7.286  0.00  0.00    +0.137 C 
ATOM      8  C   UNL     1       0.985  -0.198   9.543  0.00  0.00    +0.095 C 
ATOM      9  N   UNL     1       0.699  -0.697  10.791  0.00  0.00    -0.303 N 
ATOM     10  C   UNL     1      -0.217  -0.021  11.591  0.00  0.00    +0.037 A 
ATOM     11  C   UNL     1       0.064   0.203  12.931  0.00  0.00    +0.023 A 
ATOM     12  C   UNL     1      -0.848   0.861  13.732  0.00  0.00    +0.002 A 
ATOM     13  C   UNL     1      -2.044   1.292  13.186  0.00  0.00    +0.000 A 
ATOM     14  C   UNL     1      -2.321   1.074  11.854  0.00  0.00    +0.007 A 
ATOM     15  C   UNL     1      -1.409   0.420  11.031  0.00  0.00    -0.012 A 
ATOM     16  C   UNL     1      -1.792   0.265   9.581  0.00  0.00    +0.119 C 
ATOM     17  N   UNL     1      -1.223  -0.943   8.970  0.00  0.00    -0.299 NA
ATOM     18  N   UNL     1       1.954   0.638   9.353  0.00  0.00    -0.373 N 
ATOM     19  H   UNL     1      -1.835  -1.311   8.257  0.00  0.00    +0.123 HD
ATOM     20  H   UNL     1       2.189   0.911   8.452  0.00  0.00    +0.161 HD
ATOM     21  H   UNL     1       1.127  -1.507  11.108  0.00  0.00    +0.153 HD
ENDROOT
BRANCH   1  22
ATOM     22  C   UNL     1      -0.002  -0.762   3.576  0.00  0.00    +0.324 C 
BRANCH  22  23
ATOM     23  O   UNL     1      -0.032   0.036   2.390  0.00  0.00    -0.483 OA
BRANCH  23  30
ATOM     24  C   UNL     1      -0.092   1.594   0.035  0.00  0.00    +0.047 C 
ATOM     25  C   UNL     1      -0.075   0.087   0.013  0.00  0.00    -0.009 A 
ATOM     26  C   UNL     1      -0.082  -0.586  -1.194  0.00  0.00    +0.007 A 
ATOM     27  C   UNL     1      -0.066  -1.968  -1.215  0.00  0.00    +0.000 A 
ATOM     28  C   UNL     1      -0.043  -2.680  -0.030  0.00  0.00    +0.004 A 
ATOM     29  C   UNL     1      -0.035  -2.012   1.179  0.00  0.00    +0.046 A 
ATOM     30  C   UNL     1      -0.045  -0.625   1.203  0.00  0.00    +0.124 A 
ENDBRANCH  23  30
ENDBRANCH  22  23
ENDBRANCH   1  22
BRANCH  18  31
ATOM     31  C   UNL     1       2.697   1.172  10.497  0.00  0.00    +0.141 C 
BRANCH  31  32
ATOM     32  C   UNL     1       3.781   2.130   9.999  0.00  0.00    +0.180 C 
BRANCH  32  33
ATOM     33  O   UNL     1       3.167   3.265   9.383  0.00  0.00    -0.381 OA
ATOM     34  C   UNL     1       4.097   4.227   8.881  0.00  0.00    +0.194 C 
ENDBRANCH  32  33
ENDBRANCH  31  32
ENDBRANCH  18  31
TORSDOF 6
