REMARK  Name = ZINC45822092
REMARK  6 active torsions:
REMARK  status: ('A' for Active; 'I' for Inactive)
REMARK    1  A    between atoms: C_1  and  N_2
REMARK    2  A    between atoms: C_3  and  C_5
REMARK    3  A    between atoms: C_5  and  N_6
REMARK    4  A    between atoms: N_15  and  C_26
REMARK    5  A    between atoms: C_16  and  C_18
REMARK    6  A    between atoms: C_23  and  O_24
REMARK                            x       y       z     vdW  Elec       q    Type
REMARK                         _______ _______ _______ _____ _____    ______ ____
ROOT
ATOM      1  N   UNL     1       1.167  -2.715  -2.413  0.00  0.00    -0.298 N 
ATOM      2  C   UNL     1       0.475  -2.947  -3.597  0.00  0.00    +0.044 A 
ATOM      3  C   UNL     1      -0.659  -2.227  -3.932  0.00  0.00    +0.024 A 
ATOM      4  C   UNL     1      -1.319  -2.501  -5.114  0.00  0.00    +0.002 A 
ATOM      5  C   UNL     1      -0.857  -3.492  -5.966  0.00  0.00    +0.001 A 
ATOM      6  C   UNL     1       0.274  -4.216  -5.649  0.00  0.00    +0.015 A 
ATOM      7  C   UNL     1       0.953  -3.946  -4.463  0.00  0.00    +0.058 A 
ATOM      8  C   UNL     1       2.178  -4.676  -4.091  0.00  0.00    +0.250 C 
ATOM      9  O   UNL     1       2.528  -5.651  -4.727  0.00  0.00    -0.270 OA
ATOM     10  N   UNL     1       2.908  -4.251  -3.040  0.00  0.00    -0.278 N 
ATOM     11  C   UNL     1       2.610  -2.978  -2.375  0.00  0.00    +0.199 C 
ATOM     12  C   UNL     1       4.020  -5.073  -2.557  0.00  0.00    +0.134 C 
ENDROOT
BRANCH  11  13
ATOM     13  C   UNL     1       3.340  -1.861  -3.076  0.00  0.00    +0.033 A 
ATOM     14  C   UNL     1       3.665  -1.980  -4.413  0.00  0.00    +0.026 A 
ATOM     15  C   UNL     1       4.335  -0.955  -5.057  0.00  0.00    +0.018 A 
ATOM     16  C   UNL     1       4.680   0.191  -4.364  0.00  0.00    +0.019 A 
ATOM     17  C   UNL     1       4.356   0.315  -3.027  0.00  0.00    +0.047 A 
ATOM     18  C   UNL     1       3.680  -0.710  -2.380  0.00  0.00    +0.123 A 
ATOM     19 BR   UNL     1       4.780  -1.121  -6.888  0.00  0.00    -0.050 Br
BRANCH  18  20
ATOM     20  O   UNL     1       3.356  -0.589  -1.066  0.00  0.00    -0.506 OA
ATOM     21  H   UNL     1       4.035  -0.918  -0.462  0.00  0.00    +0.292 HD
ENDBRANCH  18  20
ENDBRANCH  11  13
BRANCH   1  22
ATOM     22  C   UNL     1       0.469  -2.210  -1.228  0.00  0.00    +0.202 C 
BRANCH  22  25
ATOM     23  C   UNL     1      -0.433   1.428  -0.450  0.00  0.00    +0.128 C 
ATOM     24  N   UNL     1      -0.326  -0.031  -0.369  0.00  0.00    -0.317 N 
ATOM     25  C   UNL     1       0.359  -0.709  -1.311  0.00  0.00    +0.230 C 
ATOM     26  O   UNL     1       0.885  -0.112  -2.226  0.00  0.00    -0.274 OA
ATOM     27  H   UNL     1      -0.747  -0.508   0.363  0.00  0.00    +0.148 HD
ENDBRANCH  22  25
ENDBRANCH   1  22
TORSDOF 4
