REMARK  Name = ZINC12597257
REMARK  10 active torsions:
REMARK  status: ('A' for Active; 'I' for Inactive)
REMARK    1  A    between atoms: C_1  and  C_2
REMARK    2  A    between atoms: C_2  and  C_4
REMARK    3  A    between atoms: C_2  and  N_17
REMARK    4  A    between atoms: C_4  and  C_6
REMARK    5  A    between atoms: C_7  and  N_16
REMARK    6  A    between atoms: N_8  and  C_15
REMARK    7  A    between atoms: N_11  and  C_14
REMARK    8  A    between atoms: N_17  and  C_18
REMARK    9  A    between atoms: C_21  and  S_24
REMARK   10  A    between atoms: S_24  and  C_25
REMARK                            x       y       z     vdW  Elec       q    Type
REMARK                         _______ _______ _______ _____ _____    ______ ____
ROOT
ATOM      1  C   UNL     1      -0.686   1.685  -1.308  0.00  0.00    +0.036 C 
ATOM      2  C   UNL     1       0.033   1.147  -0.070  0.00  0.00    +0.139 C 
ENDROOT
BRANCH   2   3
ATOM      3  C   UNL     1       1.445   1.671  -0.041  0.00  0.00    +0.191 C 
ATOM      4  O   UNL     1       1.749   2.555   0.733  0.00  0.00    -0.290 OA
BRANCH   3   5
ATOM      5  C   UNL     1       2.415   1.134  -0.915  0.00  0.00    +0.122 A 
ATOM      6  C   UNL     1       3.704   1.688  -0.997  0.00  0.00    +0.116 A 
ATOM      7  N   UNL     1       4.609   1.130  -1.853  0.00  0.00    -0.284 N 
ATOM      8  C   UNL     1       4.287   0.076  -2.620  0.00  0.00    +0.333 A 
ATOM      9  O   UNL     1       5.128  -0.381  -3.370  0.00  0.00    -0.246 OA
ATOM     10  N   UNL     1       3.071  -0.492  -2.589  0.00  0.00    -0.263 N 
ATOM     11  C   UNL     1       2.107  -0.018  -1.772  0.00  0.00    +0.269 A 
ATOM     12  O   UNL     1       1.005  -0.535  -1.747  0.00  0.00    -0.267 OA
ATOM     13  C   UNL     1       2.787  -1.640  -3.453  0.00  0.00    +0.157 C 
ATOM     14  C   UNL     1       5.957   1.697  -1.942  0.00  0.00    +0.155 C 
BRANCH   6  15
ATOM     15  N   UNL     1       4.046   2.759  -0.231  0.00  0.00    -0.344 N 
ATOM     16  H   UNL     1       3.425   3.099   0.433  0.00  0.00    +0.144 HD
ATOM     17  H   UNL     1       4.910   3.184  -0.349  0.00  0.00    +0.144 HD
ENDBRANCH   6  15
ENDBRANCH   3   5
ENDBRANCH   2   3
BRANCH   2  18
ATOM     18  N   UNL     1      -0.676   1.586   1.135  0.00  0.00    -0.334 N 
ATOM     19  H   UNL     1      -0.389   2.387   1.602  0.00  0.00    +0.147 HD
BRANCH  18  20
ATOM     20  C   UNL     1      -1.766   0.850   1.614  0.00  0.00    +0.028 A 
ATOM     21  C   UNL     1      -2.180  -0.293   0.943  0.00  0.00    +0.024 A 
ATOM     22  C   UNL     1      -3.252  -1.022   1.418  0.00  0.00    +0.017 A 
ATOM     23  C   UNL     1      -3.924  -0.605   2.560  0.00  0.00    +0.013 A 
ATOM     24  C   UNL     1      -3.513   0.542   3.228  0.00  0.00    +0.017 A 
ATOM     25  C   UNL     1      -2.437   1.267   2.756  0.00  0.00    +0.024 A 
BRANCH  23  26
ATOM     26  S   UNL     1      -5.298  -1.531   3.162  0.00  0.00    -0.089 S 
BRANCH  26  27
ATOM     27  C   UNL     1      -5.351  -2.945   2.112  0.00  0.00    +0.013 A 
ATOM     28  C   UNL     1      -6.184  -2.955   1.000  0.00  0.00    +0.016 A 
ATOM     29  C   UNL     1      -6.220  -4.063   0.176  0.00  0.00    +0.016 A 
ATOM     30  C   UNL     1      -5.436  -5.167   0.464  0.00  0.00    +0.018 A 
ATOM     31  C   UNL     1      -4.609  -5.161   1.573  0.00  0.00    +0.016 A 
ATOM     32  C   UNL     1      -4.565  -4.054   2.398  0.00  0.00    +0.016 A 
ATOM     33 BR   UNL     1      -5.494  -6.684  -0.662  0.00  0.00    -0.050 Br
ENDBRANCH  26  27
ENDBRANCH  23  26
ENDBRANCH  18  20
ENDBRANCH   2  18
TORSDOF 7
