REMARK  Name = ZINC15907261
REMARK  5 active torsions:
REMARK  status: ('A' for Active; 'I' for Inactive)
REMARK    1  A    between atoms: C_6  and  C_7
REMARK    2  A    between atoms: C_7  and  N_8
REMARK    3  A    between atoms: C_11  and  C_18
REMARK    4  A    between atoms: N_23  and  S_25
REMARK    5  A    between atoms: S_25  and  C_28
REMARK                            x       y       z     vdW  Elec       q    Type
REMARK                         _______ _______ _______ _____ _____    ______ ____
ROOT
ATOM      1  N   UNL     1      -1.726  -1.017  -1.368  0.00  0.00    -0.222 N 
ATOM      2  C   UNL     1      -2.523  -0.207  -2.128  0.00  0.00    +0.186 A 
ATOM      3  N   UNL     1      -3.132   0.959  -1.933  0.00  0.00    -0.211 NA
ATOM      4  C   UNL     1      -3.854   1.506  -2.886  0.00  0.00    +0.140 A 
ATOM      5  N   UNL     1      -4.013   0.938  -4.069  0.00  0.00    -0.192 NA
ATOM      6  C   UNL     1      -3.445  -0.225  -4.357  0.00  0.00    +0.303 A 
ATOM      7  O   UNL     1      -3.615  -0.796  -5.573  0.00  0.00    -0.263 OA
ATOM      8  C   UNL     1      -2.661  -0.852  -3.370  0.00  0.00    +0.197 A 
ATOM      9  N   UNL     1      -1.960  -1.998  -3.319  0.00  0.00    -0.122 NA
ATOM     10  N   UNL     1      -1.398  -2.122  -2.168  0.00  0.00    -0.063 NA
ENDROOT
BRANCH   4  11
ATOM     11  C   UNL     1      -4.526   2.828  -2.620  0.00  0.00    +0.073 C 
ATOM     12  C   UNL     1      -4.018   3.869  -3.620  0.00  0.00    +0.014 C 
ATOM     13  C   UNL     1      -4.675   5.221  -3.330  0.00  0.00    +0.018 C 
ATOM     14  C   UNL     1      -6.193   5.092  -3.494  0.00  0.00    +0.109 C 
ATOM     15  N   UNL     1      -6.669   3.994  -2.642  0.00  0.00    -0.176 NA
ATOM     16  C   UNL     1      -6.042   2.672  -2.775  0.00  0.00    +0.120 C 
BRANCH  15  17
ATOM     17  S   UNL     1      -7.890   4.242  -1.551  0.00  0.00    +0.061 S 
ATOM     18  O   UNL     1      -7.745   3.248  -0.546  0.00  0.00    -0.153 OA
ATOM     19  O   UNL     1      -7.893   5.631  -1.253  0.00  0.00    -0.153 OA
BRANCH  17  20
ATOM     20  C   UNL     1      -9.407   3.901  -2.380  0.00  0.00    +0.106 A 
ATOM     21  C   UNL     1     -10.070   4.912  -3.050  0.00  0.00    +0.031 A 
ATOM     22  C   UNL     1     -11.259   4.646  -3.702  0.00  0.00    +0.040 A 
ATOM     23  C   UNL     1     -11.787   3.366  -3.683  0.00  0.00    +0.124 A 
ATOM     24  C   UNL     1     -11.122   2.354  -3.012  0.00  0.00    +0.040 A 
ATOM     25  C   UNL     1      -9.930   2.622  -2.365  0.00  0.00    +0.031 A 
ATOM     26  F   UNL     1     -12.950   3.105  -4.319  0.00  0.00    -0.205 F 
ENDBRANCH  17  20
ENDBRANCH  15  17
ENDBRANCH   4  11
BRANCH   1  27
ATOM     27  C   UNL     1      -1.293  -0.775   0.010  0.00  0.00    +0.182 C 
BRANCH  27  33
ATOM     28  C   UNL     1      -0.017   1.378   0.010  0.00  0.00    +0.008 A 
ATOM     29  C   UNL     1       1.170   2.086   0.002  0.00  0.00    +0.038 A 
ATOM     30  C   UNL     1       2.379   1.410  -0.013  0.00  0.00    +0.123 A 
ATOM     31  C   UNL     1       2.396   0.026  -0.021  0.00  0.00    +0.038 A 
ATOM     32  C   UNL     1       1.208  -0.680  -0.013  0.00  0.00    +0.008 A 
ATOM     33  C   UNL     1       0.002  -0.004   0.002  0.00  0.00    -0.026 A 
ATOM     34  F   UNL     1       3.540   2.101  -0.021  0.00  0.00    -0.205 F 
ENDBRANCH  27  33
ENDBRANCH   1  27
TORSDOF 5
