REMARK  Name = ZINC10361195
REMARK  11 active torsions:
REMARK  status: ('A' for Active; 'I' for Inactive)
REMARK    1  A    between atoms: C_1  and  C_2
REMARK    2  A    between atoms: C_2  and  C_3
REMARK    3  A    between atoms: C_4  and  C_31
REMARK    4  A    between atoms: C_5  and  C_13
REMARK    5  A    between atoms: C_13  and  O_15
REMARK    6  A    between atoms: O_15  and  C_16
REMARK    7  A    between atoms: C_16  and  C_17
REMARK    8  A    between atoms: N_19  and  C_20
REMARK    9  A    between atoms: C_20  and  C_21
REMARK   10  A    between atoms: C_24  and  S_27
REMARK   11  A    between atoms: S_27  and  N_30
REMARK                            x       y       z     vdW  Elec       q    Type
REMARK                         _______ _______ _______ _____ _____    ______ ____
ROOT
ATOM      1  C   UNL     1       4.383  -3.924   1.027  0.00  0.00    +0.328 C 
ENDROOT
BRANCH   1   2
ATOM      2  C   UNL     1       4.893  -4.224   2.413  0.00  0.00    +0.251 C 
ATOM      3  O   UNL     1       4.265  -3.856   3.383  0.00  0.00    -0.272 OA
ATOM      4  N   UNL     1       6.046  -4.902   2.574  0.00  0.00    -0.308 N 
ATOM      5  H   UNL     1       6.548  -5.196   1.798  0.00  0.00    +0.149 HD
BRANCH   4   6
ATOM      6  C   UNL     1       6.542  -5.194   3.921  0.00  0.00    +0.139 C 
BRANCH   6   7
ATOM      7  C   UNL     1       7.839  -5.956   3.825  0.00  0.00    -0.030 A 
ATOM      8  C   UNL     1       7.828  -7.338   3.786  0.00  0.00    +0.007 A 
ATOM      9  C   UNL     1       9.017  -8.036   3.694  0.00  0.00    +0.029 A 
ATOM     10  C   UNL     1      10.218  -7.353   3.649  0.00  0.00    +0.105 A 
ATOM     11  C   UNL     1      10.230  -5.972   3.694  0.00  0.00    +0.029 A 
ATOM     12  C   UNL     1       9.040  -5.273   3.782  0.00  0.00    +0.007 A 
BRANCH  10  13
ATOM     13  S   UNL     1      11.734  -8.244   3.536  0.00  0.00    +0.056 S 
ATOM     14  O   UNL     1      11.422  -9.505   2.960  0.00  0.00    -0.153 OA
ATOM     15  O   UNL     1      12.684  -7.357   2.959  0.00  0.00    -0.153 OA
BRANCH  13  16
ATOM     16  N   UNL     1      12.243  -8.543   5.083  0.00  0.00    -0.204 NA
ATOM     17  H   UNL     1      12.766  -9.337   5.276  0.00  0.00    +0.144 HD
ATOM     18  H   UNL     1      12.019  -7.924   5.795  0.00  0.00    +0.144 HD
ENDBRANCH  13  16
ENDBRANCH  10  13
ENDBRANCH   6   7
ENDBRANCH   4   6
ENDBRANCH   1   2
BRANCH   1  19
ATOM     19  O   UNL     1       3.133  -3.190   1.120  0.00  0.00    -0.452 OA
BRANCH  19  20
ATOM     20  C   UNL     1       2.541  -2.841  -0.039  0.00  0.00    +0.341 C 
ATOM     21  O   UNL     1       3.055  -3.142  -1.098  0.00  0.00    -0.245 OA
BRANCH  20  24
ATOM     22  C   UNL     1      -1.136  -2.017   0.001  0.00  0.00    +0.045 A 
ATOM     23  C   UNL     1       0.046  -2.754  -0.014  0.00  0.00    -0.015 A 
ATOM     24  C   UNL     1       1.267  -2.093  -0.022  0.00  0.00    +0.073 A 
ATOM     25  C   UNL     1       1.250  -0.674  -0.013  0.00  0.00    +0.015 A 
ATOM     26  C   UNL     1       2.438   0.069  -0.021  0.00  0.00    +0.011 A 
ATOM     27  C   UNL     1       2.380   1.431  -0.013  0.00  0.00    +0.001 A 
ATOM     28  C   UNL     1       1.155   2.094   0.002  0.00  0.00    +0.002 A 
ATOM     29  C   UNL     1      -0.017   1.403   0.010  0.00  0.00    +0.028 A 
ATOM     30  C   UNL     1       0.002  -0.004   0.002  0.00  0.00    +0.072 A 
ATOM     31  N   UNL     1      -1.134  -0.707   0.009  0.00  0.00    -0.251 NA
ATOM     32  C   UNL     1      -0.001  -4.261  -0.022  0.00  0.00    +0.046 C 
BRANCH  22  34
ATOM     33  C   UNL     1      -2.914  -2.985  -1.430  0.00  0.00    +0.010 C 
ATOM     34  C   UNL     1      -2.454  -2.746   0.009  0.00  0.00    +0.052 C 
ENDBRANCH  22  34
ENDBRANCH  20  24
ENDBRANCH  19  20
ENDBRANCH   1  19
TORSDOF 9
