REMARK  Name = ZINC39631375
REMARK  14 active torsions:
REMARK  status: ('A' for Active; 'I' for Inactive)
REMARK    1  A    between atoms: C_1  and  C_2
REMARK    2  A    between atoms: C_2  and  O_3
REMARK    3  A    between atoms: O_3  and  C_4
REMARK    4  A    between atoms: C_7  and  C_10
REMARK    5  A    between atoms: C_14  and  C_23
REMARK    6  A    between atoms: N_25  and  C_26
REMARK    7  A    between atoms: C_26  and  C_28
REMARK    8  A    between atoms: C_26  and  C_29
REMARK    9  A    between atoms: C_29  and  C_30
REMARK   10  A    between atoms: C_30  and  C_31
REMARK   11  A    between atoms: C_31  and  C_32
REMARK   12  A    between atoms: C_32  and  C_33
REMARK   13  A    between atoms: C_32  and  C_34
REMARK   14  A    between atoms: C_32  and  O_35
REMARK                            x       y       z     vdW  Elec       q    Type
REMARK                         _______ _______ _______ _____ _____    ______ ____
ROOT
ATOM      1  C   UNL     1       1.141  -6.028   1.762  0.00  0.00    +0.247 C 
ATOM      2  O   UNL     1       0.574  -6.771   0.985  0.00  0.00    -0.270 OA
ATOM      3  N   UNL     1       1.863  -6.540   2.779  0.00  0.00    -0.296 N 
ATOM      4  C   UNL     1       2.512  -5.807   3.891  0.00  0.00    +0.121 C 
ATOM      5  C   UNL     1       2.285  -6.699   5.132  0.00  0.00    +0.100 C 
ATOM      6  C   UNL     1       2.073  -8.113   4.565  0.00  0.00    -0.004 C 
ATOM      7  C   UNL     1       2.180  -7.965   3.041  0.00  0.00    +0.115 C 
ATOM      8  C   UNL     1       0.688  -8.632   4.942  0.00  0.00    -0.010 C 
ATOM      9  C   UNL     1       0.523 -10.061   4.417  0.00  0.00    -0.082 C 
ATOM     10  N   UNL     1       1.563 -10.920   4.994  0.00  0.00    +0.379 N 
ATOM     11  C   UNL     1       2.888 -10.469   4.551  0.00  0.00    -0.082 C 
ATOM     12  C   UNL     1       3.154  -9.058   5.082  0.00  0.00    -0.010 C 
ATOM     13  H   UNL     1       1.514 -10.875   6.001  0.00  0.00    -0.086 HD
ATOM     14  H   UNL     1       1.416 -11.872   4.695  0.00  0.00    -0.086 HD
ENDROOT
BRANCH   1  18
ATOM     15  C   UNL     1       0.849  -1.820   1.274  0.00  0.00    +0.121 A 
ATOM     16  C   UNL     1       1.938  -2.366   1.944  0.00  0.00    +0.046 A 
ATOM     17  C   UNL     1       2.036  -3.730   2.104  0.00  0.00    +0.016 A 
ATOM     18  C   UNL     1       1.039  -4.566   1.593  0.00  0.00    +0.037 A 
ATOM     19  C   UNL     1      -0.054  -4.013   0.920  0.00  0.00    +0.016 A 
ATOM     20  C   UNL     1      -0.147  -2.647   0.768  0.00  0.00    +0.046 A 
BRANCH  15  21
ATOM     21  O   UNL     1       0.756  -0.475   1.117  0.00  0.00    -0.492 OA
BRANCH  21  23
ATOM     22  C   UNL     1       1.536   1.796   1.389  0.00  0.00    +0.048 C 
ATOM     23  C   UNL     1       1.814   0.316   1.661  0.00  0.00    +0.225 C 
ENDBRANCH  21  23
ENDBRANCH  15  21
ENDBRANCH   1  18
BRANCH   5  24
ATOM     24  C   UNL     1       3.494  -6.668   6.030  0.00  0.00    +0.218 C 
ATOM     25  O   UNL     1       4.586  -6.409   5.569  0.00  0.00    -0.275 OA
ATOM     26  N   UNL     1       3.363  -6.926   7.346  0.00  0.00    -0.312 N 
ATOM     27  H   UNL     1       2.490  -7.133   7.716  0.00  0.00    +0.149 HD
BRANCH  26  28
ATOM     28  C   UNL     1       4.539  -6.895   8.220  0.00  0.00    +0.070 C 
ATOM     29  C   UNL     1       5.245  -8.252   8.173  0.00  0.00    +0.028 C 
BRANCH  28  30
ATOM     30  C   UNL     1       4.101  -6.598   9.655  0.00  0.00    +0.022 C 
BRANCH  30  31
ATOM     31  C   UNL     1       3.507  -5.189   9.725  0.00  0.00    +0.005 C 
BRANCH  31  32
ATOM     32  C   UNL     1       3.069  -4.892  11.161  0.00  0.00    +0.034 C 
BRANCH  32  33
ATOM     33  C   UNL     1       2.475  -3.483  11.231  0.00  0.00    +0.061 C 
ATOM     34  C   UNL     1       2.152  -3.139  12.686  0.00  0.00    +0.041 C 
ATOM     35  C   UNL     1       3.486  -2.476  10.681  0.00  0.00    +0.041 C 
BRANCH  33  36
ATOM     36  O   UNL     1       1.278  -3.432  10.452  0.00  0.00    -0.389 OA
ATOM     37  H   UNL     1       0.591  -4.046  10.745  0.00  0.00    +0.210 HD
ENDBRANCH  33  36
ENDBRANCH  32  33
ENDBRANCH  31  32
ENDBRANCH  30  31
ENDBRANCH  28  30
ENDBRANCH  26  28
ENDBRANCH   5  24
TORSDOF 10
