REMARK  Name = ZINC37522833
REMARK  7 active torsions:
REMARK  status: ('A' for Active; 'I' for Inactive)
REMARK    1  A    between atoms: C_1  and  C_2
REMARK    2  A    between atoms: C_5  and  S_8
REMARK    3  A    between atoms: S_8  and  N_11
REMARK    4  A    between atoms: N_14  and  C_20
REMARK    5  A    between atoms: C_17  and  C_19
REMARK    6  A    between atoms: C_22  and  C_27
REMARK    7  A    between atoms: C_25  and  C_26
REMARK                            x       y       z     vdW  Elec       q    Type
REMARK                         _______ _______ _______ _____ _____    ______ ____
ROOT
ATOM      1  N   UNL     1       1.606  -5.076  -0.011  0.00  0.00    -0.163 NA
ATOM      2  C   UNL     1       2.278  -5.392  -1.282  0.00  0.00    +0.129 C 
ATOM      3  C   UNL     1       3.388  -4.362  -1.504  0.00  0.00    +0.131 C 
ATOM      4  N   UNL     1       4.176  -4.183  -0.292  0.00  0.00    -0.269 N 
ATOM      5  C   UNL     1       3.751  -4.476   0.937  0.00  0.00    +0.238 C 
ATOM      6  O   UNL     1       4.469  -4.208   1.877  0.00  0.00    -0.273 OA
ATOM      7  C   UNL     1       2.423  -5.118   1.212  0.00  0.00    +0.163 C 
ATOM      8  C   UNL     1       1.708  -4.358   2.331  0.00  0.00    +0.036 C 
ENDROOT
BRANCH   4   9
ATOM      9  C   UNL     1       5.469  -3.667  -0.428  0.00  0.00    +0.039 A 
ATOM     10  C   UNL     1       5.681  -2.295  -0.373  0.00  0.00    +0.027 A 
ATOM     11  C   UNL     1       6.958  -1.789  -0.508  0.00  0.00    -0.049 A 
ATOM     12  C   UNL     1       8.027  -2.646  -0.696  0.00  0.00    +0.004 A 
ATOM     13  C   UNL     1       7.820  -4.012  -0.751  0.00  0.00    +0.005 A 
ATOM     14  C   UNL     1       6.545  -4.525  -0.611  0.00  0.00    -0.029 A 
ATOM     15  C   UNL     1       6.321  -6.015  -0.664  0.00  0.00    +0.045 C 
ATOM     16  C   UNL     1       7.188  -0.301  -0.449  0.00  0.00    +0.044 C 
ENDBRANCH   4   9
BRANCH   1  17
ATOM     17  S   UNL     1      -0.002  -4.684   0.040  0.00  0.00    +0.062 S 
ATOM     18  O   UNL     1      -0.390  -4.388  -1.294  0.00  0.00    -0.153 OA
ATOM     19  O   UNL     1      -0.160  -3.755   1.104  0.00  0.00    -0.153 OA
BRANCH  17  24
ATOM     20  C   UNL     1      -3.007  -9.665   1.643  0.00  0.00    +0.044 C 
ATOM     21  C   UNL     1      -2.256  -8.421   1.243  0.00  0.00    -0.050 A 
ATOM     22  C   UNL     1      -1.800  -7.547   2.212  0.00  0.00    +0.005 A 
ATOM     23  C   UNL     1      -1.112  -6.406   1.845  0.00  0.00    +0.029 A 
ATOM     24  C   UNL     1      -0.879  -6.139   0.508  0.00  0.00    +0.106 A 
ATOM     25  C   UNL     1      -1.333  -7.014  -0.461  0.00  0.00    +0.029 A 
ATOM     26  C   UNL     1      -2.018  -8.157  -0.093  0.00  0.00    +0.005 A 
ENDBRANCH  17  24
ENDBRANCH   1  17
TORSDOF 3
