REMARK  Name = ZINC66926818
REMARK  6 active torsions:
REMARK  status: ('A' for Active; 'I' for Inactive)
REMARK    1  A    between atoms: C_1  and  C_2
REMARK    2  A    between atoms: C_2  and  C_7
REMARK    3  A    between atoms: C_7  and  N_8
REMARK    4  A    between atoms: C_14  and  N_17
REMARK    5  A    between atoms: C_18  and  C_20
REMARK    6  A    between atoms: C_20  and  C_21
REMARK                            x       y       z     vdW  Elec       q    Type
REMARK                         _______ _______ _______ _____ _____    ______ ____
ROOT
ATOM      1  N   UNL     1      -2.118  -0.054  -1.217  0.00  0.00    -0.299 N 
ATOM      2  C   UNL     1      -3.397  -0.406  -1.450  0.00  0.00    +0.302 C 
ATOM      3  O   UNL     1      -3.951  -1.204  -0.719  0.00  0.00    -0.253 OA
ATOM      4  N   UNL     1      -4.064   0.126  -2.494  0.00  0.00    -0.286 N 
ATOM      5  C   UNL     1      -3.376   1.001  -3.453  0.00  0.00    +0.111 C 
ATOM      6  C   UNL     1      -4.153   2.316  -3.567  0.00  0.00    +0.041 C 
ATOM      7  C   UNL     1      -5.610   2.013  -3.925  0.00  0.00    +0.076 C 
ATOM      8  C   UNL     1      -6.245   1.171  -2.817  0.00  0.00    +0.041 C 
ATOM      9  C   UNL     1      -5.490  -0.162  -2.697  0.00  0.00    +0.111 C 
ATOM     10  H   UNL     1      -1.653   0.525  -1.841  0.00  0.00    +0.150 HD
ENDROOT
BRANCH   7  11
ATOM     11  N   UNL     1      -6.349   3.270  -4.068  0.00  0.00    -0.312 N 
ATOM     12  C   UNL     1      -7.453   3.318  -4.839  0.00  0.00    +0.214 C 
ATOM     13  O   UNL     1      -7.835   2.322  -5.415  0.00  0.00    -0.276 OA
ATOM     14  H   UNL     1      -6.044   4.067  -3.607  0.00  0.00    +0.149 HD
BRANCH  12  15
ATOM     15  C   UNL     1      -8.214   4.611  -4.986  0.00  0.00    +0.099 C 
BRANCH  15  16
ATOM     16  C   UNL     1      -9.415   4.394  -5.908  0.00  0.00    -0.002 C 
ATOM     17  C   UNL     1      -8.934   4.119  -7.347  0.00  0.00    +0.004 C 
ATOM     18  C   UNL     1      -9.977   4.836  -8.240  0.00  0.00    +0.000 C 
ATOM     19  C   UNL     1     -10.280   6.128  -7.441  0.00  0.00    +0.000 C 
ATOM     20  C   UNL     1     -10.271   5.672  -5.967  0.00  0.00    +0.004 C 
ENDBRANCH  15  16
ENDBRANCH  12  15
ENDBRANCH   7  11
BRANCH   1  21
ATOM     21  C   UNL     1      -1.429  -0.545  -0.021  0.00  0.00    +0.112 C 
BRANCH  21  23
ATOM     22  C   UNL     1      -0.020   1.528   0.011  0.00  0.00    +0.013 C 
ATOM     23  C   UNL     1       0.001  -0.002   0.004  0.00  0.00    -0.016 C 
ATOM     24  C   UNL     1       0.783  -0.513  -1.223  0.00  0.00    +0.008 C 
ATOM     25  C   UNL     1       2.213  -0.765  -0.684  0.00  0.00    +0.001 C 
ATOM     26  C   UNL     1       1.949  -1.335   0.732  0.00  0.00    +0.001 C 
ATOM     27  C   UNL     1       0.742  -0.524   1.247  0.00  0.00    +0.008 C 
ENDBRANCH  21  23
ENDBRANCH   1  21
TORSDOF 5
