REMARK  Name = ZINC15962002
REMARK  9 active torsions:
REMARK  status: ('A' for Active; 'I' for Inactive)
REMARK    1  A    between atoms: C_1  and  C_2
REMARK    2  A    between atoms: C_4  and  C_10
REMARK    3  A    between atoms: C_5  and  O_9
REMARK    4  A    between atoms: C_7  and  C_8
REMARK    5  A    between atoms: C_12  and  C_16
REMARK    6  A    between atoms: N_18  and  C_19
REMARK    7  A    between atoms: C_20  and  C_27
REMARK    8  A    between atoms: N_29  and  C_30
REMARK    9  A    between atoms: C_30  and  C_31
REMARK                            x       y       z     vdW  Elec       q    Type
REMARK                         _______ _______ _______ _____ _____    ______ ____
ROOT
ATOM      1  C   UNL     1       0.935  -5.403  -4.898  0.00  0.00    +0.269 C 
ATOM      2  O   UNL     1       1.726  -6.176  -4.392  0.00  0.00    -0.268 OA
ATOM      3  N   UNL     1       0.534  -5.587  -6.171  0.00  0.00    -0.274 N 
ATOM      4  H   UNL     1      -0.097  -4.971  -6.575  0.00  0.00    +0.156 HD
ENDROOT
BRANCH   3   5
ATOM      5  C   UNL     1       1.021  -6.658  -6.903  0.00  0.00    +0.085 A 
ATOM      6  C   UNL     1       0.728  -6.998  -8.211  0.00  0.00    +0.069 A 
ATOM      7  C   UNL     1       1.381  -8.187  -8.757  0.00  0.00    -0.023 A 
ATOM      8  C   UNL     1       2.201  -8.809  -7.890  0.00  0.00    -0.004 A 
ATOM      9  S   UNL     1       2.108  -7.836  -6.409  0.00  0.00    -0.077 S 
ATOM     10  C   UNL     1       2.842 -10.026  -8.500  0.00  0.00    +0.043 C 
ATOM     11  C   UNL     1       1.983 -10.337  -9.746  0.00  0.00    +0.010 C 
ATOM     12  C   UNL     1       1.399  -8.949 -10.080  0.00  0.00    +0.037 C 
BRANCH   6  13
ATOM     13  C   UNL     1      -0.200  -6.199  -9.017  0.00  0.00    +0.247 C 
ATOM     14  O   UNL     1       0.218  -5.273  -9.687  0.00  0.00    -0.270 OA
ATOM     15  N   UNL     1      -1.516  -6.491  -9.017  0.00  0.00    -0.304 N 
ATOM     16  H   UNL     1      -1.849  -7.229  -8.483  0.00  0.00    +0.149 HD
BRANCH  15  17
ATOM     17  C   UNL     1      -2.443  -5.693  -9.822  0.00  0.00    +0.179 C 
BRANCH  17  18
ATOM     18  C   UNL     1      -3.844  -6.221  -9.647  0.00  0.00    +0.122 A 
ATOM     19  C   UNL     1      -4.726  -5.816  -8.716  0.00  0.00    +0.046 A 
ATOM     20  C   UNL     1      -5.905  -6.571  -8.914  0.00  0.00    +0.041 A 
ATOM     21  C   UNL     1      -5.673  -7.392  -9.953  0.00  0.00    +0.195 A 
ATOM     22  O   UNL     1      -4.425  -7.172 -10.397  0.00  0.00    -0.466 OA
ENDBRANCH  17  18
ENDBRANCH  15  17
ENDBRANCH   6  13
ENDBRANCH   3   5
BRANCH   1  25
ATOM     23  C   UNL     1       0.029  -2.814  -2.491  0.00  0.00    +0.070 A 
ATOM     24  C   UNL     1       0.744  -3.942  -2.782  0.00  0.00    +0.062 A 
ATOM     25  C   UNL     1       0.416  -4.261  -4.118  0.00  0.00    +0.148 A 
ATOM     26  N   UNL     1      -0.440  -3.351  -4.540  0.00  0.00    -0.169 NA
ATOM     27  N   UNL     1      -0.686  -2.501  -3.610  0.00  0.00    -0.276 N 
ATOM     28  H   UNL     1      -1.289  -1.746  -3.691  0.00  0.00    +0.189 HD
BRANCH  23  32
ATOM     29  C   UNL     1      -0.018   1.503   0.010  0.00  0.00    +0.044 C 
ATOM     30  C   UNL     1       0.002  -0.004   0.002  0.00  0.00    -0.047 A 
ATOM     31  C   UNL     1       0.006  -0.685  -1.198  0.00  0.00    +0.017 A 
ATOM     32  C   UNL     1       0.025  -2.079  -1.207  0.00  0.00    +0.041 A 
ATOM     33  C   UNL     1       0.041  -2.779   0.005  0.00  0.00    +0.126 A 
ATOM     34  C   UNL     1       0.037  -2.082   1.201  0.00  0.00    +0.049 A 
ATOM     35  C   UNL     1       0.023  -0.700   1.198  0.00  0.00    -0.044 A 
ATOM     36  C   UNL     1       0.025   0.053   2.503  0.00  0.00    +0.044 C 
BRANCH  33  37
ATOM     37  O   UNL     1       0.059  -4.138   0.007  0.00  0.00    -0.506 OA
ATOM     38  H   UNL     1       0.948  -4.519   0.003  0.00  0.00    +0.292 HD
ENDBRANCH  33  37
ENDBRANCH  23  32
ENDBRANCH   1  25
TORSDOF 7
