REMARK  Name = ZINC22852175
REMARK  5 active torsions:
REMARK  status: ('A' for Active; 'I' for Inactive)
REMARK    1  A    between atoms: C_3  and  C_8
REMARK    2  A    between atoms: C_8  and  C_10
REMARK    3  A    between atoms: C_8  and  N_24
REMARK    4  A    between atoms: C_16  and  C_18
REMARK    5  A    between atoms: C_27  and  C_30
REMARK                            x       y       z     vdW  Elec       q    Type
REMARK                         _______ _______ _______ _____ _____    ______ ____
ROOT
ATOM      1  C   UNL     1       1.229  -2.185  -0.021  0.00  0.00    +0.006 C 
ENDROOT
BRANCH   1   2
ATOM      2  C   UNL     1       1.319  -2.488  -1.495  0.00  0.00    +0.050 A 
ATOM      3  C   UNL     1       0.356  -2.888  -2.334  0.00  0.00    +0.282 A 
ATOM      4  N   UNL     1       0.632  -3.116  -3.660  0.00  0.00    -0.169 N 
ATOM      5  C   UNL     1       1.921  -2.917  -4.072  0.00  0.00    +0.200 A 
ATOM      6  S   UNL     1       2.735  -2.400  -2.579  0.00  0.00    -0.050 S 
ATOM      7  N   UNL     1       2.021  -3.172  -5.346  0.00  0.00    -0.197 NA
ATOM      8  C   UNL     1       0.823  -3.544  -5.818  0.00  0.00    +0.218 A 
ATOM      9  N   UNL     1      -0.051  -3.526  -4.835  0.00  0.00    -0.138 NA
ATOM     10  O   UNL     1      -0.909  -3.071  -1.869  0.00  0.00    -0.265 OA
BRANCH   8  11
ATOM     11  C   UNL     1       0.530  -3.915  -7.219  0.00  0.00    +0.173 A 
ATOM     12  C   UNL     1       1.426  -3.938  -8.242  0.00  0.00    +0.053 A 
ATOM     13  C   UNL     1       0.719  -4.347  -9.390  0.00  0.00    +0.042 A 
ATOM     14  C   UNL     1      -0.559  -4.551  -9.016  0.00  0.00    +0.196 A 
ATOM     15  O   UNL     1      -0.668  -4.295  -7.702  0.00  0.00    -0.460 OA
ENDBRANCH   8  11
ENDBRANCH   1   2
BRANCH   1  18
ATOM     16  C   UNL     1       2.582   1.330   0.240  0.00  0.00    +0.003 A 
ATOM     17  C   UNL     1       2.512  -0.037   0.045  0.00  0.00    +0.002 A 
ATOM     18  C   UNL     1       1.305  -0.695   0.190  0.00  0.00    -0.053 A 
ATOM     19  C   UNL     1       0.167   0.013   0.529  0.00  0.00    +0.040 A 
ATOM     20  C   UNL     1       0.237   1.382   0.724  0.00  0.00    +0.124 A 
ATOM     21  C   UNL     1       1.446   2.040   0.579  0.00  0.00    +0.038 A 
ATOM     22  F   UNL     1      -0.876   2.076   1.049  0.00  0.00    -0.205 F 
ENDBRANCH   1  18
BRANCH   1  23
ATOM     23  N   UNL     1       2.343  -2.837   0.681  0.00  0.00    +0.387 N 
ATOM     24  C   UNL     1       2.351  -4.283   0.427  0.00  0.00    -0.077 C 
ATOM     25  C   UNL     1       3.602  -4.905   1.052  0.00  0.00    -0.006 C 
ATOM     26  C   UNL     1       3.604  -4.632   2.558  0.00  0.00    +0.071 C 
ATOM     27  C   UNL     1       3.547  -3.120   2.795  0.00  0.00    -0.006 C 
ATOM     28  C   UNL     1       2.297  -2.550   2.120  0.00  0.00    -0.077 C 
ATOM     29  H   UNL     1       3.283  -2.422   0.286  0.00  0.00    -0.080 HD
BRANCH  26  30
ATOM     30  C   UNL     1       4.863  -5.190   3.171  0.00  0.00    +0.213 C 
ATOM     31  O   UNL     1       5.638  -4.452   3.741  0.00  0.00    -0.276 OA
ATOM     32  N   UNL     1       5.127  -6.509   3.085  0.00  0.00    -0.329 N 
ATOM     33  H   UNL     1       6.045  -6.916   3.532  0.00  0.00    +0.145 HD
ATOM     34  H   UNL     1       4.423  -7.178   2.567  0.00  0.00    +0.145 HD
ENDBRANCH  26  30
ENDBRANCH   1  23
TORSDOF 5
