REMARK  Name = ZINC39916302
REMARK  6 active torsions:
REMARK  status: ('A' for Active; 'I' for Inactive)
REMARK    1  A    between atoms: C_1  and  C_2
REMARK    2  A    between atoms: C_2  and  O_3
REMARK    3  A    between atoms: O_3  and  C_4
REMARK    4  A    between atoms: C_4  and  C_6
REMARK    5  A    between atoms: C_7  and  N_28
REMARK    6  A    between atoms: C_21  and  C_23
REMARK                            x       y       z     vdW  Elec       q    Type
REMARK                         _______ _______ _______ _____ _____    ______ ____
ROOT
ATOM      1  C   UNL     1       1.447  -2.321  -2.456  0.00  0.00    +0.102 C 
ATOM      2  C   UNL     1       1.597  -3.663  -2.554  0.00  0.00    +0.194 C 
ATOM      3  O   UNL     1       2.169  -4.240  -3.637  0.00  0.00    -0.445 OA
ATOM      4  C   UNL     1       2.748  -3.420  -4.516  0.00  0.00    +0.129 C 
ATOM      5  C   UNL     1       3.954  -3.699  -5.141  0.00  0.00    +0.035 A 
ATOM      6  C   UNL     1       4.642  -4.907  -4.899  0.00  0.00    +0.013 A 
ATOM      7  C   UNL     1       5.818  -5.150  -5.539  0.00  0.00    +0.001 A 
ATOM      8  C   UNL     1       6.362  -4.229  -6.429  0.00  0.00    +0.002 A 
ATOM      9  C   UNL     1       5.747  -3.043  -6.699  0.00  0.00    +0.024 A 
ATOM     10  C   UNL     1       4.530  -2.724  -6.075  0.00  0.00    +0.044 A 
ATOM     11  N   UNL     1       3.931  -1.555  -6.334  0.00  0.00    -0.284 N 
ATOM     12  C   UNL     1       2.780  -1.186  -5.808  0.00  0.00    +0.229 C 
ATOM     13  O   UNL     1       2.300  -0.104  -6.090  0.00  0.00    -0.275 OA
ATOM     14  C   UNL     1       2.057  -2.110  -4.854  0.00  0.00    +0.154 C 
ATOM     15  C   UNL     1       1.910  -1.369  -3.523  0.00  0.00    +0.087 C 
ATOM     16  H   UNL     1       4.370  -0.943  -6.945  0.00  0.00    +0.155 HD
ENDROOT
BRANCH  15  17
ATOM     17  C   UNL     1       3.243  -0.786  -3.131  0.00  0.00    -0.001 A 
ATOM     18  C   UNL     1       3.580   0.510  -2.921  0.00  0.00    +0.012 A 
ATOM     19  C   UNL     1       4.880   0.816  -2.562  0.00  0.00    +0.008 A 
ATOM     20  C   UNL     1       5.779  -0.190  -2.431  0.00  0.00    +0.045 A 
ATOM     21  S   UNL     1       4.787  -1.624  -2.813  0.00  0.00    -0.101 S 
ENDBRANCH  15  17
BRANCH   2  22
ATOM     22  N   UNL     1       1.158  -4.459  -1.530  0.00  0.00    -0.329 N 
ATOM     23  H   UNL     1       0.665  -4.070  -0.791  0.00  0.00    +0.145 HD
ATOM     24  H   UNL     1       1.341  -5.411  -1.543  0.00  0.00    +0.145 HD
ENDBRANCH   2  22
BRANCH   1  25
ATOM     25  C   UNL     1       0.827  -1.797  -1.310  0.00  0.00    +0.341 C 
ATOM     26  O   UNL     1      -0.339  -1.445  -1.355  0.00  0.00    -0.245 OA
BRANCH  25  27
ATOM     27  O   UNL     1       1.522  -1.682  -0.158  0.00  0.00    -0.462 OA
BRANCH  27  29
ATOM     28  C   UNL     1       1.772  -1.089   2.171  0.00  0.00    +0.048 C 
ATOM     29  C   UNL     1       0.828  -1.141   0.968  0.00  0.00    +0.229 C 
ENDBRANCH  27  29
ENDBRANCH  25  27
ENDBRANCH   1  25
TORSDOF 5
