REMARK  Name = ZINC07975085
REMARK  6 active torsions:
REMARK  status: ('A' for Active; 'I' for Inactive)
REMARK    1  A    between atoms: C_1  and  C_2
REMARK    2  A    between atoms: C_3  and  N_11
REMARK    3  A    between atoms: C_7  and  N_8
REMARK    4  A    between atoms: N_11  and  C_12
REMARK    5  A    between atoms: C_12  and  C_13
REMARK    6  A    between atoms: N_15  and  C_16
REMARK                            x       y       z     vdW  Elec       q    Type
REMARK                         _______ _______ _______ _____ _____    ______ ____
ROOT
ATOM      1  C   UNL     1       1.378  -0.537   1.212  0.00  0.00    +0.234 C 
ATOM      2  O   UNL     1       2.255   0.300   1.195  0.00  0.00    -0.274 OA
ATOM      3  N   UNL     1       1.683  -1.827   1.456  0.00  0.00    -0.284 N 
ATOM      4  H   UNL     1       0.975  -2.486   1.533  0.00  0.00    +0.155 HD
ENDROOT
BRANCH   3   5
ATOM      5  C   UNL     1       3.016  -2.215   1.598  0.00  0.00    +0.041 A 
ATOM      6  C   UNL     1       3.933  -1.357   2.167  0.00  0.00    +0.024 A 
ATOM      7  C   UNL     1       5.264  -1.733   2.313  0.00  0.00    +0.002 A 
ATOM      8  C   UNL     1       5.699  -2.956   1.900  0.00  0.00    +0.008 A 
ATOM      9  C   UNL     1       4.796  -3.860   1.315  0.00  0.00    -0.016 A 
ATOM     10  C   UNL     1       3.437  -3.490   1.166  0.00  0.00    +0.003 A 
ATOM     11  C   UNL     1       2.537  -4.393   0.577  0.00  0.00    +0.010 A 
ATOM     12  C   UNL     1       2.979  -5.613   0.167  0.00  0.00    +0.001 A 
ATOM     13  C   UNL     1       4.315  -5.980   0.317  0.00  0.00    +0.001 A 
ATOM     14  C   UNL     1       5.216  -5.129   0.879  0.00  0.00    +0.008 A 
ENDBRANCH   3   5
BRANCH   1  15
ATOM     15  C   UNL     1      -0.053  -0.135   0.960  0.00  0.00    +0.198 C 
BRANCH  15  16
ATOM     16  N   UNL     1      -0.120   1.309   0.723  0.00  0.00    -0.335 N 
ATOM     17  H   UNL     1       0.690   1.842   0.745  0.00  0.00    +0.147 HD
BRANCH  16  20
ATOM     18  C   UNL     1      -0.160   4.120   0.286  0.00  0.00    +0.048 C 
ATOM     19  C   UNL     1      -1.415   3.287   0.240  0.00  0.00    +0.001 A 
ATOM     20  C   UNL     1      -1.349   1.917   0.459  0.00  0.00    +0.033 A 
ATOM     21  C   UNL     1      -2.509   1.154   0.421  0.00  0.00    +0.023 A 
ATOM     22  C   UNL     1      -3.723   1.758   0.160  0.00  0.00    +0.004 A 
ATOM     23  C   UNL     1      -3.785   3.121  -0.064  0.00  0.00    +0.033 A 
ATOM     24  C   UNL     1      -2.632   3.884  -0.026  0.00  0.00    +0.131 A 
BRANCH  24  25
ATOM     25  N   UNL     1      -2.702   5.343  -0.267  0.00  0.00    +0.057 N 
ATOM     26  O   UNL     1      -3.785   5.891  -0.370  0.00  0.00    -0.126 OA
ATOM     27  O   UNL     1      -1.678   5.995  -0.362  0.00  0.00    -0.126 OA
ENDBRANCH  24  25
ENDBRANCH  16  20
ENDBRANCH  15  16
ENDBRANCH   1  15
TORSDOF 5
