REMARK  Name = ZINC16468562
REMARK  9 active torsions:
REMARK  status: ('A' for Active; 'I' for Inactive)
REMARK    1  A    between atoms: C_1  and  C_2
REMARK    2  A    between atoms: C_5  and  C_8
REMARK    3  A    between atoms: C_9  and  C_28
REMARK    4  A    between atoms: C_14  and  C_16
REMARK    5  A    between atoms: C_16  and  C_17
REMARK    6  A    between atoms: C_17  and  C_18
REMARK    7  A    between atoms: C_19  and  C_27
REMARK    8  A    between atoms: C_21  and  C_26
REMARK    9  A    between atoms: C_31  and  C_34
REMARK                            x       y       z     vdW  Elec       q    Type
REMARK                         _______ _______ _______ _____ _____    ______ ____
ROOT
ATOM      1  C   UNL     1       8.385  -4.438  -2.692  0.00  0.00    +0.088 A 
ATOM      2  C   UNL     1       7.894  -3.627  -1.674  0.00  0.00    +0.048 A 
ATOM      3  S   UNL     1       8.382  -2.015  -2.273  0.00  0.00    -0.051 S 
ATOM      4  C   UNL     1       9.169  -2.563  -3.781  0.00  0.00    +0.165 A 
ATOM      5  N   UNL     1       9.001  -3.871  -3.714  0.00  0.00    -0.224 NA
ATOM      6  N   UNL     1       9.790  -1.810  -4.768  0.00  0.00    -0.265 N 
ATOM      7  C   UNL     1      10.330  -2.420  -5.842  0.00  0.00    +0.219 C 
ATOM      8  O   UNL     1      10.273  -3.627  -5.946  0.00  0.00    -0.275 OA
ATOM      9  H   UNL     1       9.835  -0.845  -4.685  0.00  0.00    +0.157 HD
ENDROOT
BRANCH   1  14
ATOM     10  C   UNL     1       7.719 -10.152  -2.471  0.00  0.00    +0.044 C 
ATOM     11  C   UNL     1       7.893  -8.657  -2.529  0.00  0.00    -0.050 A 
ATOM     12  C   UNL     1       6.838  -7.827  -2.196  0.00  0.00    +0.004 A 
ATOM     13  C   UNL     1       6.991  -6.456  -2.247  0.00  0.00    +0.010 A 
ATOM     14  C   UNL     1       8.213  -5.908  -2.636  0.00  0.00    +0.002 A 
ATOM     15  C   UNL     1       9.272  -6.750  -2.976  0.00  0.00    +0.010 A 
ATOM     16  C   UNL     1       9.108  -8.119  -2.915  0.00  0.00    +0.004 A 
ENDBRANCH   1  14
BRANCH   2  17
ATOM     17  C   UNL     1       7.173  -3.996  -0.440  0.00  0.00    -0.009 A 
ATOM     18  C   UNL     1       7.636  -5.045   0.357  0.00  0.00    +0.009 A 
ATOM     19  C   UNL     1       6.959  -5.381   1.511  0.00  0.00    +0.004 A 
ATOM     20  C   UNL     1       5.817  -4.688   1.874  0.00  0.00    -0.050 A 
ATOM     21  C   UNL     1       5.350  -3.651   1.086  0.00  0.00    +0.004 A 
ATOM     22  C   UNL     1       6.019  -3.301  -0.068  0.00  0.00    +0.009 A 
ATOM     23  C   UNL     1       5.080  -5.066   3.132  0.00  0.00    +0.044 C 
ENDBRANCH   2  17
BRANCH   7  24
ATOM     24  C   UNL     1      11.004  -1.603  -6.913  0.00  0.00    +0.101 C 
BRANCH  24  25
ATOM     25  C   UNL     1      11.527  -2.531  -8.011  0.00  0.00    +0.051 C 
BRANCH  25  26
ATOM     26  C   UNL     1      12.200  -1.714  -9.082  0.00  0.00    +0.038 A 
ATOM     27  C   UNL     1      13.548  -1.518  -9.063  0.00  0.00    +0.049 A 
ATOM     28  N   UNL     1      14.129  -0.791 -10.021  0.00  0.00    -0.239 NA
ATOM     29  C   UNL     1      13.433  -0.255 -10.988  0.00  0.00    +0.107 A 
ATOM     30  N   UNL     1      12.097  -0.411 -11.064  0.00  0.00    -0.311 N 
ATOM     31  H   UNL     1      11.600  -0.004 -11.791  0.00  0.00    +0.170 HD
ATOM     32  C   UNL     1      11.449  -1.136 -10.126  0.00  0.00    +0.255 A 
ATOM     33  O   UNL     1      10.240  -1.287 -10.181  0.00  0.00    -0.268 OA
ATOM     34  C   UNL     1      14.139   0.561 -12.039  0.00  0.00    +0.086 C 
ATOM     35  C   UNL     1      14.383  -2.121  -7.963  0.00  0.00    +0.066 C 
ENDBRANCH  25  26
ENDBRANCH  24  25
ENDBRANCH   7  24
TORSDOF 5
