REMARK  Name = ZINC36580896
REMARK  18 active torsions:
REMARK  status: ('A' for Active; 'I' for Inactive)
REMARK    1  A    between atoms: C_1  and  C_2
REMARK    2  A    between atoms: C_2  and  C_3
REMARK    3  A    between atoms: C_3  and  C_4
REMARK    4  A    between atoms: C_4  and  N_5
REMARK    5  A    between atoms: C_6  and  C_8
REMARK    6  A    between atoms: C_8  and  C_10
REMARK    7  A    between atoms: C_8  and  N_19
REMARK    8  A    between atoms: C_11  and  O_18
REMARK    9  A    between atoms: C_13  and  O_17
REMARK   10  A    between atoms: C_15  and  O_16
REMARK   11  A    between atoms: N_19  and  C_32
REMARK   12  A    between atoms: C_20  and  C_22
REMARK   13  A    between atoms: C_22  and  C_24
REMARK   14  A    between atoms: C_22  and  O_30
REMARK   15  A    between atoms: O_30  and  C_31
REMARK   16  A    between atoms: C_32  and  C_33
REMARK   17  A    between atoms: C_32  and  C_34
REMARK   18  A    between atoms: C_32  and  C_35
REMARK                            x       y       z     vdW  Elec       q    Type
REMARK                         _______ _______ _______ _____ _____    ______ ____
ROOT
ATOM      1  C   UNL     1      -4.531  -3.694  -0.261  0.00  0.00    +0.200 C 
ENDROOT
BRANCH   1   2
ATOM      2  C   UNL     1      -5.037  -3.036  -1.518  0.00  0.00    +0.065 A 
ATOM      3  C   UNL     1      -6.289  -3.364  -2.017  0.00  0.00    +0.129 A 
ATOM      4  C   UNL     1      -6.755  -2.758  -3.174  0.00  0.00    +0.091 A 
ATOM      5  C   UNL     1      -5.970  -1.823  -3.832  0.00  0.00    +0.124 A 
ATOM      6  C   UNL     1      -4.719  -1.494  -3.333  0.00  0.00    +0.091 A 
ATOM      7  C   UNL     1      -4.254  -2.097  -2.173  0.00  0.00    +0.129 A 
BRANCH   7   8
ATOM      8  O   UNL     1      -3.030  -1.771  -1.681  0.00  0.00    -0.506 OA
ATOM      9  H   UNL     1      -2.310  -2.319  -2.023  0.00  0.00    +0.292 HD
ENDBRANCH   7   8
BRANCH   5  10
ATOM     10  O   UNL     1      -6.426  -1.230  -4.966  0.00  0.00    -0.507 OA
ATOM     11  H   UNL     1      -6.921  -0.414  -4.811  0.00  0.00    +0.292 HD
ENDBRANCH   5  10
BRANCH   3  12
ATOM     12  O   UNL     1      -7.058  -4.280  -1.373  0.00  0.00    -0.506 OA
ATOM     13  H   UNL     1      -7.605  -3.909  -0.667  0.00  0.00    +0.292 HD
ENDBRANCH   3  12
ENDBRANCH   1   2
BRANCH   1  15
ATOM     14  N   UNL     1      -6.492  -4.271   1.131  0.00  0.00    -0.313 N 
ATOM     15  C   UNL     1      -5.560  -4.672   0.244  0.00  0.00    +0.238 C 
ATOM     16  O   UNL     1      -5.550  -5.820  -0.148  0.00  0.00    -0.273 OA
ATOM     17  H   UNL     1      -6.500  -3.353   1.445  0.00  0.00    +0.149 HD
BRANCH  14  18
ATOM     18  C   UNL     1      -7.493  -5.221   1.622  0.00  0.00    +0.104 C 
BRANCH  18  19
ATOM     19  C   UNL     1      -8.424  -4.517   2.610  0.00  0.00    +0.018 C 
BRANCH  19  21
ATOM     20  C   UNL     1     -10.401  -4.804   4.111  0.00  0.00    +0.004 C 
ATOM     21  C   UNL     1      -9.470  -5.509   3.123  0.00  0.00    -0.002 C 
ENDBRANCH  19  21
ENDBRANCH  18  19
ENDBRANCH  14  18
ENDBRANCH   1  15
BRANCH   1  22
ATOM     22  N   UNL     1      -3.283  -4.405  -0.551  0.00  0.00    -0.278 N 
ATOM     23  C   UNL     1      -3.061  -4.902  -1.784  0.00  0.00    +0.250 C 
ATOM     24  O   UNL     1      -3.891  -4.753  -2.656  0.00  0.00    -0.272 OA
BRANCH  22  25
ATOM     25  C   UNL     1      -2.276  -4.576   0.499  0.00  0.00    +0.030 C 
ATOM     26  C   UNL     1      -2.930  -4.384   1.869  0.00  0.00    +0.031 C 
ATOM     27  C   UNL     1      -1.680  -5.982   0.411  0.00  0.00    +0.031 C 
ATOM     28  C   UNL     1      -1.166  -3.539   0.315  0.00  0.00    +0.031 C 
ENDBRANCH  22  25
BRANCH  23  29
ATOM     29  C   UNL     1      -1.783  -5.644  -2.079  0.00  0.00    +0.233 C 
BRANCH  29  30
ATOM     30  C   UNL     1      -0.626  -4.679  -2.057  0.00  0.00    -0.010 A 
ATOM     31  C   UNL     1      -0.694  -3.502  -2.778  0.00  0.00    +0.006 A 
ATOM     32  C   UNL     1       0.368  -2.617  -2.758  0.00  0.00    +0.000 A 
ATOM     33  C   UNL     1       1.497  -2.909  -2.015  0.00  0.00    +0.000 A 
ATOM     34  C   UNL     1       1.564  -4.085  -1.293  0.00  0.00    +0.000 A 
ATOM     35  C   UNL     1       0.501  -4.968  -1.310  0.00  0.00    +0.006 A 
ENDBRANCH  29  30
BRANCH  29  36
ATOM     36  O   UNL     1      -1.872  -6.252  -3.369  0.00  0.00    -0.366 OA
ATOM     37  C   UNL     1      -2.408  -7.576  -3.352  0.00  0.00    +0.195 C 
ENDBRANCH  29  36
ENDBRANCH  23  29
ENDBRANCH   1  22
TORSDOF 13
