REMARK  Name = ZINC20935753
REMARK  5 active torsions:
REMARK  status: ('A' for Active; 'I' for Inactive)
REMARK    1  A    between atoms: C_10  and  N_12
REMARK    2  A    between atoms: N_12  and  S_13
REMARK    3  A    between atoms: S_13  and  C_16
REMARK    4  A    between atoms: C_19  and  C_21
REMARK    5  A    between atoms: C_21  and  N_22
REMARK                            x       y       z     vdW  Elec       q    Type
REMARK                         _______ _______ _______ _____ _____    ______ ____
ROOT
ATOM      1  C   UNL     1       3.374   0.367  -3.989  0.00  0.00    +0.143 A 
ATOM      2  C   UNL     1       3.562   1.564  -3.381  0.00  0.00    +0.037 A 
ATOM      3  C   UNL     1       3.084   1.746  -2.097  0.00  0.00    +0.015 A 
ATOM      4  C   UNL     1       2.441   0.723  -1.484  0.00  0.00    +0.009 A 
ATOM      5  S   UNL     1       2.503  -0.553  -2.731  0.00  0.00    -0.072 S 
ENDROOT
BRANCH   1   6
ATOM      6  S   UNL     1       3.867  -0.149  -5.600  0.00  0.00    +0.065 S 
ATOM      7  O   UNL     1       3.087  -1.294  -5.915  0.00  0.00    -0.153 OA
ATOM      8  O   UNL     1       3.875   1.015  -6.414  0.00  0.00    -0.153 OA
BRANCH   6   9
ATOM      9  N   UNL     1       5.438  -0.662  -5.490  0.00  0.00    -0.182 NA
ATOM     10  H   UNL     1       6.238  -0.036  -5.913  0.00  0.00    +0.149 HD
BRANCH   9  20
ATOM     11  C   UNL     1       9.513  -1.015  -2.737  0.00  0.00    +0.000 A 
ATOM     12  C   UNL     1       8.551  -0.029  -2.852  0.00  0.00    +0.000 A 
ATOM     13  C   UNL     1       7.353  -0.311  -3.475  0.00  0.00    +0.005 A 
ATOM     14  C   UNL     1       7.106  -1.577  -3.990  0.00  0.00    -0.026 A 
ATOM     15  C   UNL     1       8.066  -2.558  -3.879  0.00  0.00    -0.043 A 
ATOM     16  C   UNL     1       9.270  -2.273  -3.249  0.00  0.00    +0.004 A 
ATOM     17  C   UNL     1       7.869  -3.949  -4.420  0.00  0.00    +0.035 C 
ATOM     18  C   UNL     1       6.388  -4.221  -4.680  0.00  0.00    +0.007 C 
ATOM     19  C   UNL     1       5.827  -3.071  -5.524  0.00  0.00    +0.025 C 
ATOM     20  C   UNL     1       5.775  -1.816  -4.654  0.00  0.00    +0.107 C 
ENDBRANCH   9  20
ENDBRANCH   6   9
ENDBRANCH   1   6
BRANCH   4  21
ATOM     21  C   UNL     1       1.836   0.673  -0.104  0.00  0.00    +0.159 C 
BRANCH  21  22
ATOM     22  N   UNL     1       0.438   1.106  -0.168  0.00  0.00    -0.228 N 
ATOM     23  C   UNL     1      -0.606   0.283  -0.378  0.00  0.00    +0.256 C 
ATOM     24  O   UNL     1      -0.539  -0.918  -0.542  0.00  0.00    -0.269 OA
ATOM     25  C   UNL     1      -1.845   1.087  -0.382  0.00  0.00    +0.068 A 
ATOM     26  C   UNL     1      -3.196   0.795  -0.539  0.00  0.00    +0.017 A 
ATOM     27  C   UNL     1      -4.102   1.845  -0.472  0.00  0.00    +0.020 A 
ATOM     28  C   UNL     1      -3.638   3.131  -0.249  0.00  0.00    +0.111 A 
ATOM     29  N   UNL     1      -2.352   3.380  -0.098  0.00  0.00    -0.250 NA
ATOM     30  C   UNL     1      -1.450   2.417  -0.152  0.00  0.00    +0.138 A 
ATOM     31  C   UNL     1       0.028   2.379  -0.025  0.00  0.00    +0.272 C 
ATOM     32  O   UNL     1       0.746   3.337   0.175  0.00  0.00    -0.268 OA
ENDBRANCH  21  22
ENDBRANCH   4  21
TORSDOF 5
