REMARK  Name = ZINC26959222
REMARK  14 active torsions:
REMARK  status: ('A' for Active; 'I' for Inactive)
REMARK    1  A    between atoms: C_1  and  C_2
REMARK    2  A    between atoms: C_5  and  C_35
REMARK    3  A    between atoms: N_8  and  S_10
REMARK    4  A    between atoms: S_10  and  N_13
REMARK    5  A    between atoms: N_13  and  C_14
REMARK    6  A    between atoms: C_17  and  C_20
REMARK    7  A    between atoms: C_20  and  C_21
REMARK    8  A    between atoms: C_21  and  C_22
REMARK    9  A    between atoms: C_21  and  C_23
REMARK   10  A    between atoms: C_21  and  N_24
REMARK   11  A    between atoms: N_24  and  C_25
REMARK   12  A    between atoms: C_25  and  C_26
REMARK   13  A    between atoms: C_26  and  C_28
REMARK   14  A    between atoms: C_26  and  O_34
REMARK                            x       y       z     vdW  Elec       q    Type
REMARK                         _______ _______ _______ _____ _____    ______ ____
ROOT
ATOM      1  C   UNL     1      -6.452   2.380  -5.786  0.00  0.00    +0.072 A 
ATOM      2  C   UNL     1      -5.681   1.226  -5.850  0.00  0.00    +0.027 A 
ATOM      3  C   UNL     1      -4.975   0.808  -4.739  0.00  0.00    +0.005 A 
ATOM      4  C   UNL     1      -5.034   1.537  -3.566  0.00  0.00    -0.049 A 
ATOM      5  C   UNL     1      -5.804   2.683  -3.497  0.00  0.00    +0.005 A 
ATOM      6  C   UNL     1      -6.509   3.110  -4.606  0.00  0.00    +0.027 A 
ENDROOT
BRANCH   1   7
ATOM      7  N   UNL     1      -7.169   2.805  -6.907  0.00  0.00    -0.116 NA
BRANCH   7   8
ATOM      8  S   UNL     1      -8.749   3.276  -6.751  0.00  0.00    +0.046 S 
ATOM      9  O   UNL     1      -8.781   4.255  -5.722  0.00  0.00    -0.169 OA
ATOM     10  O   UNL     1      -9.228   3.534  -8.063  0.00  0.00    -0.169 OA
BRANCH   8  16
ATOM     11  C   UNL     1     -11.623   1.312  -3.056  0.00  0.00    +0.006 C 
ATOM     12  C   UNL     1     -11.354   1.618  -4.531  0.00  0.00    -0.028 C 
ATOM     13  C   UNL     1     -11.848   0.453  -5.393  0.00  0.00    +0.003 C 
ATOM     14  C   UNL     1     -11.609   0.773  -6.870  0.00  0.00    -0.028 C 
ATOM     15  C   UNL     1     -10.112   0.954  -7.115  0.00  0.00    -0.040 C 
ATOM     16  N   UNL     1      -9.595   1.969  -6.186  0.00  0.00    +0.443 N 
ATOM     17  C   UNL     1      -9.849   1.806  -4.748  0.00  0.00    -0.040 C 
ATOM     18  C   UNL     1     -12.133  -0.377  -7.733  0.00  0.00    +0.006 C 
ATOM     19  H   UNL     1     -10.121   1.080  -5.808  0.00  0.00    -0.043 HD
ENDBRANCH   8  16
ENDBRANCH   7   8
ENDBRANCH   1   7
BRANCH   4  20
ATOM     20  C   UNL     1      -4.261   1.078  -2.356  0.00  0.00    +0.022 C 
BRANCH  20  21
ATOM     21  C   UNL     1      -2.865   1.704  -2.375  0.00  0.00    -0.070 C 
ATOM     22  C   UNL     1      -2.989   3.228  -2.352  0.00  0.00    -0.010 C 
ATOM     23  C   UNL     1      -2.129   1.271  -3.644  0.00  0.00    -0.010 C 
BRANCH  21  24
ATOM     24  N   UNL     1      -2.112   1.256  -1.196  0.00  0.00    +0.385 N 
ATOM     25  H   UNL     1      -2.641   1.567  -0.283  0.00  0.00    -0.085 HD
ATOM     26  H   UNL     1      -2.022   0.160  -1.212  0.00  0.00    -0.085 HD
BRANCH  24  27
ATOM     27  C   UNL     1      -0.763   1.838  -1.180  0.00  0.00    -0.045 C 
BRANCH  27  28
ATOM     28  C   UNL     1      -0.011   1.350   0.060  0.00  0.00    +0.129 C 
BRANCH  28  29
ATOM     29  C   UNL     1       1.372   1.948   0.076  0.00  0.00    -0.003 A 
ATOM     30  C   UNL     1       2.448   1.243  -0.444  0.00  0.00    +0.009 A 
ATOM     31  C   UNL     1       3.702   1.832  -0.408  0.00  0.00    +0.020 A 
ATOM     32  C   UNL     1       3.838   3.093   0.141  0.00  0.00    +0.111 A 
ATOM     33  N   UNL     1       2.793   3.734   0.626  0.00  0.00    -0.263 NA
ATOM     34  C   UNL     1       1.585   3.207   0.603  0.00  0.00    +0.116 A 
ENDBRANCH  28  29
BRANCH  28  35
ATOM     35  O   UNL     1      -0.717   1.753   1.235  0.00  0.00    -0.389 OA
ATOM     36  H   UNL     1      -0.326   1.491   2.229  0.00  0.00    +0.210 HD
ENDBRANCH  28  35
ENDBRANCH  27  28
ENDBRANCH  24  27
ENDBRANCH  21  24
ENDBRANCH  20  21
ENDBRANCH   4  20
TORSDOF 10
