REMARK  Name = ZINC05415026
REMARK  5 active torsions:
REMARK  status: ('A' for Active; 'I' for Inactive)
REMARK    1  A    between atoms: C_3  and  O_33
REMARK    2  A    between atoms: C_6  and  C_7
REMARK    3  A    between atoms: N_21  and  S_23
REMARK    4  A    between atoms: S_23  and  C_26
REMARK    5  A    between atoms: O_33  and  C_34
REMARK                            x       y       z     vdW  Elec       q    Type
REMARK                         _______ _______ _______ _____ _____    ______ ____
ROOT
ATOM      1  C   UNL     1       3.782   0.245   3.077  0.00  0.00    +0.047 A 
ATOM      2  C   UNL     1       4.055   1.530   2.638  0.00  0.00    +0.015 A 
ATOM      3  C   UNL     1       3.249   2.083   1.641  0.00  0.00    +0.022 A 
ATOM      4  C   UNL     1       2.199   1.385   1.129  0.00  0.00    +0.026 A 
ATOM      5  N   UNL     1       1.871   0.168   1.622  0.00  0.00    -0.311 N 
ATOM      6  C   UNL     1       2.685  -0.446   2.516  0.00  0.00    +0.259 A 
ATOM      7  O   UNL     1       2.469  -1.603   2.837  0.00  0.00    -0.267 OA
ATOM      8  C   UNL     1       0.622  -0.519   1.288  0.00  0.00    +0.130 C 
ATOM      9  C   UNL     1       0.002  -0.004   0.002  0.00  0.00    +0.025 C 
ATOM     10  C   UNL     1      -0.019   1.525   0.010  0.00  0.00    +0.017 C 
ATOM     11  C   UNL     1       1.427   2.027  -0.001  0.00  0.00    +0.052 C 
ATOM     12  C   UNL     1       2.097   1.593  -1.297  0.00  0.00    +0.119 C 
ATOM     13  N   UNL     1       2.041   0.123  -1.355  0.00  0.00    -0.176 NA
ATOM     14  C   UNL     1       0.736  -0.535  -1.222  0.00  0.00    +0.114 C 
ENDROOT
BRANCH   1  20
ATOM     15  C   UNL     1       5.383  -1.522   3.806  0.00  0.00    +0.012 A 
ATOM     16  C   UNL     1       6.169  -2.110   4.775  0.00  0.00    +0.046 A 
ATOM     17  C   UNL     1       6.198  -1.585   6.060  0.00  0.00    +0.130 A 
ATOM     18  C   UNL     1       5.441  -0.465   6.373  0.00  0.00    +0.046 A 
ATOM     19  C   UNL     1       4.656   0.131   5.409  0.00  0.00    +0.012 A 
ATOM     20  C   UNL     1       4.625  -0.393   4.116  0.00  0.00    -0.012 A 
BRANCH  17  21
ATOM     21  O   UNL     1       6.970  -2.170   7.013  0.00  0.00    -0.406 OA
BRANCH  21  22
ATOM     22  C   UNL     1       7.724  -3.320   6.622  0.00  0.00    +0.575 C 
ATOM     23  F   UNL     1       8.601  -2.973   5.589  0.00  0.00    -0.133 F 
ATOM     24  F   UNL     1       8.457  -3.791   7.717  0.00  0.00    -0.133 F 
ATOM     25  F   UNL     1       6.853  -4.320   6.178  0.00  0.00    -0.133 F 
ENDBRANCH  21  22
ENDBRANCH  17  21
ENDBRANCH   1  20
BRANCH  13  26
ATOM     26  S   UNL     1       3.420  -0.769  -1.565  0.00  0.00    +0.061 S 
ATOM     27  O   UNL     1       4.498   0.037  -1.108  0.00  0.00    -0.153 OA
ATOM     28  O   UNL     1       3.155  -2.059  -1.033  0.00  0.00    -0.153 OA
BRANCH  26  29
ATOM     29  C   UNL     1       3.647  -0.976  -3.300  0.00  0.00    +0.106 A 
ATOM     30  C   UNL     1       3.095  -2.068  -3.943  0.00  0.00    +0.031 A 
ATOM     31  C   UNL     1       3.268  -2.229  -5.305  0.00  0.00    +0.040 A 
ATOM     32  C   UNL     1       4.004  -1.302  -6.023  0.00  0.00    +0.124 A 
ATOM     33  C   UNL     1       4.561  -0.212  -5.377  0.00  0.00    +0.040 A 
ATOM     34  C   UNL     1       4.382  -0.050  -4.017  0.00  0.00    +0.031 A 
ATOM     35  F   UNL     1       4.178  -1.462  -7.354  0.00  0.00    -0.205 F 
ENDBRANCH  26  29
ENDBRANCH  13  26
TORSDOF 5
