REMARK  Name = ZINC39674067
REMARK  9 active torsions:
REMARK  status: ('A' for Active; 'I' for Inactive)
REMARK    1  A    between atoms: C_1  and  C_2
REMARK    2  A    between atoms: C_4  and  C_7
REMARK    3  A    between atoms: C_9  and  C_14
REMARK    4  A    between atoms: C_10  and  C_13
REMARK    5  A    between atoms: C_18  and  C_27
REMARK    6  A    between atoms: N_29  and  C_30
REMARK    7  A    between atoms: C_30  and  C_31
REMARK    8  A    between atoms: C_31  and  C_32
REMARK    9  A    between atoms: C_40  and  C_42
REMARK                            x       y       z     vdW  Elec       q    Type
REMARK                         _______ _______ _______ _____ _____    ______ ____
ROOT
ATOM      1  C   UNL     1      -0.876  -4.073  -3.010  0.00  0.00    +0.247 C 
ATOM      2  O   UNL     1      -0.632  -4.465  -1.883  0.00  0.00    -0.270 OA
ATOM      3  N   UNL     1      -1.456  -2.871  -3.194  0.00  0.00    -0.296 N 
ATOM      4  C   UNL     1      -1.959  -1.937  -2.159  0.00  0.00    +0.121 C 
ATOM      5  C   UNL     1      -1.567  -0.534  -2.676  0.00  0.00    +0.100 C 
ATOM      6  C   UNL     1      -1.424  -0.702  -4.198  0.00  0.00    -0.004 C 
ATOM      7  C   UNL     1      -1.730  -2.181  -4.478  0.00  0.00    +0.115 C 
ATOM      8  C   UNL     1       0.000  -0.373  -4.634  0.00  0.00    -0.010 C 
ATOM      9  C   UNL     1       0.103  -0.492  -6.158  0.00  0.00    -0.082 C 
ATOM     10  N   UNL     1      -0.849   0.431  -6.788  0.00  0.00    +0.379 N 
ATOM     11  C   UNL     1      -2.223   0.050  -6.437  0.00  0.00    -0.082 C 
ATOM     12  C   UNL     1      -2.424   0.192  -4.925  0.00  0.00    -0.010 C 
ATOM     13  H   UNL     1      -0.669   1.370  -6.465  0.00  0.00    -0.086 HD
ATOM     14  H   UNL     1      -0.737   0.395  -7.790  0.00  0.00    -0.086 HD
ENDROOT
BRANCH   1  16
ATOM     15  C   UNL     1      -0.924  -4.613  -5.566  0.00  0.00    +0.237 C 
ATOM     16  C   UNL     1      -0.551  -4.880  -4.125  0.00  0.00    +0.072 C 
ATOM     17  C   UNL     1       0.150  -6.030  -4.104  0.00  0.00    +0.047 C 
ATOM     18  N   UNL     1       0.278  -6.545  -5.356  0.00  0.00    -0.269 N 
ATOM     19  O   UNL     1      -0.366  -5.710  -6.304  0.00  0.00    -0.260 OA
ATOM     20  C   UNL     1       0.717  -6.661  -2.859  0.00  0.00    +0.066 C 
ATOM     21  H   UNL     1       0.745  -7.367  -5.571  0.00  0.00    +0.194 HD
BRANCH  15  25
ATOM     22  C   UNL     1      -5.612  -3.171  -6.943  0.00  0.00    +0.089 C 
ATOM     23  C   UNL     1      -4.467  -3.938  -6.335  0.00  0.00    +0.135 A 
ATOM     24  C   UNL     1      -3.162  -3.616  -6.425  0.00  0.00    +0.073 A 
ATOM     25  C   UNL     1      -2.423  -4.585  -5.723  0.00  0.00    +0.120 A 
ATOM     26  N   UNL     1      -3.260  -5.454  -5.231  0.00  0.00    -0.080 NA
ATOM     27  O   UNL     1      -4.568  -5.059  -5.605  0.00  0.00    -0.360 OA
ENDBRANCH  15  25
ENDBRANCH   1  16
BRANCH   5  28
ATOM     28  C   UNL     1      -0.259  -0.098  -2.069  0.00  0.00    +0.218 C 
ATOM     29  O   UNL     1       0.560  -0.927  -1.733  0.00  0.00    -0.275 OA
ATOM     30  N   UNL     1       0.001   1.214  -1.898  0.00  0.00    -0.315 N 
ATOM     31  H   UNL     1      -0.682   1.873  -2.099  0.00  0.00    +0.149 HD
BRANCH  30  32
ATOM     32  C   UNL     1       1.313   1.643  -1.410  0.00  0.00    +0.109 C 
BRANCH  32  33
ATOM     33  C   UNL     1       1.307   3.158  -1.196  0.00  0.00    +0.056 C 
BRANCH  33  34
ATOM     34  C   UNL     1       2.689   3.616  -0.805  0.00  0.00    -0.018 A 
ATOM     35  C   UNL     1       3.756   4.042  -1.714  0.00  0.00    +0.003 A 
ATOM     36  C   UNL     1       3.858   4.162  -3.101  0.00  0.00    +0.010 A 
ATOM     37  C   UNL     1       5.025   4.602  -3.659  0.00  0.00    +0.001 A 
ATOM     38  C   UNL     1       6.110   4.931  -2.858  0.00  0.00    +0.002 A 
ATOM     39  C   UNL     1       6.030   4.820  -1.487  0.00  0.00    +0.026 A 
ATOM     40  C   UNL     1       4.852   4.375  -0.897  0.00  0.00    +0.047 A 
ATOM     41  N   UNL     1       4.467   4.162   0.407  0.00  0.00    -0.358 N 
ATOM     42  C   UNL     1       3.174   3.716   0.443  0.00  0.00    +0.017 A 
ATOM     43  H   UNL     1       5.027   4.310   1.185  0.00  0.00    +0.166 HD
ATOM     44  C   UNL     1       2.408   3.382   1.698  0.00  0.00    +0.063 C 
ENDBRANCH  33  34
ENDBRANCH  32  33
ENDBRANCH  30  32
ENDBRANCH   5  28
TORSDOF 6
