REMARK  Name = ZINC09152299
REMARK  7 active torsions:
REMARK  status: ('A' for Active; 'I' for Inactive)
REMARK    1  A    between atoms: C_1  and  C_2
REMARK    2  A    between atoms: C_2  and  O_3
REMARK    3  A    between atoms: O_3  and  C_4
REMARK    4  A    between atoms: C_7  and  C_10
REMARK    5  A    between atoms: C_12  and  C_16
REMARK    6  A    between atoms: N_21  and  S_24
REMARK    7  A    between atoms: S_24  and  C_27
REMARK                            x       y       z     vdW  Elec       q    Type
REMARK                         _______ _______ _______ _____ _____    ______ ____
ROOT
ATOM      1  C   UNL     1       2.495   1.546  -0.014  0.00  0.00    +0.264 C 
ATOM      2  O   UNL     1       2.810   0.374   0.073  0.00  0.00    -0.268 OA
ATOM      3  N   UNL     1       3.448   2.493  -0.120  0.00  0.00    -0.294 N 
ATOM      4  C   UNL     1       3.089   3.918  -0.116  0.00  0.00    +0.125 C 
ATOM      5  C   UNL     1       3.882   4.616   1.002  0.00  0.00    +0.128 C 
ATOM      6  N   UNL     1       5.298   4.243   0.875  0.00  0.00    -0.174 NA
ATOM      7  C   UNL     1       5.656   2.817   0.866  0.00  0.00    +0.128 C 
ATOM      8  C   UNL     1       4.864   2.120  -0.247  0.00  0.00    +0.125 C 
ENDROOT
BRANCH   1  11
ATOM      9  C   UNL     1      -1.088   2.104   0.452  0.00  0.00    +0.093 A 
ATOM     10  C   UNL     1       0.092   1.441   0.837  0.00  0.00    +0.062 A 
ATOM     11  C   UNL     1       1.074   1.929  -0.004  0.00  0.00    +0.121 A 
ATOM     12  N   UNL     1       0.466   2.836  -0.825  0.00  0.00    -0.272 N 
ATOM     13  H   UNL     1       0.924   3.358  -1.544  0.00  0.00    +0.189 HD
ATOM     14  N   UNL     1      -0.783   2.918  -0.535  0.00  0.00    -0.173 NA
BRANCH   9  18
ATOM     15  C   UNL     1      -4.942   1.577   2.177  0.00  0.00    +0.121 A 
ATOM     16  C   UNL     1      -4.767   2.474   1.131  0.00  0.00    +0.046 A 
ATOM     17  C   UNL     1      -3.519   2.647   0.571  0.00  0.00    +0.013 A 
ATOM     18  C   UNL     1      -2.433   1.920   1.054  0.00  0.00    +0.002 A 
ATOM     19  C   UNL     1      -2.612   1.016   2.099  0.00  0.00    +0.013 A 
ATOM     20  C   UNL     1      -3.861   0.852   2.660  0.00  0.00    +0.046 A 
BRANCH  15  21
ATOM     21  O   UNL     1      -6.173   1.409   2.727  0.00  0.00    -0.492 OA
BRANCH  21  23
ATOM     22  C   UNL     1      -7.731   0.418   4.286  0.00  0.00    +0.048 C 
ATOM     23  C   UNL     1      -6.281   0.471   3.799  0.00  0.00    +0.225 C 
ENDBRANCH  21  23
ENDBRANCH  15  21
ENDBRANCH   9  18
ENDBRANCH   1  11
BRANCH   6  24
ATOM     24  S   UNL     1       6.468   5.407   0.744  0.00  0.00    +0.061 S 
ATOM     25  O   UNL     1       5.934   6.587   1.328  0.00  0.00    -0.153 OA
ATOM     26  O   UNL     1       7.680   4.817   1.193  0.00  0.00    -0.153 OA
BRANCH  24  27
ATOM     27  C   UNL     1       6.677   5.745  -0.973  0.00  0.00    +0.106 A 
ATOM     28  C   UNL     1       7.603   5.030  -1.710  0.00  0.00    +0.029 A 
ATOM     29  C   UNL     1       7.764   5.291  -3.057  0.00  0.00    +0.017 A 
ATOM     30  C   UNL     1       7.006   6.275  -3.666  0.00  0.00    +0.018 A 
ATOM     31  C   UNL     1       6.084   6.993  -2.927  0.00  0.00    +0.017 A 
ATOM     32  C   UNL     1       5.920   6.728  -1.581  0.00  0.00    +0.029 A 
ATOM     33 BR   UNL     1       7.231   6.637  -5.508  0.00  0.00    -0.050 Br
ENDBRANCH  24  27
ENDBRANCH   6  24
TORSDOF 6
