REMARK  Name = ZINC66981781
REMARK  8 active torsions:
REMARK  status: ('A' for Active; 'I' for Inactive)
REMARK    1  A    between atoms: C_1  and  C_2
REMARK    2  A    between atoms: C_2  and  C_3
REMARK    3  A    between atoms: C_5  and  C_8
REMARK    4  A    between atoms: C_8  and  N_9
REMARK    5  A    between atoms: N_9  and  C_10
REMARK    6  A    between atoms: N_13  and  C_14
REMARK    7  A    between atoms: C_16  and  N_22
REMARK    8  A    between atoms: C_23  and  C_25
REMARK                            x       y       z     vdW  Elec       q    Type
REMARK                         _______ _______ _______ _____ _____    ______ ____
ROOT
ATOM      1  N   UNL     1       4.598  -0.260  -3.096  0.00  0.00    -0.283 N 
ATOM      2  C   UNL     1       5.154   0.572  -2.026  0.00  0.00    +0.134 C 
ATOM      3  C   UNL     1       4.732   0.118  -4.382  0.00  0.00    +0.307 C 
ATOM      4  O   UNL     1       4.271  -0.572  -5.271  0.00  0.00    -0.252 OA
ATOM      5  N   UNL     1       5.378   1.262  -4.685  0.00  0.00    -0.267 N 
ATOM      6  H   UNL     1       5.676   1.853  -3.975  0.00  0.00    +0.156 HD
ENDROOT
BRANCH   5   7
ATOM      7  C   UNL     1       5.620   1.597  -6.024  0.00  0.00    +0.072 A 
ATOM      8  C   UNL     1       5.686   0.602  -6.988  0.00  0.00    +0.052 A 
ATOM      9  C   UNL     1       5.925   0.936  -8.313  0.00  0.00    +0.071 A 
ATOM     10  C   UNL     1       6.098   2.268  -8.672  0.00  0.00    +0.147 A 
ATOM     11  C   UNL     1       6.033   3.260  -7.709  0.00  0.00    +0.080 A 
ATOM     12  C   UNL     1       5.789   2.928  -6.388  0.00  0.00    +0.147 A 
ATOM     13  F   UNL     1       5.719   3.899  -5.451  0.00  0.00    -0.203 F 
ATOM     14  F   UNL     1       6.331   2.595  -9.962  0.00  0.00    -0.203 F 
BRANCH   9  15
ATOM     15  N   UNL     1       5.992  -0.068  -9.288  0.00  0.00    -0.283 N 
ATOM     16  C   UNL     1       6.325  -1.326  -8.938  0.00  0.00    +0.214 C 
ATOM     17  O   UNL     1       6.664  -1.569  -7.800  0.00  0.00    -0.276 OA
ATOM     18  C   UNL     1       6.276  -2.431  -9.962  0.00  0.00    +0.109 C 
ATOM     19  H   UNL     1       5.799   0.143 -10.215  0.00  0.00    +0.155 HD
ENDBRANCH   9  15
ENDBRANCH   5   7
BRANCH   1  20
ATOM     20  C   UNL     1       3.896  -1.504  -2.767  0.00  0.00    +0.164 C 
BRANCH  20  23
ATOM     21  C   UNL     1       0.681  -0.554  -1.248  0.00  0.00    +0.078 A 
ATOM     22  N   UNL     1       1.956  -0.804  -1.414  0.00  0.00    -0.247 NA
ATOM     23  C   UNL     1       2.430  -1.216  -2.573  0.00  0.00    +0.066 A 
ATOM     24  C   UNL     1       1.536  -1.369  -3.583  0.00  0.00    +0.071 A 
ATOM     25  S   UNL     1       0.024  -0.898  -2.759  0.00  0.00    -0.080 S 
BRANCH  21  27
ATOM     26  C   UNL     1      -0.057   1.449   0.013  0.00  0.00    +0.011 C 
ATOM     27  C   UNL     1      -0.026  -0.081  -0.005  0.00  0.00    +0.059 C 
ENDBRANCH  21  27
ENDBRANCH  20  23
ENDBRANCH   1  20
TORSDOF 5
