REMARK  Name = ZINC20418647
REMARK  8 active torsions:
REMARK  status: ('A' for Active; 'I' for Inactive)
REMARK    1  A    between atoms: C_1  and  C_2
REMARK    2  A    between atoms: C_7  and  C_8
REMARK    3  A    between atoms: C_8  and  O_9
REMARK    4  A    between atoms: O_9  and  C_10
REMARK    5  A    between atoms: C_14  and  C_16
REMARK    6  A    between atoms: C_19  and  C_30
REMARK    7  A    between atoms: C_25  and  N_29
REMARK    8  A    between atoms: C_26  and  C_27
REMARK                            x       y       z     vdW  Elec       q    Type
REMARK                         _______ _______ _______ _____ _____    ______ ____
ROOT
ATOM      1  C   UNL     1       0.116  -1.625   8.410  0.00  0.00    +0.102 C 
ATOM      2  C   UNL     1       1.341  -1.343   9.241  0.00  0.00    +0.054 A 
ATOM      3  C   UNL     1       2.681  -1.635   8.968  0.00  0.00    +0.100 A 
ATOM      4  N   UNL     1       3.405  -1.201   9.982  0.00  0.00    -0.171 NA
ATOM      5  N   UNL     1       2.542  -0.621  10.925  0.00  0.00    -0.246 N 
ATOM      6  H   UNL     1       2.805  -0.221  11.769  0.00  0.00    +0.192 HD
ATOM      7  C   UNL     1       1.282  -0.719  10.453  0.00  0.00    +0.223 A 
ATOM      8  O   UNL     1       0.116  -0.306  11.008  0.00  0.00    -0.423 OA
ATOM      9  C   UNL     1      -1.031  -0.765  10.467  0.00  0.00    +0.200 C 
ATOM     10  C   UNL     1      -1.102  -1.388   9.268  0.00  0.00    +0.098 C 
ENDROOT
BRANCH   3  11
ATOM     11  C   UNL     1       3.197  -2.314   7.754  0.00  0.00    +0.003 A 
ATOM     12  C   UNL     1       2.447  -3.316   7.141  0.00  0.00    +0.011 A 
ATOM     13  C   UNL     1       2.932  -3.944   6.011  0.00  0.00    +0.020 A 
ATOM     14  C   UNL     1       4.160  -3.580   5.487  0.00  0.00    +0.041 A 
ATOM     15  C   UNL     1       4.909  -2.585   6.093  0.00  0.00    +0.020 A 
ATOM     16  C   UNL     1       4.430  -1.947   7.219  0.00  0.00    +0.011 A 
ATOM     17 CL   UNL     1       4.764  -4.374   4.067  0.00  0.00    -0.084 Cl
ENDBRANCH   3  11
BRANCH   1  22
ATOM     18  C   UNL     1       0.053  -0.377   4.844  0.00  0.00    +0.121 A 
ATOM     19  C   UNL     1       0.031   0.997   5.035  0.00  0.00    +0.045 A 
ATOM     20  C   UNL     1       0.035   1.516   6.315  0.00  0.00    +0.004 A 
ATOM     21  C   UNL     1       0.062   0.667   7.406  0.00  0.00    +0.005 A 
ATOM     22  C   UNL     1       0.086  -0.703   7.218  0.00  0.00    -0.031 A 
ATOM     23  C   UNL     1       0.075  -1.226   5.940  0.00  0.00    +0.050 A 
BRANCH  18  24
ATOM     24  O   UNL     1       0.048  -0.889   3.585  0.00  0.00    -0.487 OA
BRANCH  24  25
ATOM     25  C   UNL     1       0.025   0.045   2.504  0.00  0.00    +0.264 C 
BRANCH  25  32
ATOM     26  C   UNL     1      -0.018   1.503   0.010  0.00  0.00    +0.044 C 
ATOM     27  C   UNL     1       0.002  -0.004   0.002  0.00  0.00    -0.044 A 
ATOM     28  C   UNL     1       0.006  -0.689  -1.199  0.00  0.00    +0.004 A 
ATOM     29  C   UNL     1       0.025  -2.071  -1.207  0.00  0.00    +0.000 A 
ATOM     30  C   UNL     1       0.040  -2.768  -0.013  0.00  0.00    +0.000 A 
ATOM     31  C   UNL     1       0.037  -2.084   1.188  0.00  0.00    +0.007 A 
ATOM     32  C   UNL     1       0.023  -0.702   1.195  0.00  0.00    -0.007 A 
ENDBRANCH  25  32
ENDBRANCH  24  25
ENDBRANCH  18  24
ENDBRANCH   1  22
BRANCH   9  33
ATOM     33  N   UNL     1      -2.195  -0.591  11.174  0.00  0.00    -0.328 N 
ATOM     34  H   UNL     1      -2.177  -0.148  12.037  0.00  0.00    +0.145 HD
ATOM     35  H   UNL     1      -3.036  -0.910  10.810  0.00  0.00    +0.145 HD
ENDBRANCH   9  33
BRANCH  10  36
ATOM     36  C   UNL     1      -2.377  -1.837   8.797  0.00  0.00    +0.101 C 
ATOM     37  N   UNL     1      -3.389  -2.193   8.423  0.00  0.00    -0.191 NA
ENDBRANCH  10  36
TORSDOF 7
