REMARK  Name = ZINC39663907
REMARK  10 active torsions:
REMARK  status: ('A' for Active; 'I' for Inactive)
REMARK    1  A    between atoms: C_1  and  N_2
REMARK    2  A    between atoms: N_2  and  C_3
REMARK    3  A    between atoms: N_2  and  C_4
REMARK    4  A    between atoms: C_4  and  C_6
REMARK    5  A    between atoms: C_4  and  C_30
REMARK    6  A    between atoms: C_6  and  N_7
REMARK    7  A    between atoms: C_8  and  C_10
REMARK    8  A    between atoms: C_21  and  C_23
REMARK    9  A    between atoms: C_33  and  O_36
REMARK   10  A    between atoms: O_36  and  C_37
REMARK                            x       y       z     vdW  Elec       q    Type
REMARK                         _______ _______ _______ _____ _____    ______ ____
ROOT
ATOM      1  C   UNL     1      -2.372   3.790  -2.949  0.00  0.00    +0.100 C 
ATOM      2  C   UNL     1      -2.990   4.533  -1.744  0.00  0.00    +0.121 C 
ATOM      3  N   UNL     1      -3.724   5.672  -2.343  0.00  0.00    -0.300 N 
ATOM      4  C   UNL     1      -4.338   5.111  -3.570  0.00  0.00    +0.115 C 
ATOM      5  C   UNL     1      -3.260   4.170  -4.145  0.00  0.00    -0.004 C 
ATOM      6  C   UNL     1      -3.911   2.925  -4.739  0.00  0.00    -0.010 C 
ATOM      7  C   UNL     1      -4.742   3.321  -5.962  0.00  0.00    -0.082 C 
ATOM      8  N   UNL     1      -3.876   3.966  -6.956  0.00  0.00    +0.379 N 
ATOM      9  C   UNL     1      -3.328   5.214  -6.409  0.00  0.00    -0.082 C 
ATOM     10  C   UNL     1      -2.437   4.897  -5.205  0.00  0.00    -0.010 C 
ATOM     11  C   UNL     1      -3.813   6.934  -1.877  0.00  0.00    +0.219 C 
ATOM     12  O   UNL     1      -3.183   7.264  -0.895  0.00  0.00    -0.275 OA
ATOM     13  H   UNL     1      -3.118   3.344  -7.195  0.00  0.00    -0.086 HD
ATOM     14  H   UNL     1      -4.413   4.172  -7.785  0.00  0.00    -0.086 HD
ENDROOT
BRANCH  11  15
ATOM     15  C   UNL     1      -4.696   7.935  -2.577  0.00  0.00    +0.079 C 
ATOM     16  C   UNL     1      -4.497   9.322  -1.955  0.00  0.00    +0.017 C 
ATOM     17  C   UNL     1      -5.265  10.345  -2.796  0.00  0.00    +0.027 C 
ATOM     18  C   UNL     1      -6.670   9.871  -3.029  0.00  0.00    -0.031 C 
ATOM     19  C   UNL     1      -7.060   8.648  -2.864  0.00  0.00    -0.030 C 
ATOM     20  C   UNL     1      -6.163   7.531  -2.412  0.00  0.00    +0.039 C 
ENDBRANCH  11  15
BRANCH   1  22
ATOM     21  N   UNL     1      -1.459   1.512  -3.264  0.00  0.00    -0.316 N 
ATOM     22  C   UNL     1      -2.409   2.300  -2.721  0.00  0.00    +0.218 C 
ATOM     23  O   UNL     1      -3.293   1.811  -2.051  0.00  0.00    -0.275 OA
ATOM     24  H   UNL     1      -0.752   1.904  -3.800  0.00  0.00    +0.149 HD
BRANCH  21  25
ATOM     25  C   UNL     1      -1.495   0.065  -3.042  0.00  0.00    +0.093 C 
BRANCH  25  26
ATOM     26  C   UNL     1      -0.386  -0.604  -3.859  0.00  0.00    -0.021 C 
BRANCH  26  27
ATOM     27  C   UNL     1       0.956  -0.132  -3.363  0.00  0.00    -0.059 A 
ATOM     28  C   UNL     1       1.509  -0.694  -2.227  0.00  0.00    +0.005 A 
ATOM     29  C   UNL     1       2.739  -0.263  -1.770  0.00  0.00    +0.046 A 
ATOM     30  C   UNL     1       3.421   0.734  -2.453  0.00  0.00    +0.120 A 
ATOM     31  C   UNL     1       2.865   1.296  -3.593  0.00  0.00    +0.046 A 
ATOM     32  C   UNL     1       1.636   0.858  -4.048  0.00  0.00    +0.005 A 
BRANCH  30  33
ATOM     33  O   UNL     1       4.631   1.160  -2.005  0.00  0.00    -0.495 OA
ATOM     34  C   UNL     1       5.276   2.190  -2.758  0.00  0.00    +0.277 C 
ENDBRANCH  30  33
ENDBRANCH  26  27
BRANCH  26  36
ATOM     35  C   UNL     1      -1.753  -2.532  -4.270  0.00  0.00    -0.096 C 
ATOM     36  N   UNL     1      -0.479  -2.062  -3.709  0.00  0.00    +0.382 N 
ATOM     37  C   UNL     1       0.635  -2.699  -4.423  0.00  0.00    -0.096 C 
ATOM     38  H   UNL     1      -0.433  -2.303  -2.730  0.00  0.00    -0.082 HD
ENDBRANCH  26  36
ENDBRANCH  25  26
ENDBRANCH  21  25
ENDBRANCH   1  22
TORSDOF 7
