REMARK  Name = ZINC47013646
REMARK  4 active torsions:
REMARK  status: ('A' for Active; 'I' for Inactive)
REMARK    1  A    between atoms: C_1  and  S_2
REMARK    2  A    between atoms: S_2  and  N_5
REMARK    3  A    between atoms: N_14  and  C_15
REMARK    4  A    between atoms: C_15  and  C_16
REMARK                            x       y       z     vdW  Elec       q    Type
REMARK                         _______ _______ _______ _____ _____    ______ ____
ROOT
ATOM      1  N   UNL     1       0.802  -0.409  -1.398  0.00  0.00    -0.180 NA
ATOM      2  C   UNL     1       0.040  -0.586  -2.601  0.00  0.00    +0.110 C 
ATOM      3  C   UNL     1      -0.463  -2.039  -2.634  0.00  0.00    +0.036 C 
ATOM      4  C   UNL     1       0.592  -2.974  -3.054  0.00  0.00    +0.110 C 
ATOM      5  N   UNL     1       1.755  -2.883  -2.138  0.00  0.00    -0.284 N 
ATOM      6  C   UNL     1       2.677  -1.788  -2.253  0.00  0.00    +0.126 C 
ATOM      7  C   UNL     1       2.280  -0.578  -1.366  0.00  0.00    +0.128 C 
ATOM      8  C   UNL     1       1.946  -3.829  -1.197  0.00  0.00    +0.302 C 
ATOM      9  O   UNL     1       1.119  -4.706  -1.040  0.00  0.00    -0.253 OA
ATOM     10  N   UNL     1       3.054  -3.801  -0.430  0.00  0.00    -0.299 N 
ATOM     11  H   UNL     1       3.677  -3.061  -0.504  0.00  0.00    +0.150 HD
ENDROOT
BRANCH   1  13
ATOM     12  C   UNL     1      -0.009   1.816   0.005  0.00  0.00    +0.215 C 
ATOM     13  S   UNL     1       0.011   0.002  -0.002  0.00  0.00    +0.029 S 
ATOM     14  O   UNL     1       0.845  -0.482   1.042  0.00  0.00    -0.158 OA
ATOM     15  O   UNL     1      -1.307  -0.502  -0.169  0.00  0.00    -0.158 OA
ENDBRANCH   1  13
BRANCH  10  16
ATOM     16  C   UNL     1       3.318  -4.889   0.515  0.00  0.00    +0.109 C 
BRANCH  16  17
ATOM     17  C   UNL     1       4.629  -4.616   1.254  0.00  0.00    +0.006 C 
ATOM     18  C   UNL     1       5.818  -4.720   0.277  0.00  0.00    +0.005 C 
ATOM     19  C   UNL     1       6.945  -5.371   1.117  0.00  0.00    +0.000 C 
ATOM     20  C   UNL     1       6.175  -6.400   1.981  0.00  0.00    +0.000 C 
ATOM     21  C   UNL     1       4.856  -5.684   2.338  0.00  0.00    +0.005 C 
ENDBRANCH  16  17
ENDBRANCH  10  16
TORSDOF 3
