REMARK  Name = ZINC20580075
REMARK  9 active torsions:
REMARK  status: ('A' for Active; 'I' for Inactive)
REMARK    1  A    between atoms: C_1  and  C_2
REMARK    2  A    between atoms: C_2  and  C_3
REMARK    3  A    between atoms: C_8  and  N_9
REMARK    4  A    between atoms: C_11  and  C_16
REMARK    5  A    between atoms: C_19  and  N_21
REMARK    6  A    between atoms: C_22  and  C_24
REMARK    7  A    between atoms: C_26  and  N_34
REMARK    8  A    between atoms: C_28  and  N_31
REMARK    9  A    between atoms: C_29  and  C_30
REMARK                            x       y       z     vdW  Elec       q    Type
REMARK                         _______ _______ _______ _____ _____    ______ ____
ROOT
ATOM      1  C   UNL     1      -0.766   8.089   1.061  0.00  0.00    +0.109 A 
ATOM      2  N   UNL     1       0.457   7.645   0.849  0.00  0.00    -0.144 NA
ATOM      3  N   UNL     1       0.708   6.421   0.683  0.00  0.00    -0.121 NA
ATOM      4  C   UNL     1      -0.246   5.501   0.711  0.00  0.00    +0.218 A 
ATOM      5  S   UNL     1      -1.671   6.545   1.007  0.00  0.00    -0.031 S 
ENDROOT
BRANCH   1   8
ATOM      6  N   UNL     1      -0.560  11.714   0.702  0.00  0.00    -0.270 N 
ATOM      7  C   UNL     1      -0.867  10.410   0.100  0.00  0.00    +0.124 C 
ATOM      8  C   UNL     1      -1.262   9.495   1.280  0.00  0.00    +0.073 C 
ATOM      9  C   UNL     1      -0.523  10.165   2.461  0.00  0.00    +0.108 C 
ATOM     10  C   UNL     1      -0.357  11.604   2.026  0.00  0.00    +0.220 C 
ATOM     11  O   UNL     1      -0.081  12.525   2.765  0.00  0.00    -0.275 OA
BRANCH   6  17
ATOM     12  C   UNL     1      -1.625  13.698  -0.171  0.00  0.00    -0.026 A 
ATOM     13  C   UNL     1      -1.551  14.884  -0.875  0.00  0.00    +0.005 A 
ATOM     14  C   UNL     1      -0.347  15.292  -1.420  0.00  0.00    +0.000 A 
ATOM     15  C   UNL     1       0.786  14.515  -1.262  0.00  0.00    +0.002 A 
ATOM     16  C   UNL     1       0.720  13.331  -0.555  0.00  0.00    +0.024 A 
ATOM     17  C   UNL     1      -0.489  12.915  -0.011  0.00  0.00    +0.039 A 
BRANCH  12  19
ATOM     18  C   UNL     1      -3.013  13.702   1.884  0.00  0.00    +0.009 C 
ATOM     19  C   UNL     1      -2.937  13.254   0.423  0.00  0.00    +0.033 C 
ENDBRANCH  12  19
ENDBRANCH   6  17
ENDBRANCH   1   8
BRANCH   4  20
ATOM     20  N   UNL     1      -0.165   4.123   0.550  0.00  0.00    -0.181 NA
ATOM     21  C   UNL     1       1.029   3.539   0.327  0.00  0.00    +0.280 C 
ATOM     22  O   UNL     1       2.035   4.219   0.267  0.00  0.00    -0.265 OA
BRANCH  21  23
ATOM     23  C   UNL     1       1.115   2.074   0.156  0.00  0.00    +0.048 A 
ATOM     24  C   UNL     1      -0.049   1.306   0.091  0.00  0.00    +0.046 A 
ATOM     25  C   UNL     1       0.039  -0.061  -0.070  0.00  0.00    +0.129 A 
ATOM     26  C   UNL     1       1.277  -0.672  -0.166  0.00  0.00    +0.065 A 
ATOM     27  C   UNL     1       2.434   0.083  -0.101  0.00  0.00    +0.132 A 
ATOM     28  C   UNL     1       2.361   1.452   0.058  0.00  0.00    -0.008 A 
ATOM     29  C   UNL     1       3.623   2.273   0.128  0.00  0.00    +0.047 C 
BRANCH  27  30
ATOM     30  N   UNL     1       3.754  -0.579  -0.205  0.00  0.00    +0.057 N 
ATOM     31  O   UNL     1       3.826  -1.794  -0.223  0.00  0.00    -0.126 OA
ATOM     32  O   UNL     1       4.768   0.093  -0.271  0.00  0.00    -0.126 OA
ENDBRANCH  27  30
BRANCH  25  33
ATOM     33  N   UNL     1      -1.194  -0.877  -0.138  0.00  0.00    +0.057 N 
ATOM     34  O   UNL     1      -2.285  -0.341  -0.053  0.00  0.00    -0.126 OA
ATOM     35  O   UNL     1      -1.119  -2.084  -0.280  0.00  0.00    -0.126 OA
ENDBRANCH  25  33
ENDBRANCH  21  23
ENDBRANCH   4  20
TORSDOF 7
