REMARK  Name = ZINC07868928
REMARK  4 active torsions:
REMARK  status: ('A' for Active; 'I' for Inactive)
REMARK    1  A    between atoms: C_1  and  C_2
REMARK    2  A    between atoms: C_2  and  C_4
REMARK    3  A    between atoms: C_2  and  S_17
REMARK    4  A    between atoms: S_17  and  C_18
REMARK                            x       y       z     vdW  Elec       q    Type
REMARK                         _______ _______ _______ _____ _____    ______ ____
ROOT
ATOM      1  C   UNL     1      -1.174   4.042   1.447  0.00  0.00    +0.029 C 
ATOM      2  C   UNL     1      -0.581   4.402   0.084  0.00  0.00    +0.134 C 
ENDROOT
BRANCH   2   3
ATOM      3  C   UNL     1      -0.644   5.895  -0.113  0.00  0.00    +0.233 C 
ATOM      4  O   UNL     1       0.344   6.573   0.076  0.00  0.00    -0.274 OA
ATOM      5  N   UNL     1      -1.797   6.476  -0.497  0.00  0.00    -0.260 N 
ATOM      6  C   UNL     1      -3.007   5.676  -0.739  0.00  0.00    +0.209 C 
ATOM      7  C   UNL     1      -3.697   6.181  -1.975  0.00  0.00    +0.235 C 
ATOM      8  O   UNL     1      -4.357   5.416  -2.646  0.00  0.00    -0.274 OA
ATOM      9  N   UNL     1      -3.587   7.469  -2.350  0.00  0.00    -0.283 N 
ATOM     10  C   UNL     1      -2.791   8.360  -1.622  0.00  0.00    +0.055 A 
ATOM     11  C   UNL     1      -1.881   7.865  -0.687  0.00  0.00    +0.058 A 
ATOM     12  C   UNL     1      -1.082   8.733   0.035  0.00  0.00    +0.025 A 
ATOM     13  C   UNL     1      -1.191  10.098  -0.172  0.00  0.00    +0.002 A 
ATOM     14  C   UNL     1      -2.094  10.591  -1.095  0.00  0.00    +0.002 A 
ATOM     15  C   UNL     1      -2.894   9.727  -1.821  0.00  0.00    +0.025 A 
ATOM     16  H   UNL     1      -4.065   7.783  -3.134  0.00  0.00    +0.155 HD
ENDBRANCH   2   3
BRANCH   2  17
ATOM     17  S   UNL     1       1.147   3.855   0.011  0.00  0.00    -0.113 S 
BRANCH  17  18
ATOM     18  C   UNL     1       1.603   4.106  -1.672  0.00  0.00    +0.012 A 
ATOM     19  C   UNL     1       0.647   4.503  -2.599  0.00  0.00    +0.018 A 
ATOM     20  C   UNL     1       1.002   4.702  -3.920  0.00  0.00    +0.050 A 
ATOM     21  C   UNL     1       2.314   4.505  -4.318  0.00  0.00    +0.162 A 
ATOM     22  C   UNL     1       3.271   4.108  -3.395  0.00  0.00    +0.163 A 
ATOM     23  C   UNL     1       2.919   3.907  -2.072  0.00  0.00    +0.064 A 
ATOM     24  O   UNL     1       4.560   3.917  -3.800  0.00  0.00    -0.488 OA
ATOM     25  C   UNL     1       4.784   2.805  -4.669  0.00  0.00    +0.232 C 
ATOM     26  C   UNL     1       4.505   3.184  -6.115  0.00  0.00    +0.082 C 
ATOM     27  C   UNL     1       3.043   3.528  -6.350  0.00  0.00    +0.232 C 
ATOM     28  O   UNL     1       2.674   4.700  -5.621  0.00  0.00    -0.488 OA
ENDBRANCH  17  18
ENDBRANCH   2  17
TORSDOF 3
