REMARK  Name = ZINC12582903
REMARK  6 active torsions:
REMARK  status: ('A' for Active; 'I' for Inactive)
REMARK    1  A    between atoms: C_6  and  O_7
REMARK    2  A    between atoms: O_7  and  C_8
REMARK    3  A    between atoms: C_8  and  C_9
REMARK    4  A    between atoms: N_11  and  N_12
REMARK    5  A    between atoms: N_12  and  S_13
REMARK    6  A    between atoms: S_13  and  C_16
REMARK                            x       y       z     vdW  Elec       q    Type
REMARK                         _______ _______ _______ _____ _____    ______ ____
ROOT
ATOM      1  C   UNL     1      -0.016   1.344   0.009  0.00  0.00    +0.265 C 
ATOM      2  O   UNL     1      -1.075   1.936   0.018  0.00  0.00    -0.271 OA
ATOM      3  N   UNL     1       0.002  -0.004   0.002  0.00  0.00    -0.229 N 
ATOM      4  H   UNL     1       0.849  -0.478  -0.009  0.00  0.00    +0.171 HD
ENDROOT
BRANCH   3   5
ATOM      5  N   UNL     1      -1.202  -0.721   0.010  0.00  0.00    -0.108 NA
ATOM      6  H   UNL     1      -1.858  -0.559   0.705  0.00  0.00    +0.172 HD
BRANCH   5   7
ATOM      7  S   UNL     1      -1.503  -1.845  -1.168  0.00  0.00    +0.074 S 
ATOM      8  O   UNL     1      -2.716  -2.493  -0.810  0.00  0.00    -0.152 OA
ATOM      9  O   UNL     1      -1.332  -1.184  -2.414  0.00  0.00    -0.152 OA
BRANCH   7  10
ATOM     10  C   UNL     1      -0.233  -3.062  -1.065  0.00  0.00    +0.107 A 
ATOM     11  C   UNL     1       0.928  -2.912  -1.800  0.00  0.00    +0.030 A 
ATOM     12  C   UNL     1       1.928  -3.863  -1.715  0.00  0.00    +0.022 A 
ATOM     13  C   UNL     1       1.761  -4.971  -0.903  0.00  0.00    +0.041 A 
ATOM     14  C   UNL     1       0.596  -5.123  -0.172  0.00  0.00    +0.022 A 
ATOM     15  C   UNL     1      -0.400  -4.168  -0.254  0.00  0.00    +0.030 A 
ATOM     16 CL   UNL     1       3.013  -6.169  -0.801  0.00  0.00    -0.084 Cl
ENDBRANCH   7  10
ENDBRANCH   5   7
ENDBRANCH   3   5
BRANCH   1  17
ATOM     17  C   UNL     1       1.278   2.115   0.001  0.00  0.00    +0.325 C 
BRANCH  17  18
ATOM     18  O   UNL     1       0.998   3.516   0.011  0.00  0.00    -0.483 OA
BRANCH  18  24
ATOM     19  C   UNL     1       3.354   3.847  -0.004  0.00  0.00    +0.047 A 
ATOM     20  C   UNL     1       4.437   4.705  -0.016  0.00  0.00    +0.019 A 
ATOM     21  C   UNL     1       4.236   6.074  -0.006  0.00  0.00    +0.018 A 
ATOM     22  C   UNL     1       2.951   6.586   0.009  0.00  0.00    +0.019 A 
ATOM     23  C   UNL     1       1.866   5.731   0.015  0.00  0.00    +0.047 A 
ATOM     24  C   UNL     1       2.065   4.359   0.006  0.00  0.00    +0.121 A 
ATOM     25 BR   UNL     1       5.720   7.246  -0.015  0.00  0.00    -0.050 Br
ENDBRANCH  18  24
ENDBRANCH  17  18
ENDBRANCH   1  17
TORSDOF 6
