REMARK  Name = ZINC39665326
REMARK  9 active torsions:
REMARK  status: ('A' for Active; 'I' for Inactive)
REMARK    1  A    between atoms: C_1  and  C_2
REMARK    2  A    between atoms: C_2  and  C_4
REMARK    3  A    between atoms: C_2  and  O_29
REMARK    4  A    between atoms: C_4  and  N_5
REMARK    5  A    between atoms: C_6  and  C_8
REMARK    6  A    between atoms: C_19  and  C_21
REMARK    7  A    between atoms: C_25  and  O_26
REMARK    8  A    between atoms: O_26  and  C_27
REMARK    9  A    between atoms: O_29  and  C_30
REMARK                            x       y       z     vdW  Elec       q    Type
REMARK                         _______ _______ _______ _____ _____    ______ ____
ROOT
ATOM      1  C   UNL     1       1.375  -3.977  -2.597  0.00  0.00    +0.100 C 
ATOM      2  C   UNL     1      -0.053  -4.450  -2.950  0.00  0.00    +0.121 C 
ATOM      3  N   UNL     1      -0.027  -4.657  -4.417  0.00  0.00    -0.296 N 
ATOM      4  C   UNL     1       1.302  -5.260  -4.681  0.00  0.00    +0.115 C 
ATOM      5  C   UNL     1       2.261  -4.513  -3.733  0.00  0.00    -0.004 C 
ATOM      6  C   UNL     1       3.309  -5.474  -3.178  0.00  0.00    -0.010 C 
ATOM      7  C   UNL     1       4.215  -5.949  -4.317  0.00  0.00    -0.082 C 
ATOM      8  N   UNL     1       4.866  -4.791  -4.942  0.00  0.00    +0.379 N 
ATOM      9  C   UNL     1       3.856  -3.919  -5.555  0.00  0.00    -0.082 C 
ATOM     10  C   UNL     1       2.935  -3.359  -4.468  0.00  0.00    -0.010 C 
ATOM     11  C   UNL     1      -0.992  -4.363  -5.311  0.00  0.00    +0.251 C 
ATOM     12  O   UNL     1      -1.993  -3.772  -4.952  0.00  0.00    -0.270 OA
ATOM     13  H   UNL     1       5.374  -4.273  -4.241  0.00  0.00    -0.086 HD
ATOM     14  H   UNL     1       5.508  -5.110  -5.652  0.00  0.00    -0.086 HD
ENDROOT
BRANCH  11  15
ATOM     15  C   UNL     1      -0.836  -4.757  -6.719  0.00  0.00    +0.087 A 
ATOM     16  C   UNL     1      -0.039  -5.819  -7.087  0.00  0.00    +0.063 A 
ATOM     17  S   UNL     1      -0.175  -5.879  -8.758  0.00  0.00    -0.081 S 
ATOM     18  C   UNL     1      -1.281  -4.512  -9.031  0.00  0.00    +0.120 A 
ATOM     19  C   UNL     1      -1.515  -4.052  -7.782  0.00  0.00    +0.158 A 
ATOM     20 CL   UNL     1      -1.912  -3.919 -10.536  0.00  0.00    -0.072 Cl
BRANCH  19  21
ATOM     21  O   UNL     1      -2.333  -2.990  -7.541  0.00  0.00    -0.492 OA
ATOM     22  C   UNL     1      -1.731  -1.695  -7.536  0.00  0.00    +0.277 C 
ENDBRANCH  19  21
ENDBRANCH  11  15
BRANCH   1  24
ATOM     23  N   UNL     1       2.423  -1.855  -1.879  0.00  0.00    -0.312 N 
ATOM     24  C   UNL     1       1.432  -2.472  -2.553  0.00  0.00    +0.218 C 
ATOM     25  O   UNL     1       0.587  -1.815  -3.124  0.00  0.00    -0.275 OA
ATOM     26  H   UNL     1       3.099  -2.379  -1.422  0.00  0.00    +0.149 HD
BRANCH  23  27
ATOM     27  C   UNL     1       2.479  -0.391  -1.836  0.00  0.00    +0.148 C 
BRANCH  27  29
ATOM     28  C   UNL     1       3.680   1.571  -0.863  0.00  0.00    +0.053 C 
ATOM     29  C   UNL     1       3.691   0.049  -1.012  0.00  0.00    +0.187 C 
BRANCH  29  30
ATOM     30  O   UNL     1       4.890  -0.356  -1.676  0.00  0.00    -0.488 OA
BRANCH  30  31
ATOM     31  C   UNL     1       5.996  -0.524  -0.904  0.00  0.00    +0.121 A 
ATOM     32  C   UNL     1       5.905  -0.407   0.475  0.00  0.00    +0.045 A 
ATOM     33  C   UNL     1       7.030  -0.578   1.258  0.00  0.00    +0.004 A 
ATOM     34  C   UNL     1       8.247  -0.866   0.667  0.00  0.00    +0.000 A 
ATOM     35  C   UNL     1       8.341  -0.983  -0.707  0.00  0.00    +0.004 A 
ATOM     36  C   UNL     1       7.217  -0.819  -1.494  0.00  0.00    +0.045 A 
ENDBRANCH  30  31
ENDBRANCH  29  30
ENDBRANCH  27  29
ENDBRANCH  23  27
ENDBRANCH   1  24
TORSDOF 7
