REMARK  Name = ZINC01616161
REMARK  1 active torsions:
REMARK  status: ('A' for Active; 'I' for Inactive)
REMARK    1  A    between atoms: C_15  and  C_18
REMARK                            x       y       z     vdW  Elec       q    Type
REMARK                         _______ _______ _______ _____ _____    ______ ____
ROOT
ATOM      1  C   UNL     1      -0.013   1.076   0.008  0.00  0.00    +0.001 A 
ATOM      2  C   UNL     1       1.191   1.778   0.000  0.00  0.00    +0.001 A 
ATOM      3  C   UNL     1       1.208   3.139   0.008  0.00  0.00    +0.009 A 
ATOM      4  C   UNL     1      -0.009   3.848   0.024  0.00  0.00    -0.014 A 
ATOM      5  C   UNL     1      -1.226   3.136   0.032  0.00  0.00    -0.018 A 
ATOM      6  C   UNL     1      -1.207   1.730   0.017  0.00  0.00    +0.008 A 
ATOM      7  C   UNL     1      -2.443   3.841   0.048  0.00  0.00    +0.009 A 
ATOM      8  C   UNL     1      -2.412   5.193   0.055  0.00  0.00    +0.012 A 
ATOM      9  C   UNL     1      -1.194   5.915   0.046  0.00  0.00    +0.026 A 
ATOM     10  C   UNL     1       0.019   5.275   0.036  0.00  0.00    -0.028 A 
ATOM     11  C   UNL     1       1.436   5.808   0.041  0.00  0.00    +0.044 C 
ATOM     12  C   UNL     1       1.573   7.272   0.387  0.00  0.00    +0.080 C 
ATOM     13  C   UNL     1       0.886   8.151  -0.625  0.00  0.00    +0.117 A 
ATOM     14  C   UNL     1      -0.434   8.198  -0.789  0.00  0.00    +0.075 A 
ATOM     15  C   UNL     1      -0.712   9.152  -1.867  0.00  0.00    +0.085 A 
ATOM     16  C   UNL     1       0.522   9.601  -2.248  0.00  0.00    +0.209 A 
ATOM     17  O   UNL     1       1.454   8.995  -1.495  0.00  0.00    -0.466 OA
ATOM     18  C   UNL     1      -1.333   7.390   0.042  0.00  0.00    +0.197 C 
ATOM     19  O   UNL     1      -2.186   7.928   0.724  0.00  0.00    -0.287 OA
ENDROOT
BRANCH  15  20
ATOM     20  C   UNL     1      -2.022   9.539  -2.416  0.00  0.00    +0.245 C 
ATOM     21  O   UNL     1      -3.039   9.046  -1.966  0.00  0.00    -0.270 OA
ATOM     22  N   UNL     1      -2.095  10.440  -3.416  0.00  0.00    -0.325 N 
ATOM     23  H   UNL     1      -1.284  10.833  -3.774  0.00  0.00    +0.145 HD
ATOM     24  H   UNL     1      -2.959  10.695  -3.777  0.00  0.00    +0.145 HD
ENDBRANCH  15  20
TORSDOF 1
