REMARK  Name = ZINC09579208
REMARK  10 active torsions:
REMARK  status: ('A' for Active; 'I' for Inactive)
REMARK    1  A    between atoms: C_1  and  C_2
REMARK    2  A    between atoms: C_3  and  C_34
REMARK    3  A    between atoms: N_4  and  C_28
REMARK    4  A    between atoms: C_5  and  N_9
REMARK    5  A    between atoms: C_6  and  C_7
REMARK    6  A    between atoms: C_10  and  C_12
REMARK    7  A    between atoms: C_12  and  N_70
REMARK    8  A    between atoms: C_15  and  C_18
REMARK    9  A    between atoms: N_20  and  C_21
REMARK   10  A    between atoms: C_26  and  O_27
REMARK                            x       y       z     vdW  Elec       q    Type
REMARK                         _______ _______ _______ _____ _____    ______ ____
ROOT
ATOM      1  C   UNL     1      -0.283  -0.184   1.076  0.00  0.00    +0.019 C 
ENDROOT
BRANCH   1   7
ATOM      2  C   UNL     1      -1.168   2.052   0.796  0.00  0.00    -0.077 C 
ATOM      3  C   UNL     1      -1.339   3.407   1.486  0.00  0.00    -0.006 C 
ATOM      4  C   UNL     1       0.039   4.030   1.727  0.00  0.00    +0.072 C 
ATOM      5  C   UNL     1       0.884   3.070   2.569  0.00  0.00    -0.006 C 
ATOM      6  C   UNL     1       0.991   1.725   1.848  0.00  0.00    -0.077 C 
ATOM      7  N   UNL     1      -0.367   1.167   1.668  0.00  0.00    +0.385 N 
ATOM      8  H   UNL     1      -0.824   1.102   2.586  0.00  0.00    -0.081 HD
BRANCH   4   9
ATOM      9  C   UNL     1      -0.120   5.337   2.460  0.00  0.00    +0.220 C 
ATOM     10  O   UNL     1       0.392   5.487   3.549  0.00  0.00    -0.275 OA
ATOM     11  N   UNL     1      -0.831   6.339   1.905  0.00  0.00    -0.282 N 
ATOM     12  H   UNL     1      -1.298   6.196   1.067  0.00  0.00    +0.155 HD
BRANCH  11  13
ATOM     13  C   UNL     1      -0.895   7.587   2.539  0.00  0.00    +0.075 A 
ATOM     14  C   UNL     1       0.189   8.053   3.269  0.00  0.00    +0.027 A 
ATOM     15  C   UNL     1       0.123   9.284   3.893  0.00  0.00    +0.002 A 
ATOM     16  C   UNL     1      -1.020  10.055   3.791  0.00  0.00    +0.004 A 
ATOM     17  C   UNL     1      -2.104   9.597   3.065  0.00  0.00    +0.047 A 
ATOM     18  C   UNL     1      -2.045   8.366   2.432  0.00  0.00    +0.138 A 
BRANCH  18  19
ATOM     19  O   UNL     1      -3.108   7.917   1.713  0.00  0.00    -0.505 OA
ATOM     20  H   UNL     1      -3.743   7.403   2.229  0.00  0.00    +0.292 HD
ENDBRANCH  18  19
ENDBRANCH  11  13
ENDBRANCH   4   9
ENDBRANCH   1   7
BRANCH   1  22
ATOM     21  N   UNL     1      -1.756  -2.162   0.891  0.00  0.00    -0.272 N 
ATOM     22  C   UNL     1      -1.610  -0.874   1.259  0.00  0.00    +0.202 C 
ATOM     23  O   UNL     1      -2.547  -0.270   1.736  0.00  0.00    -0.278 OA
ATOM     24  H   UNL     1      -1.002  -2.651   0.527  0.00  0.00    +0.156 HD
BRANCH  21  29
ATOM     25  C   UNL     1      -6.707  -3.179   0.861  0.00  0.00    +0.047 C 
ATOM     26  C   UNL     1      -5.213  -3.280   1.033  0.00  0.00    -0.011 A 
ATOM     27  C   UNL     1      -4.530  -4.332   1.514  0.00  0.00    +0.022 A 
ATOM     28  N   UNL     1      -3.192  -4.044   1.511  0.00  0.00    -0.329 N 
ATOM     29  C   UNL     1      -2.985  -2.789   1.034  0.00  0.00    +0.123 A 
ATOM     30  C   UNL     1      -4.221  -2.248   0.708  0.00  0.00    +0.095 A 
ATOM     31  C   UNL     1      -5.141  -5.630   1.978  0.00  0.00    +0.064 C 
BRANCH  28  32
ATOM     32  C   UNL     1      -2.136  -4.955   1.960  0.00  0.00    +0.089 C 
ATOM     33  C   UNL     1      -1.334  -4.292   3.082  0.00  0.00    +0.025 C 
ATOM     34  C   UNL     1      -0.232  -5.243   3.551  0.00  0.00    +0.002 C 
ATOM     35  C   UNL     1       0.699  -5.563   2.380  0.00  0.00    +0.000 C 
ATOM     36  C   UNL     1      -0.103  -6.226   1.258  0.00  0.00    +0.002 C 
ATOM     37  C   UNL     1      -1.206  -5.274   0.788  0.00  0.00    +0.025 C 
ENDBRANCH  28  32
BRANCH  30  38
ATOM     38  C   UNL     1      -4.477  -0.947   0.167  0.00  0.00    +0.103 C 
ATOM     39  N   UNL     1      -4.680   0.085  -0.263  0.00  0.00    -0.191 NA
ENDBRANCH  30  38
ENDBRANCH  21  29
ENDBRANCH   1  22
TORSDOF 8
