REMARK  Name = ZINC18095839
REMARK  11 active torsions:
REMARK  status: ('A' for Active; 'I' for Inactive)
REMARK    1  A    between atoms: C_1  and  C_2
REMARK    2  A    between atoms: C_3  and  O_20
REMARK    3  A    between atoms: C_4  and  C_8
REMARK    4  A    between atoms: C_11  and  O_15
REMARK    5  A    between atoms: C_13  and  O_14
REMARK    6  A    between atoms: O_15  and  C_16
REMARK    7  A    between atoms: C_16  and  C_17
REMARK    8  A    between atoms: C_17  and  C_19
REMARK    9  A    between atoms: O_20  and  C_21
REMARK   10  A    between atoms: C_26  and  O_27
REMARK   11  A    between atoms: O_27  and  C_28
REMARK                            x       y       z     vdW  Elec       q    Type
REMARK                         _______ _______ _______ _____ _____    ______ ____
ROOT
ATOM      1  C   UNL     1      -0.018   1.503   0.010  0.00  0.00    +0.069 C 
ATOM      2  C   UNL     1       0.002  -0.004   0.002  0.00  0.00    +0.076 A 
ATOM      3  C   UNL     1       0.008  -0.796  -1.097  0.00  0.00    +0.176 A 
ATOM      4  C   UNL     1       0.029  -2.138  -0.661  0.00  0.00    +0.138 A 
ATOM      5  N   UNL     1       0.035  -2.140   0.655  0.00  0.00    -0.170 NA
ATOM      6  N   UNL     1       0.024  -0.811   1.096  0.00  0.00    -0.278 N 
ATOM      7  H   UNL     1       0.029  -0.517   2.020  0.00  0.00    +0.189 HD
ENDROOT
BRANCH   4   8
ATOM      8  C   UNL     1       0.041  -3.337  -1.534  0.00  0.00    +0.047 A 
ATOM      9  C   UNL     1       0.038  -3.192  -2.920  0.00  0.00    +0.017 A 
ATOM     10  C   UNL     1       0.051  -4.309  -3.730  0.00  0.00    +0.046 A 
ATOM     11  C   UNL     1       0.065  -5.579  -3.168  0.00  0.00    +0.124 A 
ATOM     12  C   UNL     1       0.068  -5.731  -1.789  0.00  0.00    +0.091 A 
ATOM     13  C   UNL     1       0.062  -4.616  -0.969  0.00  0.00    +0.130 A 
BRANCH  13  14
ATOM     14  O   UNL     1       0.070  -4.764   0.382  0.00  0.00    -0.506 OA
ATOM     15  H   UNL     1      -0.811  -4.819   0.777  0.00  0.00    +0.292 HD
ENDBRANCH  13  14
BRANCH  11  16
ATOM     16  O   UNL     1       0.076  -6.675  -3.971  0.00  0.00    -0.488 OA
BRANCH  16  17
ATOM     17  C   UNL     1       0.072  -6.446  -5.381  0.00  0.00    +0.259 C 
BRANCH  17  18
ATOM     18  C   UNL     1       0.086  -7.767  -6.105  0.00  0.00    -0.043 C 
ATOM     19  C   UNL     1       0.099  -8.887  -5.424  0.00  0.00    +0.011 C 
ATOM     20  C   UNL     1       0.084  -7.802  -7.612  0.00  0.00    +0.042 C 
ENDBRANCH  17  18
ENDBRANCH  16  17
ENDBRANCH  11  16
ENDBRANCH   4   8
BRANCH   3  21
ATOM     21  O   UNL     1      -0.004  -0.372  -2.391  0.00  0.00    -0.448 OA
BRANCH  21  22
ATOM     22  C   UNL     1       1.190  -0.157  -3.003  0.00  0.00    +0.170 A 
ATOM     23  C   UNL     1       2.373  -0.374  -2.314  0.00  0.00    +0.050 A 
ATOM     24  C   UNL     1       3.587  -0.155  -2.939  0.00  0.00    +0.004 A 
ATOM     25  C   UNL     1       3.624   0.281  -4.251  0.00  0.00    +0.004 A 
ATOM     26  C   UNL     1       2.448   0.500  -4.943  0.00  0.00    +0.049 A 
ATOM     27  C   UNL     1       1.228   0.276  -4.325  0.00  0.00    +0.162 A 
BRANCH  27  28
ATOM     28  O   UNL     1       0.070   0.485  -5.007  0.00  0.00    -0.491 OA
ATOM     29  C   UNL     1       0.185   0.929  -6.361  0.00  0.00    +0.277 C 
ENDBRANCH  27  28
ENDBRANCH  21  22
ENDBRANCH   3  21
TORSDOF 8
