REMARK  Name = ZINC04608249
REMARK  7 active torsions:
REMARK  status: ('A' for Active; 'I' for Inactive)
REMARK    1  A    between atoms: C_1  and  C_2
REMARK    2  A    between atoms: C_2  and  C_3
REMARK    3  A    between atoms: C_3  and  C_5
REMARK    4  A    between atoms: C_3  and  N_6
REMARK    5  A    between atoms: C_7  and  C_9
REMARK    6  A    between atoms: C_19  and  C_21
REMARK    7  A    between atoms: C_25  and  N_27
REMARK                            x       y       z     vdW  Elec       q    Type
REMARK                         _______ _______ _______ _____ _____    ______ ____
ROOT
ATOM      1  C   UNL     1      -2.200   1.013   2.589  0.00  0.00    +0.028 C 
ATOM      2  C   UNL     1      -2.278   0.976   4.144  0.00  0.00    +0.061 C 
ATOM      3  S   UNL     1      -3.517   2.329   4.390  0.00  0.00    -0.174 S 
ATOM      4  C   UNL     1      -3.059   3.326   2.913  0.00  0.00    -0.016 C 
ATOM      5  C   UNL     1      -4.320   3.762   2.180  0.00  0.00    +0.017 C 
ATOM      6  C   UNL     1      -3.934   4.576   0.940  0.00  0.00    +0.107 C 
ATOM      7  N   UNL     1      -3.040   5.667   1.351  0.00  0.00    -0.298 N 
ATOM      8  C   UNL     1      -1.826   5.340   2.112  0.00  0.00    +0.107 C 
ATOM      9  C   UNL     1      -2.224   4.522   3.346  0.00  0.00    +0.017 C 
ATOM     10  C   UNL     1      -3.329   6.945   1.037  0.00  0.00    +0.247 C 
ATOM     11  O   UNL     1      -4.298   7.197   0.349  0.00  0.00    -0.270 OA
ATOM     12  N   UNL     1      -2.245   2.405   2.059  0.00  0.00    +0.397 N 
ATOM     13  H   UNL     1      -2.654   2.385   1.117  0.00  0.00    -0.083 HD
ATOM     14  H   UNL     1      -1.286   2.768   2.008  0.00  0.00    -0.083 HD
ENDROOT
BRANCH  10  15
ATOM     15  C   UNL     1      -2.466   8.040   1.528  0.00  0.00    +0.039 A 
ATOM     16  C   UNL     1      -1.081   7.966   1.371  0.00  0.00    +0.013 A 
ATOM     17  C   UNL     1      -0.281   8.992   1.831  0.00  0.00    +0.003 A 
ATOM     18  C   UNL     1      -0.850  10.092   2.449  0.00  0.00    +0.033 A 
ATOM     19  C   UNL     1      -2.221  10.172   2.608  0.00  0.00    +0.127 A 
ATOM     20  C   UNL     1      -3.033   9.155   2.147  0.00  0.00    +0.045 A 
BRANCH  19  21
ATOM     21  N   UNL     1      -2.821  11.352   3.270  0.00  0.00    +0.056 N 
ATOM     22  O   UNL     1      -2.106  12.252   3.673  0.00  0.00    -0.126 OA
ATOM     23  O   UNL     1      -4.028  11.424   3.410  0.00  0.00    -0.126 OA
ENDBRANCH  19  21
ENDBRANCH  10  15
BRANCH   1  25
ATOM     24  N   UNL     1      -0.644  -0.903   2.430  0.00  0.00    -0.314 N 
ATOM     25  C   UNL     1      -0.904   0.388   2.142  0.00  0.00    +0.200 C 
ATOM     26  O   UNL     1      -0.095   1.046   1.524  0.00  0.00    -0.278 OA
ATOM     27  H   UNL     1      -1.291  -1.429   2.925  0.00  0.00    +0.149 HD
BRANCH  24  28
ATOM     28  C   UNL     1       0.616  -1.511   1.996  0.00  0.00    +0.070 C 
ATOM     29  C   UNL     1       1.708  -1.214   3.026  0.00  0.00    +0.028 C 
BRANCH  28  31
ATOM     30  C   UNL     1      -0.566  -3.325   0.750  0.00  0.00    +0.005 C 
ATOM     31  C   UNL     1       0.435  -3.025   1.867  0.00  0.00    +0.018 C 
ENDBRANCH  28  31
ENDBRANCH  24  28
ENDBRANCH   1  25
TORSDOF 5
