REMARK  Name = ZINC20905558
REMARK  7 active torsions:
REMARK  status: ('A' for Active; 'I' for Inactive)
REMARK    1  A    between atoms: C_10  and  C_11
REMARK    2  A    between atoms: N_12  and  N_13
REMARK    3  A    between atoms: C_16  and  S_19
REMARK    4  A    between atoms: S_19  and  C_20
REMARK    5  A    between atoms: C_20  and  C_21
REMARK    6  A    between atoms: N_23  and  C_24
REMARK    7  A    between atoms: N_23  and  C_30
REMARK                            x       y       z     vdW  Elec       q    Type
REMARK                         _______ _______ _______ _____ _____    ______ ____
ROOT
ATOM      1  N   UNL     1       1.151  -2.038  -0.124  0.00  0.00    -0.205 N 
ATOM      2  C   UNL     1       2.356  -2.715  -0.243  0.00  0.00    +0.232 A 
ATOM      3  N   UNL     1       2.516  -4.073  -0.265  0.00  0.00    -0.186 NA
ATOM      4  C   UNL     1       3.849  -4.338  -0.395  0.00  0.00    +0.211 A 
ATOM      5  N   UNL     1       4.487  -3.193  -0.450  0.00  0.00    -0.144 NA
ATOM      6  N   UNL     1       3.540  -2.165  -0.359  0.00  0.00    -0.245 N 
ATOM      7  H   UNL     1       0.210  -2.602  -0.037  0.00  0.00    +0.177 HD
ATOM      8  H   UNL     1       3.639  -1.070  -0.369  0.00  0.00    +0.192 HD
ENDROOT
BRANCH   1  10
ATOM      9  C   UNL     1       0.002  -0.003  -0.004  0.00  0.00    +0.139 C 
ATOM     10  N   UNL     1       1.132  -0.638  -0.115  0.00  0.00    -0.188 NA
BRANCH   9  20
ATOM     11  C   UNL     1       3.555   3.736  -0.001  0.00  0.00    +0.001 A 
ATOM     12  C   UNL     1       3.615   2.344  -0.010  0.00  0.00    +0.001 A 
ATOM     13  C   UNL     1       2.476   1.594  -0.008  0.00  0.00    +0.009 A 
ATOM     14  C   UNL     1       1.229   2.230   0.003  0.00  0.00    -0.009 A 
ATOM     15  C   UNL     1       1.165   3.645   0.013  0.00  0.00    -0.017 A 
ATOM     16  C   UNL     1       2.359   4.386   0.011  0.00  0.00    +0.008 A 
ATOM     17  C   UNL     1      -0.089   4.279   0.025  0.00  0.00    +0.008 A 
ATOM     18  C   UNL     1      -1.237   3.548   0.028  0.00  0.00    +0.001 A 
ATOM     19  C   UNL     1      -1.222   2.161   0.012  0.00  0.00    +0.010 A 
ATOM     20  C   UNL     1      -0.017   1.467   0.006  0.00  0.00    +0.002 A 
ENDBRANCH   9  20
ENDBRANCH   1  10
BRANCH   4  21
ATOM     21  S   UNL     1       4.584  -5.938  -0.474  0.00  0.00    -0.075 S 
BRANCH  21  22
ATOM     22  C   UNL     1       6.326  -5.476  -0.639  0.00  0.00    +0.173 C 
BRANCH  22  23
ATOM     23  C   UNL     1       7.170  -6.722  -0.727  0.00  0.00    +0.226 C 
ATOM     24  O   UNL     1       6.640  -7.811  -0.774  0.00  0.00    -0.275 OA
ATOM     25  N   UNL     1       8.514  -6.625  -0.754  0.00  0.00    -0.295 N 
BRANCH  25  26
ATOM     26  C   UNL     1       9.158  -5.319  -0.590  0.00  0.00    +0.076 C 
ATOM     27  C   UNL     1      10.088  -5.055  -1.776  0.00  0.00    +0.022 C 
ATOM     28  C   UNL     1      10.760  -3.692  -1.603  0.00  0.00    +0.002 C 
ATOM     29  C   UNL     1      11.572  -3.683  -0.307  0.00  0.00    +0.000 C 
ATOM     30  C   UNL     1      10.642  -3.947   0.879  0.00  0.00    +0.002 C 
ATOM     31  C   UNL     1       9.970  -5.311   0.707  0.00  0.00    +0.022 C 
ENDBRANCH  25  26
BRANCH  25  32
ATOM     32  C   UNL     1       9.331  -7.825  -0.949  0.00  0.00    +0.076 C 
ATOM     33  C   UNL     1       8.980  -8.469  -2.292  0.00  0.00    +0.022 C 
ATOM     34  C   UNL     1       9.834  -9.722  -2.495  0.00  0.00    +0.002 C 
ATOM     35  C   UNL     1       9.558 -10.716  -1.364  0.00  0.00    +0.000 C 
ATOM     36  C   UNL     1       9.909 -10.072  -0.022  0.00  0.00    +0.002 C 
ATOM     37  C   UNL     1       9.055  -8.818   0.181  0.00  0.00    +0.022 C 
ENDBRANCH  25  32
ENDBRANCH  22  23
ENDBRANCH  21  22
ENDBRANCH   4  21
TORSDOF 7
