REMARK  Name = ZINC12797620
REMARK  14 active torsions:
REMARK  status: ('A' for Active; 'I' for Inactive)
REMARK    1  A    between atoms: C_1  and  C_2
REMARK    2  A    between atoms: C_2  and  C_3
REMARK    3  A    between atoms: C_6  and  C_9
REMARK    4  A    between atoms: C_9  and  C_11
REMARK    5  A    between atoms: C_9  and  N_62
REMARK    6  A    between atoms: C_11  and  N_12
REMARK    7  A    between atoms: C_13  and  C_15
REMARK    8  A    between atoms: C_15  and  C_17
REMARK    9  A    between atoms: C_15  and  N_20
REMARK   10  A    between atoms: C_17  and  C_18
REMARK   11  A    between atoms: C_17  and  C_19
REMARK   12  A    between atoms: C_21  and  C_23
REMARK   13  A    between atoms: C_30  and  N_62
REMARK   14  A    between atoms: C_31  and  N_62
REMARK                            x       y       z     vdW  Elec       q    Type
REMARK                         _______ _______ _______ _____ _____    ______ ____
ROOT
ATOM      1  N   UNL     1       4.050  -5.853   0.965  0.00  0.00    -0.315 N 
ATOM      2  C   UNL     1       4.174  -4.514   1.060  0.00  0.00    +0.234 C 
ATOM      3  O   UNL     1       5.042  -4.034   1.758  0.00  0.00    -0.274 OA
ATOM      4  H   UNL     1       3.405  -6.238   0.351  0.00  0.00    +0.149 HD
ENDROOT
BRANCH   1   5
ATOM      5  C   UNL     1       4.887  -6.727   1.790  0.00  0.00    +0.093 C 
BRANCH   5   6
ATOM      6  C   UNL     1       4.548  -8.188   1.491  0.00  0.00    -0.021 C 
BRANCH   6  10
ATOM      7  C   UNL     1       7.225 -10.736   3.635  0.00  0.00    -0.048 A 
ATOM      8  C   UNL     1       7.724  -9.712   2.852  0.00  0.00    +0.004 A 
ATOM      9  C   UNL     1       6.858  -8.888   2.158  0.00  0.00    +0.002 A 
ATOM     10  C   UNL     1       5.493  -9.087   2.247  0.00  0.00    -0.059 A 
ATOM     11  C   UNL     1       4.994 -10.108   3.035  0.00  0.00    +0.002 A 
ATOM     12  C   UNL     1       5.860 -10.936   3.724  0.00  0.00    +0.004 A 
BRANCH   7  14
ATOM     13  C   UNL     1       8.431 -11.046   5.779  0.00  0.00    +0.009 C 
ATOM     14  C   UNL     1       8.169 -11.635   4.391  0.00  0.00    +0.032 C 
ENDBRANCH   7  14
ENDBRANCH   6  10
BRANCH   6  17
ATOM     15  C   UNL     1       6.051  -8.157  -0.407  0.00  0.00    -0.096 C 
ATOM     16  C   UNL     1       4.288  -9.812  -0.286  0.00  0.00    -0.096 C 
ATOM     17  N   UNL     1       4.666  -8.420   0.036  0.00  0.00    +0.382 N 
ATOM     18  H   UNL     1       4.031  -7.780  -0.455  0.00  0.00    -0.082 HD
ENDBRANCH   6  17
ENDBRANCH   5   6
ENDBRANCH   1   5
BRANCH   2  19
ATOM     19  C   UNL     1       3.236  -3.614   0.298  0.00  0.00    +0.162 C 
BRANCH  19  20
ATOM     20  N   UNL     1       3.078  -2.349   1.021  0.00  0.00    -0.300 N 
ATOM     21  C   UNL     1       1.964  -1.610   0.849  0.00  0.00    +0.245 C 
ATOM     22  O   UNL     1       1.091  -1.992   0.095  0.00  0.00    -0.270 OA
ATOM     23  H   UNL     1       3.775  -2.045   1.622  0.00  0.00    +0.150 HD
BRANCH  21  24
ATOM     24  C   UNL     1       1.805  -0.335   1.578  0.00  0.00    +0.037 A 
ATOM     25  C   UNL     1       0.652   0.434   1.402  0.00  0.00    +0.016 A 
ATOM     26  C   UNL     1       0.509   1.623   2.084  0.00  0.00    +0.039 A 
ATOM     27  C   UNL     1       1.508   2.057   2.943  0.00  0.00    +0.123 A 
ATOM     28  C   UNL     1       2.654   1.298   3.121  0.00  0.00    +0.039 A 
ATOM     29  C   UNL     1       2.807   0.107   2.444  0.00  0.00    +0.016 A 
ATOM     30  F   UNL     1       1.362   3.223   3.609  0.00  0.00    -0.205 F 
ENDBRANCH  21  24
ENDBRANCH  19  20
BRANCH  19  31
ATOM     31  C   UNL     1       3.810  -3.338  -1.093  0.00  0.00    +0.012 C 
ATOM     32  C   UNL     1       3.926  -4.654  -1.867  0.00  0.00    +0.009 C 
ATOM     33  C   UNL     1       2.882  -2.383  -1.847  0.00  0.00    +0.009 C 
ENDBRANCH  19  31
ENDBRANCH   2  19
TORSDOF 9
