REMARK  Name = ZINC65011036
REMARK  10 active torsions:
REMARK  status: ('A' for Active; 'I' for Inactive)
REMARK    1  A    between atoms: C_1  and  C_2
REMARK    2  A    between atoms: C_5  and  C_34
REMARK    3  A    between atoms: C_6  and  C_25
REMARK    4  A    between atoms: C_9  and  S_12
REMARK    5  A    between atoms: C_10  and  C_11
REMARK    6  A    between atoms: S_12  and  N_15
REMARK    7  A    between atoms: N_15  and  C_16
REMARK    8  A    between atoms: C_16  and  C_17
REMARK    9  A    between atoms: C_17  and  N_18
REMARK   10  A    between atoms: C_21  and  C_24
REMARK                            x       y       z     vdW  Elec       q    Type
REMARK                         _______ _______ _______ _____ _____    ______ ____
ROOT
ATOM      1  C   UNL     1      -0.188   1.493   0.028  0.00  0.00    +0.044 C 
ATOM      2  C   UNL     1      -0.043  -0.007   0.007  0.00  0.00    -0.045 A 
ATOM      3  C   UNL     1      -0.204  -0.688  -1.166  0.00  0.00    +0.015 A 
ATOM      4  C   UNL     1      -0.069  -2.078  -1.184  0.00  0.00    +0.026 A 
ATOM      5  C   UNL     1      -0.170  -3.099  -2.226  0.00  0.00    +0.008 A 
ATOM      6  C   UNL     1       0.069  -4.287  -1.613  0.00  0.00    +0.194 A 
ATOM      7  O   UNL     1       0.305  -4.084  -0.300  0.00  0.00    -0.448 OA
ATOM      8  C   UNL     1       0.233  -2.773   0.002  0.00  0.00    +0.163 A 
ATOM      9  C   UNL     1       0.393  -2.058   1.184  0.00  0.00    +0.151 A 
ATOM     10  C   UNL     1       0.260  -0.686   1.179  0.00  0.00    -0.018 A 
ATOM     11  C   UNL     1       0.441   0.084   2.461  0.00  0.00    +0.046 C 
ATOM     12  C   UNL     1      -0.479  -2.878  -3.685  0.00  0.00    +0.048 C 
ENDROOT
BRANCH   6  13
ATOM     13  C   UNL     1       0.070  -5.598  -2.280  0.00  0.00    +0.282 C 
ATOM     14  O   UNL     1      -0.038  -5.665  -3.489  0.00  0.00    -0.267 OA
ATOM     15  N   UNL     1       0.191  -6.724  -1.550  0.00  0.00    -0.295 N 
ATOM     16  C   UNL     1       0.188  -6.620  -0.108  0.00  0.00    +0.108 C 
ATOM     17  C   UNL     1       1.635  -6.413   0.401  0.00  0.00    +0.019 C 
ATOM     18  C   UNL     1       2.414  -7.652   0.246  0.00  0.00    +0.002 C 
ATOM     19  C   UNL     1       2.584  -8.110  -1.199  0.00  0.00    +0.002 C 
ATOM     20  C   UNL     1       1.382  -8.924  -1.611  0.00  0.00    +0.019 C 
ATOM     21  C   UNL     1       0.316  -8.014  -2.256  0.00  0.00    +0.108 C 
ENDBRANCH   6  13
BRANCH   9  22
ATOM     22  S   UNL     1       0.771  -2.903   2.683  0.00  0.00    +0.062 S 
ATOM     23  O   UNL     1       0.331  -2.066   3.743  0.00  0.00    -0.153 OA
ATOM     24  O   UNL     1       0.310  -4.238   2.524  0.00  0.00    -0.153 OA
BRANCH  22  25
ATOM     25  N   UNL     1       2.421  -2.984   2.796  0.00  0.00    -0.192 NA
ATOM     26  H   UNL     1       2.868  -3.844   2.766  0.00  0.00    +0.148 HD
BRANCH  25  27
ATOM     27  C   UNL     1       3.206  -1.755   2.944  0.00  0.00    +0.087 C 
BRANCH  27  28
ATOM     28  C   UNL     1       4.625  -2.108   3.396  0.00  0.00    -0.062 C 
BRANCH  28  29
ATOM     29  N   UNL     1       5.412  -0.876   3.543  0.00  0.00    +0.381 N 
ATOM     30  C   UNL     1       5.561  -0.233   2.233  0.00  0.00    -0.079 C 
ATOM     31  C   UNL     1       6.311   1.092   2.393  0.00  0.00    -0.016 C 
ATOM     32  C   UNL     1       7.694   0.820   2.991  0.00  0.00    -0.018 C 
ATOM     33  C   UNL     1       7.527   0.083   4.323  0.00  0.00    -0.016 C 
ATOM     34  C   UNL     1       6.733  -1.204   4.091  0.00  0.00    -0.079 C 
ATOM     35  C   UNL     1       8.418   2.147   3.228  0.00  0.00    +0.007 C 
ATOM     36  H   UNL     1       4.935  -0.247   4.172  0.00  0.00    -0.082 HD
ENDBRANCH  28  29
ENDBRANCH  27  28
ENDBRANCH  25  27
ENDBRANCH  22  25
ENDBRANCH   9  22
TORSDOF 6
