REMARK  Name = ZINC59015595
REMARK  7 active torsions:
REMARK  status: ('A' for Active; 'I' for Inactive)
REMARK    1  A    between atoms: C_6  and  C_7
REMARK    2  A    between atoms: N_8  and  N_9
REMARK    3  A    between atoms: C_12  and  S_15
REMARK    4  A    between atoms: S_15  and  C_16
REMARK    5  A    between atoms: C_16  and  C_17
REMARK    6  A    between atoms: N_19  and  C_20
REMARK    7  A    between atoms: C_21  and  C_28
REMARK                            x       y       z     vdW  Elec       q    Type
REMARK                         _______ _______ _______ _____ _____    ______ ____
ROOT
ATOM      1  N   UNL     1      -2.444  -2.780   0.011  0.00  0.00    -0.205 N 
ATOM      2  C   UNL     1      -2.421  -4.162   0.004  0.00  0.00    +0.232 A 
ATOM      3  N   UNL     1      -1.344  -4.919  -0.005  0.00  0.00    -0.186 NA
ATOM      4  C   UNL     1      -1.700  -6.208  -0.010  0.00  0.00    +0.211 A 
ATOM      5  N   UNL     1      -3.009  -6.289  -0.004  0.00  0.00    -0.144 NA
ATOM      6  N   UNL     1      -3.500  -4.974   0.010  0.00  0.00    -0.245 N 
ATOM      7  H   UNL     1      -3.291  -2.308   0.022  0.00  0.00    +0.177 HD
ATOM      8  H   UNL     1      -4.431  -4.702   0.021  0.00  0.00    +0.192 HD
ENDROOT
BRANCH   1  10
ATOM      9  C   UNL     1      -1.263  -0.762   0.011  0.00  0.00    +0.138 C 
ATOM     10  N   UNL     1      -1.242  -2.060   0.003  0.00  0.00    -0.188 NA
BRANCH   9  16
ATOM     11  C   UNL     1      -0.017   1.393   0.010  0.00  0.00    +0.010 A 
ATOM     12  C   UNL     1       1.170   2.095   0.002  0.00  0.00    +0.016 A 
ATOM     13  C   UNL     1       2.378   1.419  -0.013  0.00  0.00    +0.018 A 
ATOM     14  C   UNL     1       2.404   0.035  -0.021  0.00  0.00    +0.016 A 
ATOM     15  C   UNL     1       1.225  -0.680  -0.014  0.00  0.00    +0.010 A 
ATOM     16  C   UNL     1       0.002  -0.004   0.002  0.00  0.00    -0.005 A 
ATOM     17 BR   UNL     1       4.000   2.391  -0.024  0.00  0.00    -0.050 Br
ENDBRANCH   9  16
ENDBRANCH   1  10
BRANCH   4  18
ATOM     18  S   UNL     1      -0.590  -7.577  -0.022  0.00  0.00    -0.075 S 
BRANCH  18  19
ATOM     19  C   UNL     1      -1.680  -9.026  -0.024  0.00  0.00    +0.173 C 
BRANCH  19  20
ATOM     20  C   UNL     1      -0.847 -10.282  -0.035  0.00  0.00    +0.228 C 
ATOM     21  O   UNL     1       0.364 -10.206  -0.041  0.00  0.00    -0.275 OA
ATOM     22  N   UNL     1      -1.446 -11.489  -0.038  0.00  0.00    -0.278 N 
ATOM     23  H   UNL     1      -2.414 -11.549  -0.033  0.00  0.00    +0.155 HD
BRANCH  22  24
ATOM     24  C   UNL     1      -0.678 -12.645  -0.048  0.00  0.00    +0.090 A 
ATOM     25  C   UNL     1      -1.116 -13.956  -0.058  0.00  0.00    +0.084 A 
ATOM     26  C   UNL     1      -0.097 -15.003  -0.067  0.00  0.00    -0.018 A 
ATOM     27  C   UNL     1       1.166 -14.539  -0.063  0.00  0.00    -0.004 A 
ATOM     28  S   UNL     1       0.994 -12.773  -0.058  0.00  0.00    -0.077 S 
ATOM     29  C   UNL     1       2.174 -15.657  -0.068  0.00  0.00    +0.043 C 
ATOM     30  C   UNL     1       1.372 -16.907   0.357  0.00  0.00    +0.010 C 
ATOM     31  C   UNL     1      -0.057 -16.529  -0.083  0.00  0.00    +0.037 C 
BRANCH  25  32
ATOM     32  C   UNL     1      -2.512 -14.274  -0.058  0.00  0.00    +0.102 C 
ATOM     33  N   UNL     1      -3.620 -14.527  -0.059  0.00  0.00    -0.191 NA
ENDBRANCH  25  32
ENDBRANCH  22  24
ENDBRANCH  19  20
ENDBRANCH  18  19
ENDBRANCH   4  18
TORSDOF 7
