REMARK  Name = ZINC04454767
REMARK  8 active torsions:
REMARK  status: ('A' for Active; 'I' for Inactive)
REMARK    1  A    between atoms: C_1  and  C_2
REMARK    2  A    between atoms: C_2  and  C_27
REMARK    3  A    between atoms: C_6  and  C_14
REMARK    4  A    between atoms: C_8  and  C_12
REMARK    5  A    between atoms: C_9  and  N_11
REMARK    6  A    between atoms: C_17  and  O_20
REMARK    7  A    between atoms: O_20  and  C_21
REMARK    8  A    between atoms: C_21  and  C_22
REMARK                            x       y       z     vdW  Elec       q    Type
REMARK                         _______ _______ _______ _____ _____    ______ ____
ROOT
ATOM      1  C   UNL     1       0.499   5.681  -3.464  0.00  0.00    +0.012 C 
ATOM      2  C   UNL     1       1.936   6.184  -3.617  0.00  0.00    -0.021 C 
ATOM      3  C   UNL     1       2.330   6.998  -2.383  0.00  0.00    +0.081 C 
ATOM      4  C   UNL     1       2.258   6.124  -1.153  0.00  0.00    +0.115 C 
ATOM      5  C   UNL     1       2.510   4.804  -1.233  0.00  0.00    +0.046 C 
ATOM      6  C   UNL     1       2.452   3.935  -0.000  0.00  0.00    +0.101 C 
ATOM      7  C   UNL     1       2.532   4.788   1.235  0.00  0.00    +0.098 C 
ATOM      8  C   UNL     1       2.273   6.114   1.173  0.00  0.00    +0.198 C 
ATOM      9  O   UNL     1       1.934   6.706   0.017  0.00  0.00    -0.445 OA
ATOM     10  C   UNL     1       2.833   4.194  -2.460  0.00  0.00    +0.164 C 
ATOM     11  O   UNL     1       3.070   3.003  -2.490  0.00  0.00    -0.292 OA
ATOM     12  C   UNL     1       2.889   4.990  -3.736  0.00  0.00    +0.086 C 
ATOM     13  C   UNL     1       2.043   7.059  -4.867  0.00  0.00    +0.012 C 
ENDROOT
BRANCH   6  14
ATOM     14  C   UNL     1       1.156   3.166   0.007  0.00  0.00    -0.034 A 
ATOM     15  C   UNL     1       1.174   1.783   0.000  0.00  0.00    +0.008 A 
ATOM     16  C   UNL     1      -0.013   1.076   0.008  0.00  0.00    +0.046 A 
ATOM     17  C   UNL     1      -1.223   1.754   0.017  0.00  0.00    +0.122 A 
ATOM     18  C   UNL     1      -1.238   3.141   0.029  0.00  0.00    +0.046 A 
ATOM     19  C   UNL     1      -0.049   3.844   0.022  0.00  0.00    +0.008 A 
BRANCH  17  20
ATOM     20  O   UNL     1      -2.392   1.060   0.020  0.00  0.00    -0.480 OA
BRANCH  20  21
ATOM     21  C   UNL     1      -3.599   1.824   0.029  0.00  0.00    +0.317 C 
BRANCH  21  22
ATOM     22  C   UNL     1      -4.756   0.913   0.030  0.00  0.00    -0.065 C 
ATOM     23  C   UNL     1      -5.678   0.186   0.031  0.00  0.00    +0.007 C 
ENDBRANCH  21  22
ENDBRANCH  20  21
ENDBRANCH  17  20
ENDBRANCH   6  14
BRANCH   8  24
ATOM     24  N   UNL     1       2.358   6.871   2.315  0.00  0.00    -0.328 N 
ATOM     25  H   UNL     1       2.173   7.823   2.281  0.00  0.00    +0.145 HD
ATOM     26  H   UNL     1       2.602   6.454   3.156  0.00  0.00    +0.145 HD
ENDBRANCH   8  24
BRANCH   7  27
ATOM     27  C   UNL     1       2.886   4.194   2.489  0.00  0.00    +0.101 C 
ATOM     28  N   UNL     1       3.167   3.723   3.483  0.00  0.00    -0.191 NA
ENDBRANCH   7  27
TORSDOF 6
