REMARK  Name = ZINC13063681
REMARK  14 active torsions:
REMARK  status: ('A' for Active; 'I' for Inactive)
REMARK    1  A    between atoms: C_1  and  C_2
REMARK    2  A    between atoms: C_2  and  C_3
REMARK    3  A    between atoms: C_10  and  C_15
REMARK    4  A    between atoms: C_15  and  N_73
REMARK    5  A    between atoms: C_16  and  C_17
REMARK    6  A    between atoms: C_16  and  N_73
REMARK    7  A    between atoms: C_20  and  O_23
REMARK    8  A    between atoms: O_23  and  C_24
REMARK    9  A    between atoms: C_25  and  C_27
REMARK   10  A    between atoms: C_25  and  C_29
REMARK   11  A    between atoms: C_25  and  N_73
REMARK   12  A    between atoms: C_27  and  C_28
REMARK   13  A    between atoms: N_33  and  C_34
REMARK   14  A    between atoms: C_34  and  C_35
REMARK                            x       y       z     vdW  Elec       q    Type
REMARK                         _______ _______ _______ _____ _____    ______ ____
ROOT
ATOM      1  N   UNL     1      -0.942  -0.129  -0.906  0.00  0.00    +0.392 N 
ATOM      2  H   UNL     1      -1.097   0.749  -0.397  0.00  0.00    -0.080 HD
ENDROOT
BRANCH   1   3
ATOM      3  C   UNL     1      -2.135  -0.989  -0.757  0.00  0.00    -0.036 C 
BRANCH   3  11
ATOM      4  C   UNL     1      -6.737   1.053  -4.355  0.00  0.00    -0.047 A 
ATOM      5  C   UNL     1      -7.292   1.917  -3.421  0.00  0.00    +0.005 A 
ATOM      6  C   UNL     1      -6.742   2.043  -2.164  0.00  0.00    +0.026 A 
ATOM      7  C   UNL     1      -5.616   1.299  -1.826  0.00  0.00    +0.049 A 
ATOM      8  C   UNL     1      -5.055   0.425  -2.775  0.00  0.00    -0.001 A 
ATOM      9  C   UNL     1      -5.632   0.312  -4.045  0.00  0.00    +0.013 A 
ATOM     10  C   UNL     1      -3.867  -0.350  -2.411  0.00  0.00    +0.017 A 
ATOM     11  C   UNL     1      -3.354  -0.203  -1.165  0.00  0.00    +0.001 A 
ATOM     12  C   UNL     1      -3.955   0.688  -0.250  0.00  0.00    +0.251 A 
ATOM     13  O   UNL     1      -3.476   0.808   0.864  0.00  0.00    -0.268 OA
ATOM     14  N   UNL     1      -5.044   1.407  -0.576  0.00  0.00    -0.322 N 
ATOM     15  H   UNL     1      -5.432   2.010   0.077  0.00  0.00    +0.169 HD
BRANCH   4  17
ATOM     16  C   UNL     1      -8.415  -0.173  -5.706  0.00  0.00    +0.009 C 
ATOM     17  C   UNL     1      -7.357   0.932  -5.722  0.00  0.00    +0.032 C 
ENDBRANCH   4  17
ENDBRANCH   3  11
ENDBRANCH   1   3
BRANCH   1  18
ATOM     18  C   UNL     1      -0.715   0.177  -2.334  0.00  0.00    -0.042 C 
BRANCH  18  19
ATOM     19  C   UNL     1      -0.827   1.668  -2.524  0.00  0.00    -0.064 A 
ATOM     20  C   UNL     1      -2.067   2.249  -2.710  0.00  0.00    +0.005 A 
ATOM     21  C   UNL     1      -2.173   3.616  -2.879  0.00  0.00    +0.046 A 
ATOM     22  C   UNL     1      -1.032   4.404  -2.874  0.00  0.00    +0.120 A 
ATOM     23  C   UNL     1       0.212   3.818  -2.692  0.00  0.00    +0.046 A 
ATOM     24  C   UNL     1       0.312   2.452  -2.518  0.00  0.00    +0.005 A 
BRANCH  22  25
ATOM     25  O   UNL     1      -1.133   5.749  -3.045  0.00  0.00    -0.495 OA
ATOM     26  C   UNL     1      -2.451   6.297  -3.116  0.00  0.00    +0.277 C 
ENDBRANCH  22  25
ENDBRANCH  18  19
ENDBRANCH   1  18
BRANCH   1  27
ATOM     27  C   UNL     1       0.243  -0.808  -0.340  0.00  0.00    +0.003 C 
BRANCH  27  28
ATOM     28  C   UNL     1       0.509  -2.101  -1.068  0.00  0.00    +0.138 A 
ATOM     29  N   UNL     1       0.257  -2.356  -2.328  0.00  0.00    -0.115 NA
ATOM     30  N   UNL     1       0.626  -3.566  -2.571  0.00  0.00    -0.023 NA
ATOM     31  N   UNL     1       1.101  -4.092  -1.497  0.00  0.00    -0.044 NA
ATOM     32  N   UNL     1       1.045  -3.220  -0.547  0.00  0.00    -0.226 N 
BRANCH  32  33
ATOM     33  C   UNL     1       1.484  -3.413   0.838  0.00  0.00    +0.182 C 
BRANCH  33  34
ATOM     34  C   UNL     1       0.336  -3.940   1.659  0.00  0.00    -0.026 A 
ATOM     35  C   UNL     1      -0.517  -3.061   2.300  0.00  0.00    +0.005 A 
ATOM     36  C   UNL     1      -1.573  -3.544   3.050  0.00  0.00    +0.000 A 
ATOM     37  C   UNL     1      -1.770  -4.907   3.167  0.00  0.00    +0.000 A 
ATOM     38  C   UNL     1      -0.915  -5.787   2.530  0.00  0.00    +0.000 A 
ATOM     39  C   UNL     1       0.138  -5.303   1.776  0.00  0.00    +0.005 A 
ENDBRANCH  33  34
ENDBRANCH  32  33
ENDBRANCH  27  28
BRANCH  27  40
ATOM     40  C   UNL     1       1.457   0.113  -0.479  0.00  0.00    -0.011 C 
ATOM     41  C   UNL     1       1.211   1.402   0.308  0.00  0.00    +0.002 C 
ENDBRANCH  27  40
ENDBRANCH   1  27
TORSDOF 11
