REMARK  Name = ZINC19014955
REMARK  4 active torsions:
REMARK  status: ('A' for Active; 'I' for Inactive)
REMARK    1  A    between atoms: N_11  and  C_12
REMARK    2  A    between atoms: N_15  and  C_18
REMARK    3  A    between atoms: C_18  and  N_20
REMARK    4  A    between atoms: N_20  and  C_21
REMARK                            x       y       z     vdW  Elec       q    Type
REMARK                         _______ _______ _______ _____ _____    ______ ____
ROOT
ATOM      1  C   UNL     1      -1.854   3.152   0.045  0.00  0.00    +0.095 C 
ATOM      2  C   UNL     1      -2.687   3.382   1.308  0.00  0.00    +0.044 C 
ATOM      3  C   UNL     1      -3.174   4.835   1.337  0.00  0.00    +0.109 C 
ATOM      4  N   UNL     1      -3.886   5.119   0.084  0.00  0.00    -0.313 N 
ATOM      5  C   UNL     1      -3.209   4.847  -1.192  0.00  0.00    +0.109 C 
ATOM      6  C   UNL     1      -2.722   3.394  -1.191  0.00  0.00    +0.044 C 
ENDROOT
BRANCH   1  17
ATOM      7  C   UNL     1       2.392   0.028  -0.018  0.00  0.00    +0.002 A 
ATOM      8  C   UNL     1       2.374   1.413  -0.012  0.00  0.00    +0.002 A 
ATOM      9  C   UNL     1       1.173   2.094   0.002  0.00  0.00    +0.028 A 
ATOM     10  C   UNL     1      -0.020   1.388   0.011  0.00  0.00    +0.070 A 
ATOM     11  C   UNL     1      -0.003  -0.008   0.004  0.00  0.00    +0.067 A 
ATOM     12  C   UNL     1       1.208  -0.683  -0.010  0.00  0.00    +0.028 A 
ATOM     13  N   UNL     1      -1.331  -0.428   0.016  0.00  0.00    -0.306 N 
ATOM     14  H   UNL     1      -1.635  -1.349   0.015  0.00  0.00    +0.170 HD
ATOM     15  C   UNL     1      -2.120   0.663   0.029  0.00  0.00    +0.328 A 
ATOM     16  O   UNL     1      -3.337   0.647   0.041  0.00  0.00    -0.247 OA
ATOM     17  N   UNL     1      -1.359   1.773   0.032  0.00  0.00    -0.289 N 
ENDBRANCH   1  17
BRANCH   4  18
ATOM     18  C   UNL     1      -5.137   5.619   0.104  0.00  0.00    +0.133 C 
ATOM     19  S   UNL     1      -5.904   6.067  -1.360  0.00  0.00    -0.019 S 
BRANCH  18  20
ATOM     20  N   UNL     1      -5.785   5.768   1.276  0.00  0.00    -0.324 N 
ATOM     21  H   UNL     1      -5.326   5.584   2.111  0.00  0.00    +0.148 HD
BRANCH  20  22
ATOM     22  C   UNL     1      -7.183   6.207   1.291  0.00  0.00    +0.072 C 
ATOM     23  C   UNL     1      -7.238   7.735   1.235  0.00  0.00    +0.022 C 
ATOM     24  C   UNL     1      -8.697   8.194   1.250  0.00  0.00    +0.002 C 
ATOM     25  C   UNL     1      -9.372   7.706   2.533  0.00  0.00    +0.000 C 
ATOM     26  C   UNL     1      -9.317   6.178   2.590  0.00  0.00    +0.002 C 
ATOM     27  C   UNL     1      -7.857   5.719   2.574  0.00  0.00    +0.022 C 
ENDBRANCH  20  22
ENDBRANCH  18  20
ENDBRANCH   4  18
TORSDOF 4
