REMARK  Name = ZINC63694307
REMARK  6 active torsions:
REMARK  status: ('A' for Active; 'I' for Inactive)
REMARK    1  A    between atoms: C_6  and  C_10
REMARK    2  A    between atoms: C_10  and  C_11
REMARK    3  A    between atoms: C_11  and  N_12
REMARK    4  A    between atoms: C_13  and  C_15
REMARK    5  A    between atoms: C_18  and  C_30
REMARK    6  A    between atoms: N_20  and  C_22
REMARK                            x       y       z     vdW  Elec       q    Type
REMARK                         _______ _______ _______ _____ _____    ______ ____
ROOT
ATOM      1  N   UNL     1       3.451  -4.913  -2.507  0.00  0.00    -0.314 N 
ATOM      2  C   UNL     1       3.108  -6.200  -2.713  0.00  0.00    +0.231 C 
ATOM      3  O   UNL     1       2.420  -6.782  -1.901  0.00  0.00    -0.274 OA
ATOM      4  H   UNL     1       4.000  -4.448  -3.157  0.00  0.00    +0.149 HD
ENDROOT
BRANCH   2   5
ATOM      5  C   UNL     1       3.578  -6.917  -3.953  0.00  0.00    +0.157 C 
ATOM      6  C   UNL     1       5.021  -7.438  -3.766  0.00  0.00    +0.050 C 
ATOM      7  C   UNL     1       5.026  -8.817  -4.457  0.00  0.00    +0.078 C 
ATOM      8  N   UNL     1       3.661  -8.999  -5.001  0.00  0.00    -0.234 NA
ATOM      9  N   UNL     1       2.784  -8.154  -4.176  0.00  0.00    -0.241 NA
ATOM     10  H   UNL     1       2.568  -8.607  -3.300  0.00  0.00    +0.142 HD
BRANCH   8  11
ATOM     11  C   UNL     1       3.251 -10.408  -4.934  0.00  0.00    +0.096 C 
ATOM     12  C   UNL     1       1.816 -10.557  -5.467  0.00  0.00    +0.044 C 
ATOM     13  C   UNL     1       1.263 -11.957  -5.108  0.00  0.00    +0.167 C 
ATOM     14  S   UNL     1       2.182 -12.373  -3.571  0.00  0.00    -0.029 S 
ATOM     15  O   UNL     1       2.986 -13.520  -3.808  0.00  0.00    -0.174 OA
ATOM     16  O   UNL     1       1.277 -12.369  -2.475  0.00  0.00    -0.174 OA
ATOM     17  C   UNL     1       3.270 -10.891  -3.456  0.00  0.00    +0.186 C 
ENDBRANCH   8  11
BRANCH   7  18
ATOM     18  C   UNL     1       6.055  -8.837  -5.589  0.00  0.00    +0.008 C 
ATOM     19  C   UNL     1       7.042 -10.005  -5.625  0.00  0.00    +0.005 C 
ATOM     20  C   UNL     1       7.521  -8.611  -5.215  0.00  0.00    +0.005 C 
ENDBRANCH   7  18
ENDBRANCH   2   5
BRANCH   1  21
ATOM     21  C   UNL     1       2.994  -4.218  -1.302  0.00  0.00    +0.108 C 
BRANCH  21  22
ATOM     22  C   UNL     1       3.518  -2.780  -1.313  0.00  0.00    +0.065 C 
BRANCH  22  28
ATOM     23  C   UNL     1      -0.048   1.351  -0.029  0.00  0.00    +0.002 A 
ATOM     24  C   UNL     1       1.126   2.126  -0.031  0.00  0.00    +0.002 A 
ATOM     25  C   UNL     1       2.358   1.578  -0.038  0.00  0.00    +0.027 A 
ATOM     26  C   UNL     1       2.501   0.116  -0.044  0.00  0.00    +0.060 A 
ATOM     27  N   UNL     1       3.538  -0.672  -0.051  0.00  0.00    -0.363 N 
ATOM     28  C   UNL     1       3.041  -2.053  -0.054  0.00  0.00    +0.175 C 
ATOM     29  N   UNL     1       1.575  -1.966  -0.048  0.00  0.00    -0.363 N 
ATOM     30  C   UNL     1       1.259  -0.704  -0.042  0.00  0.00    +0.060 A 
ATOM     31  C   UNL     1      -0.029   0.003  -0.034  0.00  0.00    +0.027 A 
ATOM     32  H   UNL     1       4.468  -0.396  -0.054  0.00  0.00    +0.162 HD
ATOM     33  H   UNL     1       0.956  -2.713  -0.048  0.00  0.00    +0.162 HD
ENDBRANCH  22  28
ENDBRANCH  21  22
ENDBRANCH   1  21
TORSDOF 6
