REMARK  Name = ZINC06768475
REMARK  4 active torsions:
REMARK  status: ('A' for Active; 'I' for Inactive)
REMARK    1  A    between atoms: C_5  and  C_7
REMARK    2  A    between atoms: C_8  and  N_18
REMARK    3  A    between atoms: C_13  and  C_16
REMARK    4  A    between atoms: N_18  and  C_19
REMARK                            x       y       z     vdW  Elec       q    Type
REMARK                         _______ _______ _______ _____ _____    ______ ____
ROOT
ATOM      1  C   UNL     1       1.250  -2.160  -0.023  0.00  0.00    +0.091 A 
ATOM      2  C   UNL     1       2.352  -2.936  -0.127  0.00  0.00    +0.147 A 
ATOM      3  N   UNL     1       1.954  -4.260  -0.095  0.00  0.00    -0.199 N 
ATOM      4  C   UNL     1       0.603  -4.294   0.029  0.00  0.00    +0.154 A 
ATOM      5  N   UNL     1       0.145  -3.004   0.082  0.00  0.00    -0.336 N 
ATOM      6  H   UNL     1      -0.781  -2.727   0.173  0.00  0.00    +0.167 HD
ATOM      7  C   UNL     1       0.226  -5.639   0.059  0.00  0.00    +0.114 A 
ATOM      8  C   UNL     1       1.410  -6.400  -0.053  0.00  0.00    +0.156 A 
ATOM      9  N   UNL     1       2.421  -5.579  -0.143  0.00  0.00    -0.170 NA
ENDROOT
BRANCH   1  14
ATOM     10  C   UNL     1       1.758   1.414  -1.057  0.00  0.00    +0.001 A 
ATOM     11  C   UNL     1       1.171   2.088   0.000  0.00  0.00    +0.003 A 
ATOM     12  C   UNL     1       0.609   1.384   1.051  0.00  0.00    +0.039 A 
ATOM     13  C   UNL     1       0.631   0.003   1.051  0.00  0.00    +0.133 A 
ATOM     14  C   UNL     1       1.222  -0.683  -0.015  0.00  0.00    +0.037 A 
ATOM     15  C   UNL     1       1.786   0.035  -1.071  0.00  0.00    +0.013 A 
ATOM     16  F   UNL     1       0.082  -0.683   2.077  0.00  0.00    -0.205 F 
ENDBRANCH   1  14
BRANCH   7  17
ATOM     17  C   UNL     1      -1.107  -6.149   0.181  0.00  0.00    +0.104 C 
ATOM     18  N   UNL     1      -2.164  -6.553   0.278  0.00  0.00    -0.191 NA
ENDBRANCH   7  17
BRANCH   2  19
ATOM     19  N   UNL     1       3.664  -2.481  -0.248  0.00  0.00    -0.324 N 
ATOM     20  H   UNL     1       3.855  -1.532  -0.189  0.00  0.00    +0.148 HD
BRANCH  19  21
ATOM     21  C   UNL     1       4.754  -3.435  -0.463  0.00  0.00    +0.072 C 
ATOM     22  C   UNL     1       5.224  -3.986   0.885  0.00  0.00    +0.022 C 
ATOM     23  C   UNL     1       6.363  -4.982   0.660  0.00  0.00    +0.002 C 
ATOM     24  C   UNL     1       7.528  -4.277  -0.037  0.00  0.00    +0.000 C 
ATOM     25  C   UNL     1       7.058  -3.727  -1.385  0.00  0.00    +0.002 C 
ATOM     26  C   UNL     1       5.919  -2.730  -1.160  0.00  0.00    +0.022 C 
ENDBRANCH  19  21
ENDBRANCH   2  19
TORSDOF 4
