REMARK  Name = ZINC39012423
REMARK  5 active torsions:
REMARK  status: ('A' for Active; 'I' for Inactive)
REMARK    1  A    between atoms: C_4  and  C_8
REMARK    2  A    between atoms: C_8  and  S_9
REMARK    3  A    between atoms: S_9  and  C_10
REMARK    4  A    between atoms: C_13  and  C_17
REMARK    5  A    between atoms: N_15  and  N_16
REMARK                            x       y       z     vdW  Elec       q    Type
REMARK                         _______ _______ _______ _____ _____    ______ ____
ROOT
ATOM      1  C   UNL     1       5.788  -1.866   1.476  0.00  0.00    +0.189 C 
ATOM      2  N   UNL     1       6.317  -2.157   0.337  0.00  0.00    -0.161 NA
ATOM      3  N   UNL     1       7.532  -2.837   0.493  0.00  0.00    -0.243 N 
ATOM      4  C   UNL     1       7.745  -2.964   1.946  0.00  0.00    +0.222 C 
ATOM      5  N   UNL     1       6.569  -2.303   2.536  0.00  0.00    -0.223 N 
ATOM      6  H   UNL     1       8.114  -3.159  -0.212  0.00  0.00    +0.170 HD
ENDROOT
BRANCH   4   7
ATOM      7  C   UNL     1       7.803  -4.438   2.352  0.00  0.00    +0.197 C 
ATOM      8  C   UNL     1       8.995  -5.124   1.716  0.00  0.00    -0.017 C 
ATOM      9  C   UNL     1       8.468  -6.075   0.948  0.00  0.00    +0.065 C 
ATOM     10  C   UNL     1       9.575  -6.844   0.249  0.00  0.00    +0.057 C 
ATOM     11  C   UNL     1      10.826  -5.947   0.370  0.00  0.00    +0.011 C 
ATOM     12  C   UNL     1      10.499  -5.123   1.637  0.00  0.00    +0.035 C 
ATOM     13  N   UNL     1       7.111  -6.047   1.041  0.00  0.00    -0.158 NA
ATOM     14  N   UNL     1       6.659  -5.178   1.794  0.00  0.00    -0.176 NA
ENDBRANCH   4   7
BRANCH   5  15
ATOM     15  N   UNL     1       6.299  -2.151   3.866  0.00  0.00    -0.250 NA
ATOM     16  H   UNL     1       5.427  -1.664   4.005  0.00  0.00    +0.141 HD
ATOM     17  H   UNL     1       6.295  -3.043   4.338  0.00  0.00    +0.141 HD
ENDBRANCH   5  15
BRANCH   1  18
ATOM     18  S   UNL     1       4.258  -1.011   1.665  0.00  0.00    -0.083 S 
BRANCH  18  19
ATOM     19  C   UNL     1       3.713  -0.707  -0.038  0.00  0.00    +0.115 C 
BRANCH  19  23
ATOM     20  C   UNL     1      -0.017   1.378   0.010  0.00  0.00    +0.003 A 
ATOM     21  C   UNL     1       1.171   2.086   0.002  0.00  0.00    +0.020 A 
ATOM     22  C   UNL     1       2.378   1.411  -0.013  0.00  0.00    +0.046 A 
ATOM     23  C   UNL     1       2.398   0.028  -0.021  0.00  0.00    -0.001 A 
ATOM     24  C   UNL     1       1.209  -0.680  -0.013  0.00  0.00    +0.046 A 
ATOM     25  C   UNL     1       0.002  -0.004   0.002  0.00  0.00    +0.020 A 
ATOM     26 CL   UNL     1       1.233  -2.416  -0.023  0.00  0.00    -0.083 Cl
ATOM     27 CL   UNL     1       3.869   2.300  -0.024  0.00  0.00    -0.083 Cl
ENDBRANCH  19  23
ENDBRANCH  18  19
ENDBRANCH   1  18
TORSDOF 5
