REMARK  Name = ZINC13682090
REMARK  5 active torsions:
REMARK  status: ('A' for Active; 'I' for Inactive)
REMARK    1  A    between atoms: C_1  and  C_2
REMARK    2  A    between atoms: C_2  and  C_32
REMARK    3  A    between atoms: C_11  and  C_25
REMARK    4  A    between atoms: N_16  and  C_17
REMARK    5  A    between atoms: C_17  and  C_18
REMARK                            x       y       z     vdW  Elec       q    Type
REMARK                         _______ _______ _______ _____ _____    ______ ____
ROOT
ATOM      1  C   UNL     1       1.449   3.529  -0.229  0.00  0.00    +0.041 C 
ATOM      2  C   UNL     1       1.431   2.017  -0.001  0.00  0.00    +0.068 C 
ATOM      3  C   UNL     1      -0.019   1.522   0.010  0.00  0.00    +0.071 C 
ATOM      4  C   UNL     1       0.002  -0.004   0.002  0.00  0.00    -0.020 A 
ATOM      5  C   UNL     1       1.130  -0.653  -0.368  0.00  0.00    +0.021 A 
ATOM      6  S   UNL     1       0.728  -2.371  -0.236  0.00  0.00    -0.073 S 
ATOM      7  C   UNL     1      -0.952  -2.206   0.313  0.00  0.00    +0.096 A 
ATOM      8  C   UNL     1      -1.144  -0.826   0.376  0.00  0.00    +0.054 A 
ATOM      9  C   UNL     1      -2.494  -0.396   0.815  0.00  0.00    +0.172 A 
ATOM     10  N   UNL     1      -3.033   0.791   0.991  0.00  0.00    -0.203 NA
ATOM     11  C   UNL     1      -4.302   0.649   1.404  0.00  0.00    +0.218 A 
ATOM     12  N   UNL     1      -4.587  -0.634   1.496  0.00  0.00    -0.137 NA
ATOM     13  N   UNL     1      -3.432  -1.339   1.120  0.00  0.00    -0.161 N 
ATOM     14  C   UNL     1      -3.159  -2.651   1.031  0.00  0.00    +0.353 A 
ATOM     15  O   UNL     1      -4.022  -3.461   1.312  0.00  0.00    -0.244 OA
ATOM     16  N   UNL     1      -1.946  -3.087   0.638  0.00  0.00    -0.282 N 
ATOM     17  C   UNL     1       2.419  -0.020  -0.790  0.00  0.00    +0.203 C 
ATOM     18  O   UNL     1       2.165   1.371  -1.044  0.00  0.00    -0.368 OA
ATOM     19  C   UNL     1       2.084   1.702   1.347  0.00  0.00    +0.041 C 
ENDROOT
BRANCH  11  20
ATOM     20  C   UNL     1      -5.232   1.756   1.706  0.00  0.00    +0.173 A 
ATOM     21  C   UNL     1      -6.519   1.625   2.125  0.00  0.00    +0.053 A 
ATOM     22  C   UNL     1      -7.027   2.929   2.291  0.00  0.00    +0.042 A 
ATOM     23  C   UNL     1      -6.035   3.783   1.969  0.00  0.00    +0.196 A 
ATOM     24  O   UNL     1      -4.951   3.071   1.621  0.00  0.00    -0.460 OA
ENDBRANCH  11  20
BRANCH  16  25
ATOM     25  C   UNL     1      -1.690  -4.527   0.555  0.00  0.00    +0.162 C 
BRANCH  25  26
ATOM     26  C   UNL     1      -1.161  -5.020   1.877  0.00  0.00    -0.028 A 
ATOM     27  C   UNL     1       0.200  -5.031   2.117  0.00  0.00    +0.006 A 
ATOM     28  C   UNL     1       0.685  -5.478   3.331  0.00  0.00    +0.015 A 
ATOM     29  C   UNL     1      -0.191  -5.925   4.303  0.00  0.00    +0.018 A 
ATOM     30  C   UNL     1      -1.553  -5.919   4.061  0.00  0.00    +0.015 A 
ATOM     31  C   UNL     1      -2.038  -5.467   2.849  0.00  0.00    +0.006 A 
ATOM     32 BR   UNL     1       0.472  -6.544   5.963  0.00  0.00    -0.050 Br
ENDBRANCH  25  26
ENDBRANCH  16  25
TORSDOF 3
