REMARK  Name = ZINC40554297
REMARK  3 active torsions:
REMARK  status: ('A' for Active; 'I' for Inactive)
REMARK    1  A    between atoms: C_3  and  S_10
REMARK    2  A    between atoms: C_6  and  C_7
REMARK    3  A    between atoms: S_10  and  N_13
REMARK                            x       y       z     vdW  Elec       q    Type
REMARK                         _______ _______ _______ _____ _____    ______ ____
ROOT
ATOM      1  S   UNL     1       3.889   2.325  -0.024  0.00  0.00    +0.061 S 
ATOM      2  O   UNL     1       4.872   1.468  -0.589  0.00  0.00    -0.153 OA
ATOM      3  O   UNL     1       3.592   3.604  -0.565  0.00  0.00    -0.153 OA
ENDROOT
BRANCH   1   4
ATOM      4  N   UNL     1       4.325   2.568   1.555  0.00  0.00    -0.169 NA
ATOM      5  C   UNL     1       3.875   3.757   2.301  0.00  0.00    +0.138 C 
ATOM      6  C   UNL     1       5.089   4.412   2.967  0.00  0.00    +0.177 C 
ATOM      7  O   UNL     1       5.827   3.431   3.704  0.00  0.00    -0.374 OA
ATOM      8  C   UNL     1       6.345   2.380   2.891  0.00  0.00    +0.137 C 
ATOM      9  C   UNL     1       5.170   1.604   2.272  0.00  0.00    +0.109 C 
ATOM     10  C   UNL     1       5.721   0.547   1.318  0.00  0.00    +0.023 C 
ATOM     11  C   UNL     1       6.593  -0.431   2.112  0.00  0.00    +0.002 C 
ATOM     12  C   UNL     1       7.745   0.320   2.779  0.00  0.00    +0.003 C 
ATOM     13  C   UNL     1       7.188   1.406   3.710  0.00  0.00    +0.033 C 
ENDBRANCH   1   4
BRANCH   1  16
ATOM     14  C   UNL     1      -0.017   1.391   0.010  0.00  0.00    +0.015 A 
ATOM     15  C   UNL     1       1.170   2.095   0.002  0.00  0.00    +0.029 A 
ATOM     16  C   UNL     1       2.378   1.419  -0.013  0.00  0.00    +0.106 A 
ATOM     17  C   UNL     1       2.403   0.036  -0.022  0.00  0.00    +0.029 A 
ATOM     18  C   UNL     1       1.224  -0.679  -0.014  0.00  0.00    +0.015 A 
ATOM     19  C   UNL     1       0.002  -0.004   0.002  0.00  0.00    +0.037 A 
BRANCH  19  20
ATOM     20  C   UNL     1      -1.266  -0.764   0.011  0.00  0.00    +0.242 C 
ATOM     21  O   UNL     1      -2.329  -0.173   0.024  0.00  0.00    -0.270 OA
ATOM     22  N   UNL     1      -1.244  -2.111   0.003  0.00  0.00    -0.325 N 
ATOM     23  H   UNL     1      -0.397  -2.583  -0.008  0.00  0.00    +0.145 HD
ATOM     24  H   UNL     1      -2.077  -2.610   0.009  0.00  0.00    +0.145 HD
ENDBRANCH  19  20
ENDBRANCH   1  16
TORSDOF 3
