REMARK  Name = ZINC45681399
REMARK  11 active torsions:
REMARK  status: ('A' for Active; 'I' for Inactive)
REMARK    1  A    between atoms: C_1  and  C_2
REMARK    2  A    between atoms: C_2  and  O_3
REMARK    3  A    between atoms: O_3  and  C_4
REMARK    4  A    between atoms: C_4  and  C_6
REMARK    5  A    between atoms: C_7  and  C_19
REMARK    6  A    between atoms: C_12  and  C_14
REMARK    7  A    between atoms: C_19  and  N_20
REMARK    8  A    between atoms: N_23  and  C_26
REMARK    9  A    between atoms: C_26  and  C_28
REMARK   10  A    between atoms: C_26  and  C_29
REMARK   11  A    between atoms: N_31  and  C_32
REMARK                            x       y       z     vdW  Elec       q    Type
REMARK                         _______ _______ _______ _____ _____    ______ ____
ROOT
ATOM      1  C   UNL     1      -2.685  -2.191   1.824  0.00  0.00    +0.082 C 
ATOM      2  C   UNL     1      -3.017  -3.177   0.964  0.00  0.00    +0.038 C 
ATOM      3  N   UNL     1      -4.300  -3.321   0.519  0.00  0.00    -0.271 N 
ATOM      4  C   UNL     1      -5.308  -2.521   0.887  0.00  0.00    +0.304 C 
ATOM      5  O   UNL     1      -6.418  -2.729   0.437  0.00  0.00    -0.252 OA
ATOM      6  N   UNL     1      -5.133  -1.493   1.740  0.00  0.00    -0.285 N 
ATOM      7  C   UNL     1      -3.785  -1.255   2.283  0.00  0.00    +0.179 C 
ATOM      8  H   UNL     1      -4.491  -4.045  -0.099  0.00  0.00    +0.156 HD
ATOM      9  H   UNL     1      -5.877  -0.925   1.993  0.00  0.00    +0.151 HD
ENDROOT
BRANCH   7  10
ATOM     10  C   UNL     1      -3.382   0.150   1.916  0.00  0.00    +0.130 A 
ATOM     11  C   UNL     1      -2.840   1.056   2.749  0.00  0.00    +0.047 A 
ATOM     12  C   UNL     1      -2.623   2.231   1.992  0.00  0.00    +0.041 A 
ATOM     13  C   UNL     1      -3.046   1.972   0.742  0.00  0.00    +0.195 A 
ATOM     14  O   UNL     1      -3.500   0.709   0.700  0.00  0.00    -0.466 OA
ENDBRANCH   7  10
BRANCH   1  15
ATOM     15  C   UNL     1      -1.356  -2.040   2.286  0.00  0.00    +0.339 C 
ATOM     16  O   UNL     1      -0.513  -2.866   1.994  0.00  0.00    -0.245 OA
BRANCH  15  17
ATOM     17  O   UNL     1      -1.024  -0.979   3.052  0.00  0.00    -0.462 OA
BRANCH  17  19
ATOM     18  C   UNL     1       0.519   0.369   4.333  0.00  0.00    +0.048 C 
ATOM     19  C   UNL     1       0.335  -0.890   3.483  0.00  0.00    +0.229 C 
ENDBRANCH  17  19
ENDBRANCH  15  17
ENDBRANCH   1  15
BRANCH   2  20
ATOM     20  C   UNL     1      -1.954  -4.133   0.486  0.00  0.00    +0.135 C 
BRANCH  20  21
ATOM     21  N   UNL     1      -1.786  -5.210   1.471  0.00  0.00    -0.300 NA
ATOM     22  C   UNL     1      -2.937  -6.124   1.454  0.00  0.00    +0.066 C 
ATOM     23  C   UNL     1      -2.751  -7.194   2.532  0.00  0.00    -0.062 C 
ATOM     24  N   UNL     1      -1.510  -7.936   2.276  0.00  0.00    +0.389 N 
ATOM     25  C   UNL     1      -0.367  -7.015   2.320  0.00  0.00    -0.062 C 
ATOM     26  C   UNL     1      -0.533  -5.943   1.240  0.00  0.00    +0.066 C 
ATOM     27  H   UNL     1      -1.558  -8.368   1.365  0.00  0.00    -0.081 HD
BRANCH  24  28
ATOM     28  C   UNL     1      -1.341  -8.975   3.300  0.00  0.00    +0.016 C 
ATOM     29  C   UNL     1      -0.008  -9.694   3.083  0.00  0.00    -0.004 C 
BRANCH  28  30
ATOM     30  C   UNL     1      -2.470  -9.969   3.200  0.00  0.00    +0.199 C 
ATOM     31  O   UNL     1      -3.169  -9.994   2.209  0.00  0.00    -0.278 OA
ATOM     32  N   UNL     1      -2.702 -10.829   4.210  0.00  0.00    -0.314 N 
ATOM     33  H   UNL     1      -2.143 -10.809   5.003  0.00  0.00    +0.149 HD
BRANCH  32  34
ATOM     34  C   UNL     1      -3.800 -11.795   4.112  0.00  0.00    +0.073 C 
ATOM     35  C   UNL     1      -4.680 -11.992   5.348  0.00  0.00    +0.024 C 
ATOM     36  C   UNL     1      -3.686 -13.079   4.936  0.00  0.00    +0.024 C 
ENDBRANCH  32  34
ENDBRANCH  28  30
ENDBRANCH  24  28
ENDBRANCH  20  21
ENDBRANCH   2  20
TORSDOF 9
