REMARK  Name = ZINC24961043
REMARK  10 active torsions:
REMARK  status: ('A' for Active; 'I' for Inactive)
REMARK    1  A    between atoms: C_1  and  C_2
REMARK    2  A    between atoms: C_4  and  C_34
REMARK    3  A    between atoms: C_5  and  N_9
REMARK    4  A    between atoms: C_6  and  C_8
REMARK    5  A    between atoms: C_10  and  C_12
REMARK    6  A    between atoms: C_12  and  N_13
REMARK    7  A    between atoms: C_14  and  C_16
REMARK    8  A    between atoms: C_16  and  N_17
REMARK    9  A    between atoms: C_20  and  C_24
REMARK   10  A    between atoms: C_20  and  C_25
REMARK                            x       y       z     vdW  Elec       q    Type
REMARK                         _______ _______ _______ _____ _____    ______ ____
ROOT
ATOM      1  C   UNL     1      -0.640   1.229   2.595  0.00  0.00    +0.213 C 
ENDROOT
BRANCH   1   2
ATOM      2  N   UNL     1      -1.781   0.311   2.553  0.00  0.00    -0.215 N 
ATOM      3  C   UNL     1      -2.833   0.449   1.722  0.00  0.00    +0.251 C 
ATOM      4  O   UNL     1      -3.008   1.323   0.901  0.00  0.00    -0.272 OA
ATOM      5  C   UNL     1      -3.752  -0.718   2.028  0.00  0.00    +0.135 C 
ATOM      6  N   UNL     1      -3.048  -1.441   3.101  0.00  0.00    -0.281 N 
ATOM      7  C   UNL     1      -1.909  -0.765   3.337  0.00  0.00    +0.310 C 
ATOM      8  O   UNL     1      -1.089  -1.095   4.171  0.00  0.00    -0.252 OA
ATOM      9  C   UNL     1      -3.922  -1.611   0.798  0.00  0.00    +0.047 C 
ATOM     10  H   UNL     1      -3.491  -2.350   3.533  0.00  0.00    +0.152 HD
BRANCH   5  11
ATOM     11  C   UNL     1      -5.091  -0.224   2.512  0.00  0.00    -0.015 A 
ATOM     12  C   UNL     1      -5.622   0.947   2.003  0.00  0.00    +0.006 A 
ATOM     13  C   UNL     1      -6.849   1.397   2.448  0.00  0.00    +0.004 A 
ATOM     14  C   UNL     1      -7.551   0.680   3.403  0.00  0.00    -0.044 A 
ATOM     15  C   UNL     1      -7.020  -0.491   3.911  0.00  0.00    -0.044 A 
ATOM     16  C   UNL     1      -5.792  -0.944   3.460  0.00  0.00    +0.010 A 
ATOM     17  C   UNL     1      -7.970  -1.083   4.930  0.00  0.00    +0.036 C 
ATOM     18  C   UNL     1      -8.925   0.069   5.309  0.00  0.00    +0.009 C 
ATOM     19  C   UNL     1      -8.894   0.954   4.045  0.00  0.00    +0.036 C 
ENDBRANCH   5  11
ENDBRANCH   1   2
BRANCH   1  21
ATOM     20  N   UNL     1       1.568   1.453   1.503  0.00  0.00    -0.305 N 
ATOM     21  C   UNL     1       0.422   0.756   1.637  0.00  0.00    +0.231 C 
ATOM     22  O   UNL     1       0.244  -0.250   0.983  0.00  0.00    -0.274 OA
ATOM     23  H   UNL     1       1.729   2.365   2.096  0.00  0.00    +0.149 HD
BRANCH  20  24
ATOM     24  C   UNL     1       2.598   0.996   0.567  0.00  0.00    +0.200 C 
BRANCH  24  26
ATOM     25  N   UNL     1       4.843   1.721  -0.177  0.00  0.00    -0.284 N 
ATOM     26  C   UNL     1       3.769   1.943   0.607  0.00  0.00    +0.234 C 
ATOM     27  O   UNL     1       3.745   2.906   1.344  0.00  0.00    -0.274 OA
ATOM     28  H   UNL     1       4.899   0.807  -0.786  0.00  0.00    +0.155 HD
BRANCH  25  33
ATOM     29  C   UNL     1       9.070   5.501  -0.336  0.00  0.00    +0.044 C 
ATOM     30  C   UNL     1       7.947   4.497  -0.294  0.00  0.00    -0.050 A 
ATOM     31  C   UNL     1       6.643   4.911  -0.500  0.00  0.00    +0.008 A 
ATOM     32  C   UNL     1       5.612   3.993  -0.462  0.00  0.00    -0.029 A 
ATOM     33  C   UNL     1       5.885   2.654  -0.216  0.00  0.00    +0.039 A 
ATOM     34  C   UNL     1       7.194   2.243  -0.004  0.00  0.00    -0.029 A 
ATOM     35  C   UNL     1       8.222   3.164  -0.050  0.00  0.00    +0.008 A 
ATOM     36  C   UNL     1       7.495   0.791   0.269  0.00  0.00    +0.045 C 
ATOM     37  C   UNL     1       4.192   4.444  -0.687  0.00  0.00    +0.045 C 
ENDBRANCH  25  33
ENDBRANCH  24  26
ENDBRANCH  20  24
ENDBRANCH   1  21
TORSDOF 6
