REMARK  Name = ZINC64538558
REMARK  10 active torsions:
REMARK  status: ('A' for Active; 'I' for Inactive)
REMARK    1  A    between atoms: C_1  and  C_2
REMARK    2  A    between atoms: C_3  and  C_32
REMARK    3  A    between atoms: N_11  and  C_14
REMARK    4  A    between atoms: C_14  and  C_15
REMARK    5  A    between atoms: C_15  and  C_16
REMARK    6  A    between atoms: N_18  and  C_19
REMARK    7  A    between atoms: C_19  and  C_20
REMARK    8  A    between atoms: C_20  and  C_21
REMARK    9  A    between atoms: C_24  and  O_30
REMARK   10  A    between atoms: O_30  and  C_31
REMARK                            x       y       z     vdW  Elec       q    Type
REMARK                         _______ _______ _______ _____ _____    ______ ____
ROOT
ATOM      1  C   UNL     1       3.070  -1.000   6.312  0.00  0.00    +0.215 C 
ATOM      2  O   UNL     1       4.219  -1.152   5.956  0.00  0.00    -0.276 OA
ATOM      3  N   UNL     1       2.797  -0.689   7.595  0.00  0.00    -0.315 N 
ATOM      4  H   UNL     1       1.878  -0.567   7.880  0.00  0.00    +0.149 HD
ENDROOT
BRANCH   1   5
ATOM      5  C   UNL     1       1.947  -1.158   5.320  0.00  0.00    +0.115 C 
BRANCH   5   6
ATOM      6  C   UNL     1       2.524  -1.509   3.947  0.00  0.00    +0.118 C 
BRANCH   6  15
ATOM      7  C   UNL     1      -0.018   1.503   0.010  0.00  0.00    +0.043 C 
ATOM      8  C   UNL     1       0.002  -0.004   0.002  0.00  0.00    -0.019 C 
ATOM      9  C   UNL     1       0.009  -0.799  -1.065  0.00  0.00    +0.097 C 
ATOM     10  O   UNL     1       0.054  -2.128  -0.734  0.00  0.00    -0.477 OA
ATOM     11  C   UNL     1       0.668  -2.183   0.544  0.00  0.00    +0.259 C 
ATOM     12  C   UNL     1       0.026  -0.915   1.197  0.00  0.00    +0.160 C 
ATOM     13  C   UNL     1       1.012  -0.568   2.281  0.00  0.00    +0.229 C 
ATOM     14  O   UNL     1       1.392   0.562   2.508  0.00  0.00    -0.275 OA
ATOM     15  N   UNL     1       1.433  -1.663   2.983  0.00  0.00    -0.287 N 
ATOM     16  C   UNL     1       0.833  -2.976   2.804  0.00  0.00    +0.195 C 
ATOM     17  N   UNL     1       0.405  -3.289   1.433  0.00  0.00    -0.265 NA
ATOM     18  C   UNL     1      -0.030  -0.293  -2.484  0.00  0.00    +0.085 C 
ATOM     19  H   UNL     1      -0.568  -3.555   1.401  0.00  0.00    +0.127 HD
ENDBRANCH   6  15
ENDBRANCH   5   6
ENDBRANCH   1   5
BRANCH   3  20
ATOM     20  C   UNL     1       3.889  -0.535   8.559  0.00  0.00    +0.108 C 
BRANCH  20  21
ATOM     21  C   UNL     1       3.312  -0.185   9.932  0.00  0.00    +0.052 C 
BRANCH  21  22
ATOM     22  C   UNL     1       4.435  -0.026  10.924  0.00  0.00    -0.040 C 
ATOM     23  C   UNL     1       5.039   1.126  11.291  0.00  0.00    +0.002 A 
ATOM     24  C   UNL     1       4.841   2.524  10.892  0.00  0.00    +0.055 A 
ATOM     25  C   UNL     1       5.616   3.490  11.442  0.00  0.00    +0.121 A 
ATOM     26  C   UNL     1       6.614   3.204  12.390  0.00  0.00    +0.047 A 
ATOM     27  C   UNL     1       6.870   1.950  12.819  0.00  0.00    +0.029 A 
ATOM     28  C   UNL     1       6.091   0.826  12.290  0.00  0.00    +0.043 A 
ATOM     29  N   UNL     1       6.134  -0.461  12.531  0.00  0.00    -0.380 N 
ATOM     30  C   UNL     1       5.110  -1.124  11.716  0.00  0.00    +0.144 C 
ATOM     31  H   UNL     1       6.740  -0.901  13.147  0.00  0.00    +0.160 HD
BRANCH  25  32
ATOM     32  O   UNL     1       5.422   4.781  11.063  0.00  0.00    -0.495 OA
ATOM     33  C   UNL     1       6.261   5.768  11.667  0.00  0.00    +0.277 C 
ENDBRANCH  25  32
ENDBRANCH  21  22
ENDBRANCH  20  21
ENDBRANCH   3  20
TORSDOF 7
