REMARK  Name = ZINC39653339
REMARK  11 active torsions:
REMARK  status: ('A' for Active; 'I' for Inactive)
REMARK    1  A    between atoms: C_1  and  C_2
REMARK    2  A    between atoms: C_2  and  O_3
REMARK    3  A    between atoms: O_3  and  C_4
REMARK    4  A    between atoms: C_6  and  C_12
REMARK    5  A    between atoms: C_9  and  O_10
REMARK    6  A    between atoms: O_10  and  C_11
REMARK    7  A    between atoms: C_12  and  C_13
REMARK    8  A    between atoms: C_13  and  N_14
REMARK    9  A    between atoms: C_15  and  C_17
REMARK   10  A    between atoms: C_28  and  C_30
REMARK   11  A    between atoms: C_30  and  C_36
REMARK                            x       y       z     vdW  Elec       q    Type
REMARK                         _______ _______ _______ _____ _____    ______ ____
ROOT
ATOM      1  C   UNL     1       4.022  -7.445   2.568  0.00  0.00    +0.100 C 
ATOM      2  C   UNL     1       3.640  -8.835   2.012  0.00  0.00    +0.121 C 
ATOM      3  N   UNL     1       4.421  -9.792   2.831  0.00  0.00    -0.300 N 
ATOM      4  C   UNL     1       4.367  -9.234   4.203  0.00  0.00    +0.115 C 
ATOM      5  C   UNL     1       4.498  -7.711   4.006  0.00  0.00    -0.004 C 
ATOM      6  C   UNL     1       3.608  -6.972   5.002  0.00  0.00    -0.010 C 
ATOM      7  C   UNL     1       4.136  -7.204   6.420  0.00  0.00    -0.082 C 
ATOM      8  N   UNL     1       5.519  -6.720   6.516  0.00  0.00    +0.379 N 
ATOM      9  C   UNL     1       6.384  -7.499   5.622  0.00  0.00    -0.082 C 
ATOM     10  C   UNL     1       5.952  -7.279   4.170  0.00  0.00    -0.010 C 
ATOM     11  C   UNL     1       5.042 -10.916   2.420  0.00  0.00    +0.222 C 
ATOM     12  O   UNL     1       5.575 -11.645   3.230  0.00  0.00    -0.275 OA
ATOM     13  H   UNL     1       5.552  -5.747   6.250  0.00  0.00    -0.086 HD
ATOM     14  H   UNL     1       5.843  -6.818   7.466  0.00  0.00    -0.086 HD
ENDROOT
BRANCH  11  15
ATOM     15  C   UNL     1       5.072 -11.268   0.955  0.00  0.00    +0.044 C 
ATOM     16  C   UNL     1       3.642 -11.312   0.412  0.00  0.00    +0.016 C 
ATOM     17  C   UNL     1       2.839 -12.368   1.173  0.00  0.00    +0.001 C 
ATOM     18  C   UNL     1       3.496 -13.738   0.991  0.00  0.00    +0.000 C 
ATOM     19  C   UNL     1       4.925 -13.694   1.534  0.00  0.00    +0.001 C 
ATOM     20  C   UNL     1       5.729 -12.638   0.773  0.00  0.00    +0.016 C 
ATOM     21  C   UNL     1       5.875 -10.212   0.194  0.00  0.00    +0.021 C 
ENDBRANCH  11  15
BRANCH   1  23
ATOM     22  N   UNL     1       2.990  -5.197   2.612  0.00  0.00    -0.315 N 
ATOM     23  C   UNL     1       2.821  -6.534   2.572  0.00  0.00    +0.218 C 
ATOM     24  O   UNL     1       1.704  -7.004   2.539  0.00  0.00    -0.275 OA
ATOM     25  H   UNL     1       3.883  -4.822   2.638  0.00  0.00    +0.149 HD
BRANCH  22  26
ATOM     26  C   UNL     1       1.822  -4.312   2.616  0.00  0.00    +0.109 C 
BRANCH  26  27
ATOM     27  C   UNL     1       2.288  -2.855   2.665  0.00  0.00    +0.054 C 
BRANCH  27  30
ATOM     28  C   UNL     1      -0.588  -0.724   3.875  0.00  0.00    +0.162 A 
ATOM     29  C   UNL     1       0.516  -1.561   3.869  0.00  0.00    +0.053 A 
ATOM     30  C   UNL     1       1.087  -1.944   2.670  0.00  0.00    -0.042 A 
ATOM     31  C   UNL     1       0.558  -1.494   1.474  0.00  0.00    +0.007 A 
ATOM     32  C   UNL     1      -0.542  -0.658   1.473  0.00  0.00    +0.049 A 
ATOM     33  C   UNL     1      -1.123  -0.275   2.671  0.00  0.00    +0.162 A 
BRANCH  33  34
ATOM     34  O   UNL     1      -2.210   0.543   2.672  0.00  0.00    -0.491 OA
ATOM     35  C   UNL     1      -2.705   0.964   1.399  0.00  0.00    +0.277 C 
ENDBRANCH  33  34
BRANCH  28  36
ATOM     36  O   UNL     1      -1.150  -0.346   5.054  0.00  0.00    -0.489 OA
BRANCH  36  38
ATOM     37  C   UNL     1      -1.312  -0.317   7.465  0.00  0.00    +0.048 C 
ATOM     38  C   UNL     1      -0.548  -0.845   6.250  0.00  0.00    +0.226 C 
ENDBRANCH  36  38
ENDBRANCH  28  36
ENDBRANCH  27  30
ENDBRANCH  26  27
ENDBRANCH  22  26
ENDBRANCH   1  23
TORSDOF 8
