REMARK  Name = ZINC21886323
REMARK  3 active torsions:
REMARK  status: ('A' for Active; 'I' for Inactive)
REMARK    1  A    between atoms: C_4  and  C_7
REMARK    2  A    between atoms: C_9  and  C_12
REMARK    3  A    between atoms: C_15  and  C_17
REMARK                            x       y       z     vdW  Elec       q    Type
REMARK                         _______ _______ _______ _____ _____    ______ ____
ROOT
ATOM      1  C   UNL     1       6.676   1.541   1.337  0.00  0.00    +0.060 A 
ATOM      2  C   UNL     1       6.838   0.168   1.404  0.00  0.00    +0.020 A 
ATOM      3  C   UNL     1       5.725  -0.625   1.456  0.00  0.00    +0.021 A 
ATOM      4  C   UNL     1       4.476  -0.021   1.428  0.00  0.00    +0.075 A 
ATOM      5  S   UNL     1       4.899   1.711   1.339  0.00  0.00    -0.080 S 
ENDROOT
BRANCH   4   6
ATOM      6  C   UNL     1       3.149  -0.645   1.467  0.00  0.00    +0.253 C 
ATOM      7  O   UNL     1       2.961  -1.631   2.156  0.00  0.00    -0.269 OA
ATOM      8  N   UNL     1       2.139  -0.128   0.740  0.00  0.00    -0.297 N 
ATOM      9  C   UNL     1       0.824  -0.782   0.714  0.00  0.00    +0.108 C 
ATOM     10  C   UNL     1       0.424  -1.028  -0.744  0.00  0.00    +0.019 C 
ATOM     11  C   UNL     1       0.484   0.293  -1.515  0.00  0.00    +0.003 C 
ATOM     12  C   UNL     1       1.915   0.834  -1.491  0.00  0.00    +0.019 C 
ATOM     13  C   UNL     1       2.333   1.101  -0.041  0.00  0.00    +0.108 C 
ENDBRANCH   4   6
BRANCH   1  16
ATOM     14  C   UNL     1       8.690   4.480   1.179  0.00  0.00    +0.259 A 
ATOM     15  N   UNL     1       7.492   3.928   1.209  0.00  0.00    -0.187 NA
ATOM     16  C   UNL     1       7.710   2.596   1.279  0.00  0.00    +0.209 A 
ATOM     17  N   UNL     1       9.008   2.413   1.279  0.00  0.00    -0.055 NA
ATOM     18  O   UNL     1       9.583   3.479   1.222  0.00  0.00    -0.332 OA
BRANCH  14  22
ATOM     19  C   UNL     1       9.555   8.633   0.965  0.00  0.00    +0.000 A 
ATOM     20  C   UNL     1      10.589   7.715   1.004  0.00  0.00    +0.001 A 
ATOM     21  C   UNL     1      10.315   6.365   1.074  0.00  0.00    +0.013 A 
ATOM     22  C   UNL     1       8.991   5.926   1.104  0.00  0.00    +0.039 A 
ATOM     23  C   UNL     1       7.952   6.856   1.059  0.00  0.00    +0.013 A 
ATOM     24  C   UNL     1       8.240   8.204   0.995  0.00  0.00    +0.001 A 
ENDBRANCH  14  22
ENDBRANCH   1  16
TORSDOF 3
