REMARK  Name = ZINC21265379
REMARK  10 active torsions:
REMARK  status: ('A' for Active; 'I' for Inactive)
REMARK    1  A    between atoms: C_1  and  C_2
REMARK    2  A    between atoms: C_2  and  C_3
REMARK    3  A    between atoms: C_3  and  C_4
REMARK    4  A    between atoms: C_4  and  C_5
REMARK    5  A    between atoms: C_5  and  C_29
REMARK    6  A    between atoms: N_8  and  C_12
REMARK    7  A    between atoms: C_12  and  C_13
REMARK    8  A    between atoms: N_15  and  C_16
REMARK    9  A    between atoms: C_16  and  C_17
REMARK   10  A    between atoms: C_20  and  C_22
REMARK                            x       y       z     vdW  Elec       q    Type
REMARK                         _______ _______ _______ _____ _____    ______ ____
ROOT
ATOM      1  C   UNL     1       1.149   3.593   0.010  0.00  0.00    +0.138 C 
ATOM      2  C   UNL     1       1.028   4.116   1.428  0.00  0.00    +0.251 C 
ATOM      3  O   UNL     1       1.808   3.948   2.340  0.00  0.00    -0.272 OA
ATOM      4  N   UNL     1      -0.128   4.808   1.463  0.00  0.00    -0.215 N 
ATOM      5  C   UNL     1      -0.748   4.794   0.278  0.00  0.00    +0.310 C 
ATOM      6  O   UNL     1      -1.808   5.348   0.063  0.00  0.00    -0.252 OA
ATOM      7  N   UNL     1      -0.067   4.097  -0.650  0.00  0.00    -0.281 N 
ATOM      8  H   UNL     1      -0.253   3.868  -1.710  0.00  0.00    +0.152 HD
ENDROOT
BRANCH   1   9
ATOM      9  C   UNL     1       1.171   2.086   0.002  0.00  0.00    -0.015 A 
ATOM     10  C   UNL     1      -0.017   1.378   0.010  0.00  0.00    +0.009 A 
ATOM     11  C   UNL     1       0.002  -0.004   0.002  0.00  0.00    +0.039 A 
ATOM     12  C   UNL     1       1.211  -0.679  -0.013  0.00  0.00    +0.123 A 
ATOM     13  C   UNL     1       2.399   0.031  -0.021  0.00  0.00    +0.039 A 
ATOM     14  C   UNL     1       2.378   1.413  -0.013  0.00  0.00    +0.009 A 
ATOM     15  F   UNL     1       1.230  -2.030  -0.020  0.00  0.00    -0.205 F 
ENDBRANCH   1   9
BRANCH   1  16
ATOM     16  C   UNL     1       2.401   4.151  -0.668  0.00  0.00    +0.040 C 
BRANCH  16  17
ATOM     17  C   UNL     1       2.354   5.680  -0.646  0.00  0.00    +0.003 C 
BRANCH  17  19
ATOM     18  C   UNL     1       3.559   7.768  -1.303  0.00  0.00    +0.004 C 
ATOM     19  C   UNL     1       3.606   6.239  -1.325  0.00  0.00    -0.003 C 
ENDBRANCH  17  19
ENDBRANCH  16  17
ENDBRANCH   1  16
BRANCH   4  20
ATOM     20  C   UNL     1      -0.643   5.490   2.653  0.00  0.00    +0.213 C 
BRANCH  20  21
ATOM     21  C   UNL     1      -1.514   4.543   3.438  0.00  0.00    +0.231 C 
ATOM     22  O   UNL     1      -1.688   3.409   3.042  0.00  0.00    -0.274 OA
ATOM     23  N   UNL     1      -2.100   4.955   4.579  0.00  0.00    -0.307 N 
ATOM     24  H   UNL     1      -1.943   5.982   4.938  0.00  0.00    +0.149 HD
BRANCH  23  25
ATOM     25  C   UNL     1      -2.947   4.034   5.342  0.00  0.00    +0.178 C 
BRANCH  25  26
ATOM     26  C   UNL     1      -3.477   4.736   6.566  0.00  0.00    +0.123 A 
ATOM     27  C   UNL     1      -4.627   5.434   6.635  0.00  0.00    +0.047 A 
ATOM     28  C   UNL     1      -4.737   5.919   7.954  0.00  0.00    +0.050 A 
ATOM     29  C   UNL     1      -3.636   5.485   8.623  0.00  0.00    +0.135 A 
ATOM     30  O   UNL     1      -2.883   4.764   7.770  0.00  0.00    -0.458 OA
BRANCH  29  31
ATOM     31  C   UNL     1      -3.322   5.753  10.042  0.00  0.00    +0.017 A 
ATOM     32  C   UNL     1      -4.193   6.519  10.820  0.00  0.00    +0.013 A 
ATOM     33  C   UNL     1      -3.897   6.762  12.145  0.00  0.00    +0.021 A 
ATOM     34  C   UNL     1      -2.735   6.256  12.702  0.00  0.00    +0.041 A 
ATOM     35  C   UNL     1      -1.865   5.500  11.935  0.00  0.00    +0.021 A 
ATOM     36  C   UNL     1      -2.152   5.246  10.610  0.00  0.00    +0.013 A 
ATOM     37 CL   UNL     1      -2.366   6.572  14.369  0.00  0.00    -0.084 Cl
ENDBRANCH  29  31
ENDBRANCH  25  26
ENDBRANCH  23  25
ENDBRANCH  20  21
ENDBRANCH   4  20
TORSDOF 9
