REMARK  Name = ZINC01085022
REMARK  9 active torsions:
REMARK  status: ('A' for Active; 'I' for Inactive)
REMARK    1  A    between atoms: C_6  and  C_7
REMARK    2  A    between atoms: C_7  and  O_8
REMARK    3  A    between atoms: O_8  and  C_9
REMARK    4  A    between atoms: C_12  and  C_18
REMARK    5  A    between atoms: C_14  and  N_15
REMARK    6  A    between atoms: C_27  and  C_35
REMARK    7  A    between atoms: C_28  and  N_34
REMARK    8  A    between atoms: C_29  and  C_30
REMARK    9  A    between atoms: C_29  and  C_32
REMARK                            x       y       z     vdW  Elec       q    Type
REMARK                         _______ _______ _______ _____ _____    ______ ____
ROOT
ATOM      1  C   UNL     1       1.291  -8.234  -2.142  0.00  0.00    +0.066 C 
ATOM      2  C   UNL     1       0.126  -8.871  -1.382  0.00  0.00    +0.030 C 
ATOM      3  C   UNL     1      -1.184  -8.178  -1.676  0.00  0.00    +0.009 C 
ATOM      4  C   UNL     1      -2.004  -8.931  -2.722  0.00  0.00    +0.005 C 
ATOM      5  C   UNL     1      -2.275 -10.347  -2.198  0.00  0.00    +0.027 C 
ATOM      6  C   UNL     1      -0.944 -11.029  -2.007  0.00  0.00    -0.022 C 
ATOM      7  C   UNL     1       0.129 -10.344  -1.664  0.00  0.00    -0.029 C 
ATOM      8  C   UNL     1       1.441 -11.040  -1.595  0.00  0.00    +0.074 C 
ATOM      9  C   UNL     1       2.582 -10.306  -1.581  0.00  0.00    +0.054 C 
ATOM     10  C   UNL     1       2.604  -8.807  -1.609  0.00  0.00    +0.188 C 
ENDROOT
BRANCH   1  14
ATOM     11  C   UNL     1       1.238  -4.001  -1.558  0.00  0.00    +0.151 A 
ATOM     12  C   UNL     1       1.047  -4.854  -0.480  0.00  0.00    +0.048 A 
ATOM     13  C   UNL     1       1.060  -6.221  -0.672  0.00  0.00    +0.008 A 
ATOM     14  C   UNL     1       1.272  -6.741  -1.936  0.00  0.00    -0.038 A 
ATOM     15  C   UNL     1       1.466  -5.893  -3.011  0.00  0.00    +0.040 A 
ATOM     16  C   UNL     1       1.450  -4.524  -2.824  0.00  0.00    +0.168 A 
BRANCH  16  17
ATOM     17  N   UNL     1       1.660  -3.618  -3.975  0.00  0.00    +0.060 N 
ATOM     18  O   UNL     1       1.846  -4.078  -5.087  0.00  0.00    -0.126 OA
ATOM     19  O   UNL     1       1.646  -2.411  -3.810  0.00  0.00    -0.126 OA
ENDBRANCH  16  17
BRANCH  11  20
ATOM     20  O   UNL     1       1.222  -2.655  -1.371  0.00  0.00    -0.485 OA
BRANCH  20  21
ATOM     21  C   UNL     1       0.997  -2.187  -0.040  0.00  0.00    +0.264 C 
BRANCH  21  27
ATOM     22  C   UNL     1      -0.159   0.025  -0.226  0.00  0.00    +0.008 A 
ATOM     23  C   UNL     1      -0.145   1.407  -0.216  0.00  0.00    +0.020 A 
ATOM     24  C   UNL     1       1.043   2.085  -0.007  0.00  0.00    +0.041 A 
ATOM     25  C   UNL     1       2.216   1.379   0.192  0.00  0.00    +0.020 A 
ATOM     26  C   UNL     1       2.201  -0.003   0.181  0.00  0.00    +0.008 A 
ATOM     27  C   UNL     1       1.013  -0.680  -0.028  0.00  0.00    -0.010 A 
ATOM     28 CL   UNL     1       1.062   3.821   0.006  0.00  0.00    -0.084 Cl
ENDBRANCH  21  27
ENDBRANCH  20  21
ENDBRANCH  11  20
ENDBRANCH   1  14
BRANCH   9  29
ATOM     29  N   UNL     1       3.776 -10.969  -1.541  0.00  0.00    -0.358 N 
ATOM     30  H   UNL     1       4.720 -10.403  -1.529  0.00  0.00    +0.142 HD
ATOM     31  H   UNL     1       3.795 -12.069  -1.521  0.00  0.00    +0.142 HD
ENDBRANCH   9  29
BRANCH  10  32
ATOM     32  C   UNL     1       3.710  -8.358  -2.470  0.00  0.00    +0.091 C 
ATOM     33  N   UNL     1       4.563  -8.012  -3.135  0.00  0.00    -0.194 NA
ENDBRANCH  10  32
BRANCH  10  34
ATOM     34  C   UNL     1       2.827  -8.306  -0.243  0.00  0.00    +0.091 C 
ATOM     35  N   UNL     1       3.000  -7.918   0.811  0.00  0.00    -0.194 NA
ENDBRANCH  10  34
BRANCH   8  36
ATOM     36  C   UNL     1       1.500 -12.469  -1.543  0.00  0.00    +0.101 C 
ATOM     37  N   UNL     1       1.546 -13.604  -1.502  0.00  0.00    -0.191 NA
ENDBRANCH   8  36
TORSDOF 9
