REMARK  Name = ZINC20283675
REMARK  13 active torsions:
REMARK  status: ('A' for Active; 'I' for Inactive)
REMARK    1  A    between atoms: C_1  and  C_2
REMARK    2  A    between atoms: C_2  and  O_3
REMARK    3  A    between atoms: O_3  and  C_4
REMARK    4  A    between atoms: C_4  and  C_6
REMARK    5  A    between atoms: C_7  and  C_24
REMARK    6  A    between atoms: C_12  and  C_14
REMARK    7  A    between atoms: C_18  and  O_22
REMARK    8  A    between atoms: C_19  and  O_20
REMARK    9  A    between atoms: O_20  and  C_21
REMARK   10  A    between atoms: O_22  and  C_23
REMARK   11  A    between atoms: C_24  and  N_25
REMARK   12  A    between atoms: C_28  and  C_31
REMARK   13  A    between atoms: C_31  and  C_32
REMARK                            x       y       z     vdW  Elec       q    Type
REMARK                         _______ _______ _______ _____ _____    ______ ____
ROOT
ATOM      1  C   UNL     1      -1.536   4.365   1.318  0.00  0.00    +0.076 C 
ATOM      2  C   UNL     1      -0.601   3.417   1.542  0.00  0.00    +0.008 C 
ATOM      3  N   UNL     1       0.722   3.742   1.637  0.00  0.00    -0.274 N 
ATOM      4  C   UNL     1       1.192   4.989   1.508  0.00  0.00    +0.304 C 
ATOM      5  O   UNL     1       2.389   5.179   1.603  0.00  0.00    -0.252 OA
ATOM      6  N   UNL     1       0.381   6.041   1.282  0.00  0.00    -0.288 N 
ATOM      7  C   UNL     1      -1.067   5.798   1.169  0.00  0.00    +0.147 C 
ATOM      8  H   UNL     1       1.469   2.957   1.829  0.00  0.00    +0.156 HD
ATOM      9  H   UNL     1       0.777   7.063   1.182  0.00  0.00    +0.151 HD
ENDROOT
BRANCH   7  10
ATOM     10  C   UNL     1      -1.761   6.626   2.220  0.00  0.00    +0.023 A 
ATOM     11  C   UNL     1      -2.301   6.014   3.337  0.00  0.00    +0.009 A 
ATOM     12  C   UNL     1      -2.937   6.770   4.303  0.00  0.00    +0.004 A 
ATOM     13  C   UNL     1      -3.036   8.142   4.158  0.00  0.00    +0.049 A 
ATOM     14  C   UNL     1      -2.497   8.761   3.042  0.00  0.00    +0.162 A 
ATOM     15  C   UNL     1      -1.852   8.000   2.071  0.00  0.00    +0.167 A 
BRANCH  15  16
ATOM     16  O   UNL     1      -1.316   8.604   0.976  0.00  0.00    -0.491 OA
ATOM     17  C   UNL     1      -2.197   8.857  -0.120  0.00  0.00    +0.277 C 
ENDBRANCH  15  16
BRANCH  14  18
ATOM     18  O   UNL     1      -2.593  10.110   2.897  0.00  0.00    -0.491 OA
ATOM     19  C   UNL     1      -3.264  10.827   3.936  0.00  0.00    +0.277 C 
ENDBRANCH  14  18
ENDBRANCH   7  10
BRANCH   1  20
ATOM     20  C   UNL     1      -2.908   4.031   1.226  0.00  0.00    +0.339 C 
ATOM     21  O   UNL     1      -3.473   4.073   0.149  0.00  0.00    -0.245 OA
BRANCH  20  22
ATOM     22  O   UNL     1      -3.589   3.666   2.332  0.00  0.00    -0.462 OA
BRANCH  22  24
ATOM     23  C   UNL     1      -5.610   3.151   3.553  0.00  0.00    +0.048 C 
ATOM     24  C   UNL     1      -4.992   3.438   2.183  0.00  0.00    +0.229 C 
ENDBRANCH  22  24
ENDBRANCH  20  22
ENDBRANCH   1  20
BRANCH   2  25
ATOM     25  C   UNL     1      -1.024   1.980   1.697  0.00  0.00    -0.026 C 
BRANCH  25  26
ATOM     26  N   UNL     1      -0.551   1.203   0.544  0.00  0.00    +0.383 N 
ATOM     27  C   UNL     1      -1.013   1.798  -0.717  0.00  0.00    -0.078 C 
ATOM     28  C   UNL     1      -0.627   0.887  -1.884  0.00  0.00    -0.015 C 
ATOM     29  C   UNL     1       0.894   0.712  -1.907  0.00  0.00    -0.010 C 
ATOM     30  C   UNL     1       1.355   0.136  -0.566  0.00  0.00    -0.015 C 
ATOM     31  C   UNL     1       0.911   1.069   0.564  0.00  0.00    -0.078 C 
ATOM     32  H   UNL     1      -0.981   0.193   0.615  0.00  0.00    -0.081 HD
BRANCH  29  33
ATOM     33  C   UNL     1       1.282  -0.246  -3.035  0.00  0.00    +0.038 C 
BRANCH  33  34
ATOM     34  C   UNL     1       0.939   0.377  -4.364  0.00  0.00    -0.047 A 
ATOM     35  C   UNL     1      -0.305   0.161  -4.928  0.00  0.00    +0.003 A 
ATOM     36  C   UNL     1      -0.621   0.736  -6.145  0.00  0.00    +0.000 A 
ATOM     37  C   UNL     1       0.310   1.519  -6.802  0.00  0.00    +0.000 A 
ATOM     38  C   UNL     1       1.555   1.730  -6.240  0.00  0.00    +0.000 A 
ATOM     39  C   UNL     1       1.870   1.159  -5.021  0.00  0.00    +0.003 A 
ENDBRANCH  33  34
ENDBRANCH  29  33
ENDBRANCH  25  26
ENDBRANCH   2  25
TORSDOF 10
