REMARK  Name = ZINC10701701
REMARK  10 active torsions:
REMARK  status: ('A' for Active; 'I' for Inactive)
REMARK    1  A    between atoms: C_1  and  C_2
REMARK    2  A    between atoms: C_2  and  O_3
REMARK    3  A    between atoms: O_3  and  C_4
REMARK    4  A    between atoms: C_7  and  C_9
REMARK    5  A    between atoms: C_13  and  N_14
REMARK    6  A    between atoms: C_15  and  C_17
REMARK    7  A    between atoms: C_17  and  C_18
REMARK    8  A    between atoms: C_20  and  C_25
REMARK    9  A    between atoms: C_23  and  C_24
REMARK   10  A    between atoms: C_27  and  C_31
REMARK                            x       y       z     vdW  Elec       q    Type
REMARK                         _______ _______ _______ _____ _____    ______ ____
ROOT
ATOM      1  C   UNL     1       1.368   7.217  -3.384  0.00  0.00    +0.069 A 
ATOM      2  C   UNL     1       1.477   7.443  -4.816  0.00  0.00    -0.023 A 
ATOM      3  C   UNL     1       1.550   6.325  -5.570  0.00  0.00    -0.004 A 
ATOM      4  S   UNL     1       1.484   4.990  -4.410  0.00  0.00    -0.077 S 
ATOM      5  C   UNL     1       1.351   5.901  -2.942  0.00  0.00    +0.084 A 
ATOM      6  C   UNL     1       1.667   6.248  -7.061  0.00  0.00    +0.046 C 
ATOM      7  C   UNL     1       1.314   7.624  -7.646  0.00  0.00    -0.009 C 
ATOM      8  C   UNL     1       2.079   8.700  -6.870  0.00  0.00    +0.008 C 
ATOM      9  C   UNL     1       1.509   8.825  -5.455  0.00  0.00    +0.037 C 
ATOM     10  C   UNL     1       1.715   7.672  -9.121  0.00  0.00    +0.008 C 
ENDROOT
BRANCH   1  14
ATOM     11  C   UNL     1      -0.008   9.865  -1.235  0.00  0.00    +0.407 C 
ATOM     12  O   UNL     1       1.004  10.343  -0.763  0.00  0.00    -0.226 OA
ATOM     13  N   UNL     1       0.074   8.835  -2.101  0.00  0.00    -0.217 N 
ATOM     14  C   UNL     1       1.279   8.336  -2.443  0.00  0.00    +0.255 C 
ATOM     15  O   UNL     1       2.292   8.816  -1.970  0.00  0.00    -0.270 OA
ATOM     16  H   UNL     1      -0.734   8.453  -2.478  0.00  0.00    +0.161 HD
BRANCH  11  17
ATOM     17  O   UNL     1      -1.211  10.363  -0.894  0.00  0.00    -0.450 OA
BRANCH  17  19
ATOM     18  C   UNL     1      -2.668  11.899   0.309  0.00  0.00    +0.048 C 
ATOM     19  C   UNL     1      -1.223  11.472   0.043  0.00  0.00    +0.230 C 
ENDBRANCH  17  19
ENDBRANCH  11  17
ENDBRANCH   1  14
BRANCH   5  20
ATOM     20  N   UNL     1       1.255   5.430  -1.641  0.00  0.00    -0.279 N 
ATOM     21  C   UNL     1       1.254   4.104  -1.403  0.00  0.00    +0.222 C 
ATOM     22  O   UNL     1       1.336   3.322  -2.327  0.00  0.00    -0.275 OA
ATOM     23  H   UNL     1       1.190   6.056  -0.903  0.00  0.00    +0.155 HD
BRANCH  21  24
ATOM     24  C   UNL     1       1.151   3.592   0.010  0.00  0.00    +0.131 C 
BRANCH  24  25
ATOM     25  C   UNL     1       1.171   2.085   0.002  0.00  0.00    -0.035 A 
ATOM     26  C   UNL     1      -0.017   1.378   0.010  0.00  0.00    +0.007 A 
ATOM     27  C   UNL     1       0.002  -0.004   0.002  0.00  0.00    -0.050 A 
ATOM     28  C   UNL     1       1.209  -0.679  -0.014  0.00  0.00    +0.003 A 
ATOM     29  C   UNL     1       2.396   0.028  -0.021  0.00  0.00    +0.004 A 
ATOM     30  C   UNL     1       2.377   1.411  -0.014  0.00  0.00    -0.047 A 
ATOM     31  C   UNL     1       3.672   2.182  -0.021  0.00  0.00    +0.044 C 
ATOM     32  C   UNL     1      -1.293  -0.775   0.010  0.00  0.00    +0.044 C 
ENDBRANCH  24  25
ENDBRANCH  21  24
ENDBRANCH   5  20
TORSDOF 6
