REMARK  Name = ZINC37136892
REMARK  5 active torsions:
REMARK  status: ('A' for Active; 'I' for Inactive)
REMARK    1  A    between atoms: C_1  and  C_2
REMARK    2  A    between atoms: C_2  and  C_3
REMARK    3  A    between atoms: C_2  and  C_4
REMARK    4  A    between atoms: C_8  and  N_13
REMARK    5  A    between atoms: N_13  and  C_14
REMARK                            x       y       z     vdW  Elec       q    Type
REMARK                         _______ _______ _______ _____ _____    ______ ____
ROOT
ATOM      1  C   UNL     1       0.731  -0.503   1.223  0.00  0.00    +0.199 A 
ATOM      2  N   UNL     1       0.213  -1.270   2.135  0.00  0.00    -0.213 NA
ATOM      3  C   UNL     1       1.155  -1.519   3.085  0.00  0.00    +0.111 A 
ATOM      4  C   UNL     1       1.160  -2.261   4.267  0.00  0.00    +0.054 A 
ATOM      5  C   UNL     1       2.309  -2.319   5.034  0.00  0.00    +0.030 A 
ATOM      6  C   UNL     1       3.457  -1.640   4.632  0.00  0.00    +0.026 A 
ATOM      7  C   UNL     1       3.460  -0.905   3.466  0.00  0.00    +0.050 A 
ATOM      8  C   UNL     1       2.315  -0.838   2.686  0.00  0.00    +0.155 A 
ATOM      9  O   UNL     1       2.010  -0.224   1.520  0.00  0.00    -0.439 OA
ENDROOT
BRANCH   1  11
ATOM     10  C   UNL     1      -0.019   1.526   0.010  0.00  0.00    +0.017 C 
ATOM     11  C   UNL     1       0.002  -0.004   0.002  0.00  0.00    +0.069 C 
ATOM     12  C   UNL     1       0.718  -0.497  -1.257  0.00  0.00    +0.017 C 
ENDBRANCH   1  11
BRANCH   5  13
ATOM     13  N   UNL     1       2.319  -3.062   6.220  0.00  0.00    -0.341 N 
ATOM     14  H   UNL     1       1.520  -3.535   6.502  0.00  0.00    +0.146 HD
BRANCH  13  15
ATOM     15  C   UNL     1       3.534  -3.124   7.035  0.00  0.00    +0.073 C 
ATOM     16  C   UNL     1       4.453  -4.211   6.484  0.00  0.00    +0.045 C 
ATOM     17  C   UNL     1       5.831  -4.114   7.144  0.00  0.00    +0.167 C 
ATOM     18  S   UNL     1       5.653  -4.426   8.925  0.00  0.00    -0.031 S 
ATOM     19  O   UNL     1       6.866  -4.064   9.571  0.00  0.00    -0.174 OA
ATOM     20  O   UNL     1       5.136  -5.737   9.105  0.00  0.00    -0.174 OA
ATOM     21  C   UNL     1       4.369  -3.227   9.393  0.00  0.00    +0.167 C 
ATOM     22  C   UNL     1       3.154  -3.422   8.482  0.00  0.00    +0.045 C 
ENDBRANCH  13  15
ENDBRANCH   5  13
TORSDOF 3
