REMARK  Name = ZINC01202275
REMARK  9 active torsions:
REMARK  status: ('A' for Active; 'I' for Inactive)
REMARK    1  A    between atoms: C_1  and  C_2
REMARK    2  A    between atoms: C_3  and  C_31
REMARK    3  A    between atoms: C_4  and  C_22
REMARK    4  A    between atoms: C_10  and  C_15
REMARK    5  A    between atoms: C_25  and  N_28
REMARK    6  A    between atoms: C_31  and  O_33
REMARK    7  A    between atoms: O_33  and  C_34
REMARK    8  A    between atoms: C_34  and  C_35
REMARK    9  A    between atoms: C_34  and  C_36
REMARK                            x       y       z     vdW  Elec       q    Type
REMARK                         _______ _______ _______ _____ _____    ______ ____
ROOT
ATOM      1  C   UNL     1       0.062   5.596  -0.807  0.00  0.00    +0.061 C 
ATOM      2  C   UNL     1      -0.031   4.152  -0.385  0.00  0.00    +0.031 C 
ATOM      3  C   UNL     1      -1.224   3.531  -0.388  0.00  0.00    +0.154 C 
ATOM      4  C   UNL     1      -1.355   2.097   0.034  0.00  0.00    +0.073 C 
ATOM      5  C   UNL     1      -0.017   1.402   0.011  0.00  0.00    +0.025 C 
ATOM      6  C   UNL     1       1.130   2.114   0.003  0.00  0.00    +0.049 C 
ATOM      7  N   UNL     1       1.097   3.483  -0.002  0.00  0.00    -0.260 NA
ATOM      8  C   UNL     1       2.472   1.425  -0.000  0.00  0.00    +0.064 C 
ATOM      9  C   UNL     1       2.358   0.089  -0.744  0.00  0.00    +0.032 C 
ATOM     10  C   UNL     1       1.298  -0.765  -0.042  0.00  0.00    +0.088 C 
ATOM     11  C   UNL     1       0.002  -0.004  -0.003  0.00  0.00    +0.162 C 
ATOM     12  O   UNL     1      -1.049  -0.615   0.017  0.00  0.00    -0.292 OA
ENDROOT
BRANCH   9  13
ATOM     13  C   UNL     1       3.686  -0.622  -0.712  0.00  0.00    -0.043 A 
ATOM     14  C   UNL     1       4.271  -0.937   0.501  0.00  0.00    +0.005 A 
ATOM     15  C   UNL     1       5.487  -1.594   0.531  0.00  0.00    +0.020 A 
ATOM     16  C   UNL     1       6.123  -1.927  -0.651  0.00  0.00    +0.041 A 
ATOM     17  C   UNL     1       5.539  -1.607  -1.864  0.00  0.00    +0.020 A 
ATOM     18  C   UNL     1       4.321  -0.954  -1.893  0.00  0.00    +0.005 A 
ATOM     19 CL   UNL     1       7.653  -2.747  -0.613  0.00  0.00    -0.084 Cl
ENDBRANCH   9  13
BRANCH   4  20
ATOM     20  C   UNL     1      -1.917   2.044   1.431  0.00  0.00    -0.039 A 
ATOM     21  C   UNL     1      -1.217   2.612   2.479  0.00  0.00    +0.006 A 
ATOM     22  C   UNL     1      -1.734   2.568   3.760  0.00  0.00    +0.033 A 
ATOM     23  C   UNL     1      -2.946   1.946   3.995  0.00  0.00    +0.126 A 
ATOM     24  C   UNL     1      -3.644   1.373   2.948  0.00  0.00    +0.033 A 
ATOM     25  C   UNL     1      -3.129   1.422   1.666  0.00  0.00    +0.006 A 
BRANCH  23  26
ATOM     26  N   UNL     1      -3.497   1.893   5.368  0.00  0.00    +0.056 N 
ATOM     27  O   UNL     1      -4.565   1.345   5.575  0.00  0.00    -0.126 OA
ATOM     28  O   UNL     1      -2.883   2.397   6.290  0.00  0.00    -0.126 OA
ENDBRANCH  23  26
ENDBRANCH   4  20
BRANCH   3  29
ATOM     29  C   UNL     1      -2.376   4.243  -0.795  0.00  0.00    +0.317 C 
ATOM     30  O   UNL     1      -2.282   5.407  -1.139  0.00  0.00    -0.250 OA
BRANCH  29  31
ATOM     31  O   UNL     1      -3.579   3.632  -0.803  0.00  0.00    -0.461 OA
BRANCH  31  32
ATOM     32  C   UNL     1      -4.700   4.412  -1.226  0.00  0.00    +0.170 C 
ATOM     33  C   UNL     1      -4.878   4.270  -2.739  0.00  0.00    +0.052 C 
ATOM     34  C   UNL     1      -5.962   3.918  -0.515  0.00  0.00    +0.052 C 
ENDBRANCH  31  32
ENDBRANCH  29  31
ENDBRANCH   3  29
TORSDOF 6
