REMARK  Name = ZINC09703798
REMARK  6 active torsions:
REMARK  status: ('A' for Active; 'I' for Inactive)
REMARK    1  A    between atoms: C_4  and  C_7
REMARK    2  A    between atoms: C_7  and  C_8
REMARK    3  A    between atoms: C_7  and  C_14
REMARK    4  A    between atoms: N_16  and  N_17
REMARK    5  A    between atoms: C_20  and  C_24
REMARK    6  A    between atoms: C_20  and  C_30
REMARK                            x       y       z     vdW  Elec       q    Type
REMARK                         _______ _______ _______ _____ _____    ______ ____
ROOT
ATOM      1  N   UNL     1      -1.853   2.804   3.013  0.00  0.00    -0.137 N 
ATOM      2  C   UNL     1      -2.547   2.909   4.163  0.00  0.00    +0.272 C 
ATOM      3  O   UNL     1      -2.447   2.204   5.145  0.00  0.00    -0.270 OA
ATOM      4  C   UNL     1      -3.477   4.091   3.975  0.00  0.00    +0.165 C 
ATOM      5  N   UNL     1      -3.176   4.554   2.610  0.00  0.00    -0.276 N 
ATOM      6  C   UNL     1      -2.217   3.742   2.130  0.00  0.00    +0.327 C 
ATOM      7  O   UNL     1      -1.734   3.848   1.020  0.00  0.00    -0.251 OA
ATOM      8  H   UNL     1      -3.589   5.300   2.147  0.00  0.00    +0.152 HD
ENDROOT
BRANCH   4   9
ATOM      9  C   UNL     1      -3.176   5.172   4.981  0.00  0.00    -0.011 A 
ATOM     10  C   UNL     1      -3.128   6.494   4.580  0.00  0.00    +0.006 A 
ATOM     11  C   UNL     1      -2.857   7.487   5.503  0.00  0.00    +0.000 A 
ATOM     12  C   UNL     1      -2.625   7.156   6.825  0.00  0.00    +0.000 A 
ATOM     13  C   UNL     1      -2.667   5.834   7.225  0.00  0.00    +0.000 A 
ATOM     14  C   UNL     1      -2.943   4.842   6.303  0.00  0.00    +0.006 A 
ENDBRANCH   4   9
BRANCH   4  15
ATOM     15  C   UNL     1      -4.915   3.655   4.082  0.00  0.00    -0.011 A 
ATOM     16  C   UNL     1      -5.338   2.929   5.180  0.00  0.00    +0.006 A 
ATOM     17  C   UNL     1      -6.659   2.533   5.280  0.00  0.00    +0.000 A 
ATOM     18  C   UNL     1      -7.554   2.854   4.278  0.00  0.00    +0.000 A 
ATOM     19  C   UNL     1      -7.131   3.576   3.177  0.00  0.00    +0.000 A 
ATOM     20  C   UNL     1      -5.811   3.976   3.079  0.00  0.00    +0.006 A 
ENDBRANCH   4  15
BRANCH   1  23
ATOM     21  C   UNL     1       0.429   2.167   2.784  0.00  0.00    +0.241 C 
ATOM     22  O   UNL     1       0.758   3.313   3.009  0.00  0.00    -0.273 OA
ATOM     23  N   UNL     1      -0.875   1.831   2.769  0.00  0.00    -0.223 N 
ATOM     24  H   UNL     1      -1.138   0.914   2.589  0.00  0.00    +0.174 HD
BRANCH  21  25
ATOM     25  C   UNL     1       1.481   1.120   2.521  0.00  0.00    +0.136 C 
BRANCH  25  29
ATOM     26  C   UNL     1       5.355   2.908   2.731  0.00  0.00    +0.000 A 
ATOM     27  C   UNL     1       4.389   3.446   1.900  0.00  0.00    +0.000 A 
ATOM     28  C   UNL     1       3.136   2.867   1.832  0.00  0.00    +0.005 A 
ATOM     29  C   UNL     1       2.848   1.751   2.595  0.00  0.00    -0.031 A 
ATOM     30  C   UNL     1       3.811   1.217   3.430  0.00  0.00    +0.005 A 
ATOM     31  C   UNL     1       5.066   1.792   3.494  0.00  0.00    +0.000 A 
ENDBRANCH  25  29
BRANCH  25  32
ATOM     32  C   UNL     1       1.272   0.532   1.149  0.00  0.00    -0.031 A 
ATOM     33  C   UNL     1       1.158   1.364   0.051  0.00  0.00    +0.005 A 
ATOM     34  C   UNL     1       0.972   0.824  -1.208  0.00  0.00    +0.000 A 
ATOM     35  C   UNL     1       0.890  -0.547  -1.367  0.00  0.00    +0.000 A 
ATOM     36  C   UNL     1       0.999  -1.378  -0.268  0.00  0.00    +0.000 A 
ATOM     37  C   UNL     1       1.190  -0.839   0.990  0.00  0.00    +0.005 A 
ENDBRANCH  25  32
ENDBRANCH  21  25
ENDBRANCH   1  23
TORSDOF 6
