REMARK  Name = ZINC41657184
REMARK  13 active torsions:
REMARK  status: ('A' for Active; 'I' for Inactive)
REMARK    1  A    between atoms: C_1  and  O_2
REMARK    2  A    between atoms: O_2  and  C_3
REMARK    3  A    between atoms: C_6  and  C_11
REMARK    4  A    between atoms: C_8  and  O_9
REMARK    5  A    between atoms: O_9  and  C_10
REMARK    6  A    between atoms: C_11  and  N_12
REMARK    7  A    between atoms: C_22  and  C_23
REMARK    8  A    between atoms: C_25  and  O_33
REMARK    9  A    between atoms: C_26  and  O_31
REMARK   10  A    between atoms: C_28  and  O_29
REMARK   11  A    between atoms: O_29  and  C_30
REMARK   12  A    between atoms: O_31  and  C_32
REMARK   13  A    between atoms: O_33  and  C_34
REMARK                            x       y       z     vdW  Elec       q    Type
REMARK                         _______ _______ _______ _____ _____    ______ ____
ROOT
ATOM      1  N   UNL     1      -4.558  -3.730  -1.831  0.00  0.00    -0.262 NA
ATOM      2  C   UNL     1      -5.885  -4.358  -1.765  0.00  0.00    +0.130 C 
ATOM      3  C   UNL     1      -6.499  -4.386  -3.142  0.00  0.00    +0.051 A 
ATOM      4  C   UNL     1      -6.013  -3.575  -4.153  0.00  0.00    +0.130 A 
ATOM      5  C   UNL     1      -6.592  -3.607  -5.422  0.00  0.00    +0.047 A 
ATOM      6  C   UNL     1      -7.643  -4.440  -5.680  0.00  0.00    +0.019 A 
ATOM      7  C   UNL     1      -8.141  -5.264  -4.670  0.00  0.00    +0.068 A 
ATOM      8  C   UNL     1      -7.568  -5.241  -3.389  0.00  0.00    +0.147 A 
ATOM      9  O   UNL     1      -8.213  -6.116  -2.587  0.00  0.00    -0.451 OA
ATOM     10  C   UNL     1      -9.212  -6.755  -3.241  0.00  0.00    +0.176 C 
ATOM     11  C   UNL     1     -10.045  -7.693  -2.716  0.00  0.00    +0.062 C 
ATOM     12  C   UNL     1      -9.234  -6.252  -4.620  0.00  0.00    +0.231 C 
ATOM     13  O   UNL     1      -9.987  -6.578  -5.522  0.00  0.00    -0.283 OA
ATOM     14  O   UNL     1      -4.965  -2.739  -3.929  0.00  0.00    -0.476 OA
ATOM     15  C   UNL     1      -4.635  -2.458  -2.567  0.00  0.00    +0.319 C 
ENDROOT
BRANCH  11  16
ATOM     16  C   UNL     1      -9.810  -8.206  -1.364  0.00  0.00    +0.024 A 
ATOM     17  C   UNL     1      -8.978  -7.505  -0.479  0.00  0.00    +0.061 A 
ATOM     18  C   UNL     1      -8.761  -7.993   0.792  0.00  0.00    +0.162 A 
ATOM     19  C   UNL     1      -9.367  -9.183   1.200  0.00  0.00    +0.165 A 
ATOM     20  C   UNL     1     -10.192  -9.882   0.331  0.00  0.00    +0.095 A 
ATOM     21  C   UNL     1     -10.423  -9.400  -0.946  0.00  0.00    +0.131 A 
BRANCH  21  22
ATOM     22  O   UNL     1     -11.235 -10.082  -1.794  0.00  0.00    -0.494 OA
ATOM     23  C   UNL     1     -11.822 -11.287  -1.300  0.00  0.00    +0.277 C 
ENDBRANCH  21  22
BRANCH  19  24
ATOM     24  O   UNL     1      -9.148  -9.658   2.453  0.00  0.00    -0.491 OA
ATOM     25  C   UNL     1      -9.799 -10.880   2.806  0.00  0.00    +0.277 C 
ENDBRANCH  19  24
BRANCH  18  26
ATOM     26  O   UNL     1      -7.954  -7.314   1.651  0.00  0.00    -0.491 OA
ATOM     27  C   UNL     1      -7.365  -6.104   1.168  0.00  0.00    +0.277 C 
ENDBRANCH  18  26
ENDBRANCH  11  16
BRANCH   1  28
ATOM     28  C   UNL     1      -4.005  -3.527  -0.485  0.00  0.00    +0.123 C 
BRANCH  28  32
ATOM     29  C   UNL     1       0.073  -2.275  -0.793  0.00  0.00    +0.162 A 
ATOM     30  C   UNL     1      -0.944  -1.334  -0.772  0.00  0.00    +0.050 A 
ATOM     31  C   UNL     1      -2.261  -1.742  -0.672  0.00  0.00    +0.009 A 
ATOM     32  C   UNL     1      -2.567  -3.088  -0.594  0.00  0.00    -0.030 A 
ATOM     33  C   UNL     1      -1.558  -4.032  -0.614  0.00  0.00    +0.054 A 
ATOM     34  C   UNL     1      -0.236  -3.630  -0.720  0.00  0.00    +0.162 A 
BRANCH  29  36
ATOM     35  C   UNL     1       1.611  -0.469  -0.962  0.00  0.00    +0.277 C 
ATOM     36  O   UNL     1       1.369  -1.876  -0.891  0.00  0.00    -0.491 OA
ENDBRANCH  29  36
BRANCH  34  37
ATOM     37  O   UNL     1       0.758  -4.558  -0.746  0.00  0.00    -0.491 OA
ATOM     38  C   UNL     1       0.367  -5.930  -0.667  0.00  0.00    +0.277 C 
ENDBRANCH  34  37
ENDBRANCH  28  32
ENDBRANCH   1  28
TORSDOF 8
