REMARK  Name = ZINC12497253
REMARK  8 active torsions:
REMARK  status: ('A' for Active; 'I' for Inactive)
REMARK    1  A    between atoms: C_1  and  C_2
REMARK    2  A    between atoms: C_5  and  N_8
REMARK    3  A    between atoms: C_13  and  C_25
REMARK    4  A    between atoms: C_15  and  C_20
REMARK    5  A    between atoms: C_15  and  C_21
REMARK    6  A    between atoms: C_21  and  O_23
REMARK    7  A    between atoms: O_23  and  C_24
REMARK    8  A    between atoms: C_28  and  O_31
REMARK                            x       y       z     vdW  Elec       q    Type
REMARK                         _______ _______ _______ _____ _____    ______ ____
ROOT
ATOM      1  N   UNL     1      -3.427  -4.850  -1.011  0.00  0.00    -0.210 N 
ATOM      2  C   UNL     1      -2.647  -4.333  -0.006  0.00  0.00    +0.229 C 
ATOM      3  O   UNL     1      -3.001  -3.633   0.918  0.00  0.00    -0.275 OA
ATOM      4  C   UNL     1      -1.298  -4.812  -0.293  0.00  0.00    +0.077 C 
ATOM      5  C   UNL     1       0.060  -4.277  -0.021  0.00  0.00    -0.027 C 
ATOM      6  C   UNL     1      -0.020  -5.451  -2.137  0.00  0.00    +0.041 C 
ATOM      7  C   UNL     1      -1.334  -4.754  -1.875  0.00  0.00    +0.086 C 
ATOM      8  C   UNL     1      -2.686  -5.327  -2.060  0.00  0.00    +0.229 C 
ATOM      9  O   UNL     1      -3.058  -6.061  -2.950  0.00  0.00    -0.275 OA
ATOM     10  C   UNL     1       0.450  -5.212  -3.573  0.00  0.00    +0.002 C 
ATOM     11  N   UNL     1       0.887  -4.784  -1.154  0.00  0.00    +0.395 N 
ATOM     12  H   UNL     1       1.577  -5.459  -0.805  0.00  0.00    -0.083 HD
ATOM     13  H   UNL     1       1.373  -4.001  -1.607  0.00  0.00    -0.083 HD
ENDROOT
BRANCH   1  18
ATOM     14  C   UNL     1      -9.098  -4.996  -0.838  0.00  0.00    +0.044 C 
ATOM     15  C   UNL     1      -7.593  -4.958  -0.883  0.00  0.00    -0.050 A 
ATOM     16  C   UNL     1      -6.884  -4.418   0.174  0.00  0.00    +0.005 A 
ATOM     17  C   UNL     1      -5.503  -4.381   0.135  0.00  0.00    +0.024 A 
ATOM     18  C   UNL     1      -4.828  -4.887  -0.968  0.00  0.00    +0.044 A 
ATOM     19  C   UNL     1      -5.543  -5.423  -2.030  0.00  0.00    +0.024 A 
ATOM     20  C   UNL     1      -6.923  -5.462  -1.983  0.00  0.00    +0.005 A 
ENDBRANCH   1  18
BRANCH   5  21
ATOM     21  C   UNL     1       0.040  -2.770  -0.013  0.00  0.00    -0.060 A 
ATOM     22  C   UNL     1       0.042  -2.087   1.189  0.00  0.00    +0.005 A 
ATOM     23  C   UNL     1       0.023  -0.705   1.199  0.00  0.00    +0.045 A 
ATOM     24  C   UNL     1       0.002  -0.004   0.002  0.00  0.00    +0.117 A 
ATOM     25  C   UNL     1      -0.006  -0.692  -1.202  0.00  0.00    +0.045 A 
ATOM     26  C   UNL     1       0.018  -2.074  -1.207  0.00  0.00    +0.005 A 
BRANCH  24  27
ATOM     27  O   UNL     1      -0.016   1.355   0.009  0.00  0.00    -0.507 OA
ATOM     28  H   UNL     1       0.862   1.760   0.003  0.00  0.00    +0.292 HD
ENDBRANCH  24  27
ENDBRANCH   5  21
BRANCH   6  29
ATOM     29  C   UNL     1      -0.129  -6.926  -1.850  0.00  0.00    +0.296 C 
ATOM     30  O   UNL     1      -1.183  -7.495  -2.006  0.00  0.00    -0.252 OA
BRANCH  29  31
ATOM     31  O   UNL     1       0.945  -7.608  -1.421  0.00  0.00    -0.469 OA
ATOM     32  C   UNL     1       0.766  -9.026  -1.164  0.00  0.00    +0.280 C 
ENDBRANCH  29  31
ENDBRANCH   6  29
TORSDOF 5
