REMARK  Name = ZINC20440109
REMARK  9 active torsions:
REMARK  status: ('A' for Active; 'I' for Inactive)
REMARK    1  A    between atoms: C_1  and  O_2
REMARK    2  A    between atoms: O_2  and  C_3
REMARK    3  A    between atoms: C_5  and  C_13
REMARK    4  A    between atoms: C_6  and  O_11
REMARK    5  A    between atoms: C_8  and  O_9
REMARK    6  A    between atoms: O_9  and  C_10
REMARK    7  A    between atoms: O_11  and  C_12
REMARK    8  A    between atoms: C_13  and  C_15
REMARK    9  A    between atoms: C_13  and  N_22
REMARK                            x       y       z     vdW  Elec       q    Type
REMARK                         _______ _______ _______ _____ _____    ______ ____
ROOT
ATOM      1  C   UNL     1      -0.749   1.596   3.566  0.00  0.00    +0.162 A 
ATOM      2  C   UNL     1      -0.204   1.223   4.784  0.00  0.00    +0.055 A 
ATOM      3  C   UNL     1       0.935   0.440   4.822  0.00  0.00    -0.012 A 
ATOM      4  C   UNL     1       1.534   0.026   3.642  0.00  0.00    +0.126 A 
ATOM      5  C   UNL     1       0.990   0.393   2.421  0.00  0.00    +0.095 A 
ATOM      6  C   UNL     1      -0.148   1.182   2.380  0.00  0.00    +0.165 A 
ENDROOT
BRANCH   1   8
ATOM      7  C   UNL     1      -2.432   2.754   4.783  0.00  0.00    +0.277 C 
ATOM      8  O   UNL     1      -1.869   2.366   3.528  0.00  0.00    -0.491 OA
ENDBRANCH   1   8
BRANCH   6   9
ATOM      9  O   UNL     1      -0.682   1.547   1.184  0.00  0.00    -0.491 OA
ATOM     10  C   UNL     1      -0.013   1.086   0.008  0.00  0.00    +0.277 C 
ENDBRANCH   6   9
BRANCH   4  11
ATOM     11  O   UNL     1       2.655  -0.744   3.683  0.00  0.00    -0.495 OA
ATOM     12  C   UNL     1       3.220  -1.134   2.430  0.00  0.00    +0.277 C 
ENDBRANCH   4  11
BRANCH   3  13
ATOM     13  C   UNL     1       1.525   0.036   6.149  0.00  0.00    -0.010 C 
BRANCH  13  14
ATOM     14  C   UNL     1       1.109  -1.375   6.475  0.00  0.00    -0.057 A 
ATOM     15  C   UNL     1      -0.145  -1.621   7.003  0.00  0.00    +0.003 A 
ATOM     16  C   UNL     1      -0.529  -2.915   7.298  0.00  0.00    +0.015 A 
ATOM     17  C   UNL     1       0.345  -3.964   7.075  0.00  0.00    +0.018 A 
ATOM     18  C   UNL     1       1.601  -3.717   6.551  0.00  0.00    +0.015 A 
ATOM     19  C   UNL     1       1.982  -2.422   6.251  0.00  0.00    +0.003 A 
ATOM     20 BR   UNL     1      -0.178  -5.734   7.484  0.00  0.00    -0.050 Br
ENDBRANCH  13  14
BRANCH  13  21
ATOM     21  N   UNL     1       1.041   0.944   7.197  0.00  0.00    +0.385 N 
ATOM     22  H   UNL     1       1.472   0.649   8.165  0.00  0.00    -0.089 HD
ATOM     23  H   UNL     1      -0.056   0.889   7.252  0.00  0.00    -0.089 HD
ATOM     24  H   UNL     1       1.345   1.974   6.959  0.00  0.00    -0.089 HD
ENDBRANCH  13  21
ENDBRANCH   3  13
TORSDOF 6
