REMARK  Name = ZINC08653410
REMARK  11 active torsions:
REMARK  status: ('A' for Active; 'I' for Inactive)
REMARK    1  A    between atoms: C_1  and  C_2
REMARK    2  A    between atoms: C_2  and  C_3
REMARK    3  A    between atoms: N_5  and  N_6
REMARK    4  A    between atoms: C_7  and  C_8
REMARK    5  A    between atoms: C_7  and  C_17
REMARK    6  A    between atoms: C_9  and  C_10
REMARK    7  A    between atoms: C_14  and  O_16
REMARK    8  A    between atoms: C_18  and  C_33
REMARK    9  A    between atoms: N_22  and  C_23
REMARK   10  A    between atoms: C_26  and  C_32
REMARK   11  A    between atoms: C_28  and  N_29
REMARK                            x       y       z     vdW  Elec       q    Type
REMARK                         _______ _______ _______ _____ _____    ______ ____
ROOT
ATOM      1  N   UNL     1      -0.879   6.723  -2.104  0.00  0.00    -0.179 NA
ATOM      2  C   UNL     1      -1.962   6.375  -1.385  0.00  0.00    +0.097 C 
ENDROOT
BRANCH   2   3
ATOM      3  C   UNL     1      -2.986   7.311  -1.157  0.00  0.00    +0.063 A 
ATOM      4  C   UNL     1      -2.961   8.733  -1.262  0.00  0.00    +0.057 A 
ATOM      5  N   UNL     1      -4.040   9.388  -1.000  0.00  0.00    -0.229 NA
ATOM      6  C   UNL     1      -5.174   8.770  -0.636  0.00  0.00    +0.163 A 
ATOM      7  S   UNL     1      -4.686   7.050  -0.665  0.00  0.00    -0.050 S 
ATOM      8  N   UNL     1      -6.384   9.310  -0.330  0.00  0.00    -0.292 N 
ATOM      9  C   UNL     1      -1.701   9.454  -1.668  0.00  0.00    +0.067 C 
ATOM     10  H   UNL     1      -7.092   8.748   0.020  0.00  0.00    +0.154 HD
BRANCH   8  11
ATOM     11  C   UNL     1      -6.606  10.673  -0.519  0.00  0.00    +0.063 A 
ATOM     12  C   UNL     1      -5.778  11.404  -1.365  0.00  0.00    +0.026 A 
ATOM     13  C   UNL     1      -6.003  12.752  -1.553  0.00  0.00    +0.005 A 
ATOM     14  C   UNL     1      -7.045  13.380  -0.893  0.00  0.00    -0.048 A 
ATOM     15  C   UNL     1      -7.867  12.658  -0.047  0.00  0.00    +0.038 A 
ATOM     16  C   UNL     1      -7.651  11.308   0.143  0.00  0.00    +0.147 A 
ATOM     17  C   UNL     1      -7.284  14.854  -1.096  0.00  0.00    +0.044 C 
BRANCH  16  18
ATOM     18  N   UNL     1      -8.532  10.536   1.048  0.00  0.00    +0.058 N 
ATOM     19  O   UNL     1      -9.625  11.089   1.532  0.00  0.00    -0.126 OA
ATOM     20  O   UNL     1      -8.222   9.297   1.371  0.00  0.00    -0.126 OA
ENDBRANCH  16  18
ENDBRANCH   8  11
ENDBRANCH   2   3
BRANCH   1  23
ATOM     21  C   UNL     1       1.134   6.195  -3.048  0.00  0.00    +0.232 C 
ATOM     22  O   UNL     1       1.343   7.360  -3.289  0.00  0.00    -0.274 OA
ATOM     23  N   UNL     1      -0.009   5.829  -2.434  0.00  0.00    -0.206 N 
ATOM     24  H   UNL     1      -0.177   4.894  -2.240  0.00  0.00    +0.177 HD
BRANCH  21  26
ATOM     25  C   UNL     1       3.344   5.827  -4.109  0.00  0.00    +0.013 C 
ATOM     26  C   UNL     1       2.150   5.151  -3.433  0.00  0.00    +0.094 C 
ENDBRANCH  21  26
ENDBRANCH   1  23
BRANCH   2  27
ATOM     27  C   UNL     1      -2.070   5.064  -0.856  0.00  0.00    +0.031 C 
ATOM     28  C   UNL     1      -3.101   4.748  -0.032  0.00  0.00    +0.010 C 
BRANCH  28  29
ATOM     29  C   UNL     1      -3.398   3.341   0.265  0.00  0.00    -0.022 A 
ATOM     30  C   UNL     1      -2.620   2.322  -0.301  0.00  0.00    +0.008 A 
ATOM     31  C   UNL     1      -2.901   1.003  -0.015  0.00  0.00    +0.004 A 
ATOM     32  C   UNL     1      -3.956   0.680   0.821  0.00  0.00    +0.045 A 
ATOM     33  C   UNL     1      -4.734   1.683   1.388  0.00  0.00    +0.117 A 
ATOM     34  C   UNL     1      -4.461   3.011   1.115  0.00  0.00    +0.053 A 
BRANCH  33  35
ATOM     35  O   UNL     1      -5.765   1.357   2.212  0.00  0.00    -0.507 OA
ATOM     36  H   UNL     1      -5.518   1.294   3.145  0.00  0.00    +0.292 HD
ENDBRANCH  33  35
ENDBRANCH  28  29
ENDBRANCH   2  27
TORSDOF 8
