REMARK  Name = ZINC03765866
REMARK  7 active torsions:
REMARK  status: ('A' for Active; 'I' for Inactive)
REMARK    1  A    between atoms: C_3  and  N_28
REMARK    2  A    between atoms: C_6  and  C_7
REMARK    3  A    between atoms: C_7  and  O_8
REMARK    4  A    between atoms: O_8  and  C_9
REMARK    5  A    between atoms: C_14  and  C_15
REMARK    6  A    between atoms: N_19  and  C_23
REMARK    7  A    between atoms: C_23  and  C_24
REMARK                            x       y       z     vdW  Elec       q    Type
REMARK                         _______ _______ _______ _____ _____    ______ ____
ROOT
ATOM      1  C   UNL     1      -3.100  -1.498  -1.534  0.00  0.00    +0.128 A 
ATOM      2  C   UNL     1      -3.808  -1.988  -0.448  0.00  0.00    +0.047 A 
ATOM      3  C   UNL     1      -4.739  -2.993  -0.624  0.00  0.00    +0.019 A 
ATOM      4  C   UNL     1      -4.974  -3.520  -1.885  0.00  0.00    +0.019 A 
ATOM      5  C   UNL     1      -4.280  -3.046  -2.977  0.00  0.00    +0.026 A 
ATOM      6  C   UNL     1      -3.338  -2.024  -2.814  0.00  0.00    +0.019 A 
ATOM      7 BR   UNL     1      -6.252  -4.896  -2.107  0.00  0.00    -0.050 Br
ENDROOT
BRANCH   6   8
ATOM      8  C   UNL     1      -2.598  -1.509  -3.973  0.00  0.00    +0.032 C 
ATOM      9  C   UNL     1      -3.240  -1.306  -5.152  0.00  0.00    +0.077 C 
ATOM     10  C   UNL     1      -4.681  -1.377  -5.463  0.00  0.00    +0.259 C 
ATOM     11  O   UNL     1      -5.507  -1.650  -4.611  0.00  0.00    -0.269 OA
ATOM     12  N   UNL     1      -5.031  -1.129  -6.714  0.00  0.00    -0.244 N 
ATOM     13  C   UNL     1      -4.113  -0.827  -7.655  0.00  0.00    +0.121 C 
ATOM     14  S   UNL     1      -4.364  -0.477  -9.312  0.00  0.00    -0.027 S 
ATOM     15  S   UNL     1      -2.573  -0.871  -6.752  0.00  0.00    -0.061 S 
BRANCH  12  16
ATOM     16  C   UNL     1      -6.446  -1.184  -7.087  0.00  0.00    +0.240 C 
BRANCH  16  17
ATOM     17  C   UNL     1      -7.067   0.177  -6.903  0.00  0.00    +0.373 C 
ATOM     18  O   UNL     1      -6.390   1.107  -6.498  0.00  0.00    -0.245 OA
ATOM     19  O   UNL     1      -8.247   0.348  -7.159  0.00  0.00    -0.245 OA
ENDBRANCH  16  17
ENDBRANCH  12  16
ENDBRANCH   6   8
BRANCH   1  20
ATOM     20  O   UNL     1      -2.185  -0.510  -1.361  0.00  0.00    -0.487 OA
BRANCH  20  21
ATOM     21  C   UNL     1      -1.997  -0.025  -0.030  0.00  0.00    +0.264 C 
BRANCH  21  27
ATOM     22  C   UNL     1      -1.323   2.378  -0.215  0.00  0.00    +0.009 A 
ATOM     23  C   UNL     1      -0.364   3.373  -0.218  0.00  0.00    +0.033 A 
ATOM     24  C   UNL     1       0.969   3.050  -0.041  0.00  0.00    +0.126 A 
ATOM     25  C   UNL     1       1.341   1.731   0.140  0.00  0.00    +0.033 A 
ATOM     26  C   UNL     1       0.382   0.736   0.145  0.00  0.00    +0.009 A 
ATOM     27  C   UNL     1      -0.951   1.059  -0.034  0.00  0.00    -0.010 A 
BRANCH  24  28
ATOM     28  N   UNL     1       1.996   4.115  -0.046  0.00  0.00    +0.056 N 
ATOM     29  O   UNL     1       1.670   5.268  -0.205  0.00  0.00    -0.126 OA
ATOM     30  O   UNL     1       3.161   3.832   0.109  0.00  0.00    -0.126 OA
ENDBRANCH  24  28
ENDBRANCH  21  27
ENDBRANCH  20  21
ENDBRANCH   1  20
TORSDOF 7
