REMARK  Name = ZINC15905288
REMARK  8 active torsions:
REMARK  status: ('A' for Active; 'I' for Inactive)
REMARK    1  A    between atoms: C_1  and  O_2
REMARK    2  A    between atoms: O_2  and  C_3
REMARK    3  A    between atoms: C_8  and  O_9
REMARK    4  A    between atoms: O_9  and  C_10
REMARK    5  A    between atoms: C_13  and  C_30
REMARK    6  A    between atoms: C_14  and  S_20
REMARK    7  A    between atoms: C_15  and  N_19
REMARK    8  A    between atoms: S_20  and  C_23
REMARK                            x       y       z     vdW  Elec       q    Type
REMARK                         _______ _______ _______ _____ _____    ______ ____
ROOT
ATOM      1  C   UNL     1      -2.193   7.859  -0.715  0.00  0.00    +0.162 A 
ATOM      2  C   UNL     1      -1.026   7.129  -0.536  0.00  0.00    +0.053 A 
ATOM      3  C   UNL     1      -1.091   5.764  -0.362  0.00  0.00    -0.033 A 
ATOM      4  C   UNL     1      -2.322   5.115  -0.367  0.00  0.00    +0.005 A 
ATOM      5  C   UNL     1      -3.497   5.845  -0.540  0.00  0.00    +0.059 A 
ATOM      6  C   UNL     1      -3.428   7.216  -0.720  0.00  0.00    +0.162 A 
ATOM      7  C   UNL     1      -2.366   3.647  -0.154  0.00  0.00    +0.051 A 
ATOM      8  C   UNL     1      -3.525   2.946  -0.464  0.00  0.00    +0.037 A 
ATOM      9  C   UNL     1      -3.557   1.561  -0.287  0.00  0.00    +0.013 A 
ATOM     10  C   UNL     1      -2.408   0.935   0.198  0.00  0.00    +0.139 A 
ATOM     11  C   UNL     1      -1.294   1.704   0.498  0.00  0.00    +0.123 A 
ATOM     12  N   UNL     1      -1.300   3.023   0.341  0.00  0.00    -0.327 N 
ATOM     13  C   UNL     1      -0.118   3.780   0.764  0.00  0.00    +0.128 C 
ATOM     14  C   UNL     1       0.161   4.947  -0.179  0.00  0.00    +0.057 C 
ENDROOT
BRANCH   9  15
ATOM     15  C   UNL     1      -4.777   0.779  -0.607  0.00  0.00    -0.016 A 
ATOM     16  C   UNL     1      -4.724  -0.242  -1.553  0.00  0.00    +0.008 A 
ATOM     17  C   UNL     1      -5.860  -0.971  -1.842  0.00  0.00    +0.001 A 
ATOM     18  C   UNL     1      -7.052  -0.681  -1.203  0.00  0.00    +0.000 A 
ATOM     19  C   UNL     1      -7.111   0.335  -0.266  0.00  0.00    +0.001 A 
ATOM     20  C   UNL     1      -5.980   1.066   0.035  0.00  0.00    +0.008 A 
ENDBRANCH   9  15
BRANCH  11  21
ATOM     21  N   UNL     1      -0.147   1.082   0.979  0.00  0.00    -0.343 N 
ATOM     22  H   UNL     1       0.043   0.162   0.737  0.00  0.00    +0.144 HD
ATOM     23  H   UNL     1       0.464   1.569   1.553  0.00  0.00    +0.144 HD
ENDBRANCH  11  21
BRANCH  10  24
ATOM     24  S   UNL     1      -2.373  -0.812   0.426  0.00  0.00    +0.029 S 
ATOM     25  O   UNL     1      -3.715  -1.264   0.301  0.00  0.00    -0.164 OA
ATOM     26  O   UNL     1      -1.323  -1.308  -0.392  0.00  0.00    -0.164 OA
BRANCH  24  27
ATOM     27  C   UNL     1      -1.895  -1.110   2.095  0.00  0.00    +0.095 A 
ATOM     28  C   UNL     1      -0.558  -1.253   2.416  0.00  0.00    +0.027 A 
ATOM     29  C   UNL     1      -0.181  -1.482   3.727  0.00  0.00    +0.003 A 
ATOM     30  C   UNL     1      -1.143  -1.578   4.715  0.00  0.00    +0.020 A 
ATOM     31  C   UNL     1      -2.481  -1.440   4.394  0.00  0.00    +0.043 A 
ATOM     32  C   UNL     1      -2.857  -1.205   3.083  0.00  0.00    +0.047 A 
ATOM     33 CL   UNL     1      -3.689  -1.561   5.635  0.00  0.00    -0.083 Cl
ENDBRANCH  24  27
ENDBRANCH  10  24
BRANCH   1  35
ATOM     34  C   UNL     1      -0.831   9.802  -0.871  0.00  0.00    +0.277 C 
ATOM     35  O   UNL     1      -2.130   9.206  -0.886  0.00  0.00    -0.491 OA
ENDBRANCH   1  35
BRANCH   6  36
ATOM     36  O   UNL     1      -4.568   7.935  -0.901  0.00  0.00    -0.491 OA
ATOM     37  C   UNL     1      -5.800   7.211  -0.894  0.00  0.00    +0.277 C 
ENDBRANCH   6  36
TORSDOF 6
