REMARK  Name = ZINC20057696
REMARK  5 active torsions:
REMARK  status: ('A' for Active; 'I' for Inactive)
REMARK    1  A    between atoms: C_1  and  C_2
REMARK    2  A    between atoms: C_2  and  C_17
REMARK    3  A    between atoms: N_3  and  N_4
REMARK    4  A    between atoms: C_10  and  C_13
REMARK    5  A    between atoms: N_15  and  C_16
REMARK                            x       y       z     vdW  Elec       q    Type
REMARK                         _______ _______ _______ _____ _____    ______ ____
ROOT
ATOM      1  N   UNL     1       0.024   0.030   2.348  0.00  0.00    -0.126 NA
ATOM      2  C   UNL     1       0.044  -0.634   3.484  0.00  0.00    +0.183 C 
ATOM      3  N   UNL     1       0.069  -2.018   3.510  0.00  0.00    -0.264 N 
ATOM      4  C   UNL     1      -0.217  -2.748   4.577  0.00  0.00    +0.220 C 
ATOM      5  O   UNL     1      -0.278  -3.945   4.393  0.00  0.00    -0.275 OA
ATOM      6  C   UNL     1      -0.474  -2.295   5.973  0.00  0.00    +0.120 C 
ATOM      7  C   UNL     1      -1.045  -0.877   6.031  0.00  0.00    +0.148 C 
ATOM      8  S   UNL     1       0.047   0.206   5.044  0.00  0.00    -0.075 S 
ATOM      9  H   UNL     1       0.311  -2.482   2.693  0.00  0.00    +0.157 HD
ENDROOT
BRANCH   7  10
ATOM     10  C   UNL     1      -1.079  -0.400   7.460  0.00  0.00    +0.227 C 
ATOM     11  O   UNL     1      -0.204  -0.732   8.232  0.00  0.00    -0.275 OA
ATOM     12  N   UNL     1      -2.083   0.395   7.881  0.00  0.00    -0.317 N 
ATOM     13  C   UNL     1      -2.116   0.859   9.271  0.00  0.00    +0.128 C 
ATOM     14  H   UNL     1      -2.783   0.661   7.265  0.00  0.00    +0.148 HD
ENDBRANCH   7  10
BRANCH   1  17
ATOM     15  C   UNL     1      -0.018   1.503   0.010  0.00  0.00    +0.069 C 
ATOM     16  C   UNL     1       0.002  -0.004   0.002  0.00  0.00    +0.074 C 
ATOM     17  N   UNL     1       0.022  -0.664   1.131  0.00  0.00    -0.151 NA
BRANCH  16  18
ATOM     18  C   UNL     1      -0.000  -0.729  -1.269  0.00  0.00    +0.035 A 
ATOM     19  C   UNL     1       0.011  -2.096  -1.495  0.00  0.00    +0.017 A 
ATOM     20  C   UNL     1       0.006  -2.542  -2.796  0.00  0.00    +0.008 A 
ATOM     21  C   UNL     1      -0.009  -1.637  -3.810  0.00  0.00    +0.046 A 
ATOM     22  S   UNL     1      -0.025  -0.083  -2.933  0.00  0.00    -0.095 S 
ENDBRANCH  16  18
ENDBRANCH   1  17
TORSDOF 3
