REMARK  Name = ZINC59022353
REMARK  9 active torsions:
REMARK  status: ('A' for Active; 'I' for Inactive)
REMARK    1  A    between atoms: C_1  and  C_2
REMARK    2  A    between atoms: C_2  and  C_24
REMARK    3  A    between atoms: N_3  and  N_4
REMARK    4  A    between atoms: C_7  and  S_10
REMARK    5  A    between atoms: S_10  and  C_11
REMARK    6  A    between atoms: C_11  and  C_12
REMARK    7  A    between atoms: C_18  and  S_20
REMARK    8  A    between atoms: S_20  and  C_21
REMARK    9  A    between atoms: C_21  and  C_22
REMARK                            x       y       z     vdW  Elec       q    Type
REMARK                         _______ _______ _______ _____ _____    ______ ____
ROOT
ATOM      1  N   UNL     1      -1.058  -1.531   1.442  0.00  0.00    -0.205 N 
ATOM      2  C   UNL     1      -1.589  -1.801   2.690  0.00  0.00    +0.232 A 
ATOM      3  N   UNL     1      -1.561  -0.999   3.733  0.00  0.00    -0.186 NA
ATOM      4  C   UNL     1      -2.170  -1.587   4.769  0.00  0.00    +0.211 A 
ATOM      5  N   UNL     1      -2.593  -2.772   4.398  0.00  0.00    -0.144 NA
ATOM      6  N   UNL     1      -2.233  -2.932   3.050  0.00  0.00    -0.245 N 
ATOM      7  H   UNL     1      -1.133  -2.186   0.731  0.00  0.00    +0.177 HD
ATOM      8  H   UNL     1      -2.409  -3.704   2.490  0.00  0.00    +0.192 HD
ENDROOT
BRANCH   1  11
ATOM      9  C   UNL     1       0.821   1.226  -0.221  0.00  0.00    +0.068 C 
ATOM     10  C   UNL     1      -0.010  -0.011   0.007  0.00  0.00    +0.063 C 
ATOM     11  N   UNL     1      -0.413  -0.310   1.204  0.00  0.00    -0.184 NA
BRANCH  10  12
ATOM     12  C   UNL     1      -0.364  -0.880  -1.129  0.00  0.00    -0.002 A 
ATOM     13  C   UNL     1      -1.646  -1.460  -1.192  0.00  0.00    +0.010 A 
ATOM     14  C   UNL     1      -1.995  -2.264  -2.228  0.00  0.00    +0.009 A 
ATOM     15  C   UNL     1      -1.072  -2.528  -3.257  0.00  0.00    -0.018 A 
ATOM     16  C   UNL     1      -1.412  -3.357  -4.338  0.00  0.00    +0.008 A 
ATOM     17  C   UNL     1      -0.498  -3.596  -5.319  0.00  0.00    +0.001 A 
ATOM     18  C   UNL     1       0.774  -3.029  -5.269  0.00  0.00    +0.001 A 
ATOM     19  C   UNL     1       1.139  -2.220  -4.237  0.00  0.00    +0.008 A 
ATOM     20  C   UNL     1       0.222  -1.951  -3.205  0.00  0.00    -0.017 A 
ATOM     21  C   UNL     1       0.565  -1.118  -2.130  0.00  0.00    +0.018 A 
ENDBRANCH  10  12
ENDBRANCH   1  11
BRANCH   4  22
ATOM     22  S   UNL     1      -2.370  -0.883   6.372  0.00  0.00    -0.075 S 
BRANCH  22  23
ATOM     23  C   UNL     1      -3.261  -2.160   7.303  0.00  0.00    +0.173 C 
BRANCH  23  24
ATOM     24  C   UNL     1      -3.500  -1.680   8.711  0.00  0.00    +0.229 C 
ATOM     25  O   UNL     1      -3.108  -0.584   9.053  0.00  0.00    -0.275 OA
ATOM     26  N   UNL     1      -4.150  -2.468   9.591  0.00  0.00    -0.263 N 
ATOM     27  C   UNL     1      -4.371  -2.024  10.892  0.00  0.00    +0.189 A 
ATOM     28  N   UNL     1      -4.040  -0.880  11.468  0.00  0.00    -0.125 NA
ATOM     29  N   UNL     1      -4.319  -0.633  12.673  0.00  0.00    -0.133 NA
ATOM     30  C   UNL     1      -4.962  -1.505  13.436  0.00  0.00    +0.160 A 
ATOM     31  S   UNL     1      -5.191  -2.836  12.261  0.00  0.00    -0.024 S 
ATOM     32  H   UNL     1      -4.463  -3.344   9.317  0.00  0.00    +0.157 HD
BRANCH  30  33
ATOM     33  S   UNL     1      -5.455  -1.386  15.124  0.00  0.00    -0.093 S 
BRANCH  33  34
ATOM     34  C   UNL     1      -4.877   0.256  15.635  0.00  0.00    +0.103 C 
BRANCH  34  35
ATOM     35  C   UNL     1      -5.239   0.489  17.079  0.00  0.00    -0.023 C 
ATOM     36  C   UNL     1      -4.296   0.618  17.979  0.00  0.00    +0.005 C 
ENDBRANCH  34  35
ENDBRANCH  33  34
ENDBRANCH  30  33
ENDBRANCH  23  24
ENDBRANCH  22  23
ENDBRANCH   4  22
TORSDOF 8
