REMARK  Name = ZINC24781957
REMARK  8 active torsions:
REMARK  status: ('A' for Active; 'I' for Inactive)
REMARK    1  A    between atoms: C_1  and  C_2
REMARK    2  A    between atoms: C_2  and  C_4
REMARK    3  A    between atoms: C_2  and  O_15
REMARK    4  A    between atoms: N_6  and  C_7
REMARK    5  A    between atoms: O_15  and  C_16
REMARK    6  A    between atoms: C_16  and  C_18
REMARK    7  A    between atoms: C_20  and  S_25
REMARK    8  A    between atoms: S_25  and  N_28
REMARK                            x       y       z     vdW  Elec       q    Type
REMARK                         _______ _______ _______ _____ _____    ______ ____
ROOT
ATOM      1  O   UNL     1       0.683  -0.498   1.160  0.00  0.00    -0.449 OA
ENDROOT
BRANCH   1   3
ATOM      2  C   UNL     1      -0.032   1.510   0.021  0.00  0.00    +0.062 C 
ATOM      3  C   UNL     1      -0.006  -0.020   0.003  0.00  0.00    +0.259 C 
BRANCH   3   4
ATOM      4  C   UNL     1       0.705  -0.496  -1.238  0.00  0.00    +0.258 C 
ATOM      5  O   UNL     1       1.752  -1.100  -1.143  0.00  0.00    -0.271 OA
ATOM      6  N   UNL     1       0.176  -0.250  -2.453  0.00  0.00    -0.281 N 
ATOM      7  H   UNL     1      -0.692   0.175  -2.527  0.00  0.00    +0.155 HD
BRANCH   6   8
ATOM      8  C   UNL     1       0.881  -0.608  -3.608  0.00  0.00    +0.053 A 
ATOM      9  C   UNL     1       1.665  -1.754  -3.617  0.00  0.00    +0.044 A 
ATOM     10  C   UNL     1       2.360  -2.106  -4.760  0.00  0.00    +0.043 A 
ATOM     11  C   UNL     1       2.274  -1.316  -5.893  0.00  0.00    +0.021 A 
ATOM     12  C   UNL     1       1.495  -0.174  -5.887  0.00  0.00    +0.023 A 
ATOM     13  C   UNL     1       0.793   0.179  -4.750  0.00  0.00    +0.062 A 
ATOM     14 CL   UNL     1      -0.191   1.609  -4.745  0.00  0.00    -0.082 Cl
ATOM     15 CL   UNL     1       3.341  -3.538  -4.772  0.00  0.00    -0.083 Cl
ENDBRANCH   6   8
ENDBRANCH   3   4
ENDBRANCH   1   3
BRANCH   1  16
ATOM     16  C   UNL     1      -0.057  -0.728   2.262  0.00  0.00    +0.341 C 
ATOM     17  O   UNL     1      -1.255  -0.528   2.241  0.00  0.00    -0.245 OA
BRANCH  16  18
ATOM     18  C   UNL     1       0.587  -1.223   3.494  0.00  0.00    +0.079 A 
ATOM     19  C   UNL     1       1.965  -1.449   3.523  0.00  0.00    +0.045 A 
ATOM     20  C   UNL     1       2.561  -1.911   4.678  0.00  0.00    +0.106 A 
ATOM     21  C   UNL     1       1.797  -2.152   5.807  0.00  0.00    +0.030 A 
ATOM     22  C   UNL     1       0.432  -1.931   5.787  0.00  0.00    +0.023 A 
ATOM     23  C   UNL     1      -0.177  -1.462   4.639  0.00  0.00    +0.055 A 
ATOM     24 CL   UNL     1      -1.890  -1.178   4.617  0.00  0.00    -0.083 Cl
BRANCH  20  25
ATOM     25  S   UNL     1       4.299  -2.197   4.716  0.00  0.00    +0.056 S 
ATOM     26  O   UNL     1       4.532  -3.148   5.746  0.00  0.00    -0.153 OA
ATOM     27  O   UNL     1       4.704  -2.417   3.372  0.00  0.00    -0.153 OA
BRANCH  25  28
ATOM     28  N   UNL     1       5.017  -0.786   5.202  0.00  0.00    -0.204 NA
ATOM     29  H   UNL     1       5.852  -0.812   5.695  0.00  0.00    +0.144 HD
ATOM     30  H   UNL     1       4.603   0.065   4.994  0.00  0.00    +0.144 HD
ENDBRANCH  25  28
ENDBRANCH  20  25
ENDBRANCH  16  18
ENDBRANCH   1  16
TORSDOF 7
