REMARK  Name = ZINC09013502
REMARK  5 active torsions:
REMARK  status: ('A' for Active; 'I' for Inactive)
REMARK    1  A    between atoms: C_1  and  C_2
REMARK    2  A    between atoms: C_6  and  N_9
REMARK    3  A    between atoms: C_7  and  C_8
REMARK    4  A    between atoms: C_14  and  C_29
REMARK    5  A    between atoms: C_19  and  C_22
REMARK                            x       y       z     vdW  Elec       q    Type
REMARK                         _______ _______ _______ _____ _____    ______ ____
ROOT
ATOM      1  N   UNL     1       0.053  -2.797   2.392  0.00  0.00    -0.287 N 
ATOM      2  C   UNL     1      -0.032  -4.162   2.385  0.00  0.00    +0.189 C 
ATOM      3  N   UNL     1      -0.024  -4.824   1.242  0.00  0.00    -0.182 NA
ATOM      4  C   UNL     1      -0.113  -6.163   1.212  0.00  0.00    +0.238 A 
ATOM      5  N   UNL     1       0.139  -6.809   0.078  0.00  0.00    -0.217 NA
ATOM      6  C   UNL     1       0.118  -8.135   0.017  0.00  0.00    +0.047 A 
ATOM      7  C   UNL     1      -0.158  -8.875   1.132  0.00  0.00    +0.093 A 
ATOM      8  C   UNL     1      -0.446  -8.207   2.335  0.00  0.00    +0.257 A 
ATOM      9  O   UNL     1      -0.681  -8.835   3.355  0.00  0.00    -0.267 OA
ATOM     10  N   UNL     1      -0.457  -6.861   2.339  0.00  0.00    -0.254 N 
ATOM     11  C   UNL     1      -0.875  -6.126   3.541  0.00  0.00    +0.212 C 
ATOM     12  N   UNL     1      -0.120  -4.857   3.565  0.00  0.00    -0.292 N 
ATOM     13  C   UNL     1       0.400  -8.828  -1.291  0.00  0.00    +0.066 C 
ATOM     14  H   UNL     1       0.135  -2.321   3.233  0.00  0.00    +0.155 HD
ATOM     15  H   UNL     1       0.293  -4.527   4.378  0.00  0.00    +0.151 HD
ENDROOT
BRANCH   1  21
ATOM     16  C   UNL     1       1.196   1.236  -0.176  0.00  0.00    +0.044 C 
ATOM     17  C   UNL     1       0.568  -0.131  -0.086  0.00  0.00    -0.046 A 
ATOM     18  C   UNL     1      -0.041  -0.685  -1.197  0.00  0.00    +0.004 A 
ATOM     19  C   UNL     1      -0.619  -1.939  -1.119  0.00  0.00    +0.002 A 
ATOM     20  C   UNL     1      -0.590  -2.642   0.070  0.00  0.00    +0.023 A 
ATOM     21  C   UNL     1       0.021  -2.088   1.187  0.00  0.00    +0.037 A 
ATOM     22  C   UNL     1       0.605  -0.831   1.104  0.00  0.00    -0.026 A 
ATOM     23  C   UNL     1       1.274  -0.228   2.312  0.00  0.00    +0.046 C 
ENDBRANCH   1  21
BRANCH  11  24
ATOM     24  C   UNL     1      -2.355  -5.847   3.481  0.00  0.00    -0.006 A 
ATOM     25  C   UNL     1      -3.197  -6.723   2.821  0.00  0.00    +0.010 A 
ATOM     26  C   UNL     1      -4.554  -6.469   2.766  0.00  0.00    +0.039 A 
ATOM     27  C   UNL     1      -5.071  -5.337   3.373  0.00  0.00    +0.123 A 
ATOM     28  C   UNL     1      -4.227  -4.460   4.033  0.00  0.00    +0.039 A 
ATOM     29  C   UNL     1      -2.871  -4.719   4.091  0.00  0.00    +0.010 A 
ATOM     30  F   UNL     1      -6.398  -5.087   3.319  0.00  0.00    -0.205 F 
ENDBRANCH  11  24
TORSDOF 2
