REMARK  Name = ZINC09501148
REMARK  10 active torsions:
REMARK  status: ('A' for Active; 'I' for Inactive)
REMARK    1  A    between atoms: C_1  and  O_2
REMARK    2  A    between atoms: O_2  and  C_3
REMARK    3  A    between atoms: C_6  and  C_9
REMARK    4  A    between atoms: C_9  and  C_11
REMARK    5  A    between atoms: C_9  and  N_72
REMARK    6  A    between atoms: C_11  and  N_12
REMARK    7  A    between atoms: C_13  and  C_15
REMARK    8  A    between atoms: C_15  and  C_16
REMARK    9  A    between atoms: C_19  and  S_22
REMARK   10  A    between atoms: S_22  and  N_25
REMARK                            x       y       z     vdW  Elec       q    Type
REMARK                         _______ _______ _______ _____ _____    ______ ____
ROOT
ATOM      1  N   UNL     1       7.572  -2.784  -5.400  0.00  0.00    -0.316 N 
ATOM      2  C   UNL     1       7.260  -1.871  -4.458  0.00  0.00    +0.217 C 
ATOM      3  O   UNL     1       7.952  -1.759  -3.469  0.00  0.00    -0.275 OA
ATOM      4  H   UNL     1       7.018  -2.873  -6.191  0.00  0.00    +0.149 HD
ENDROOT
BRANCH   1   5
ATOM      5  C   UNL     1       8.748  -3.640  -5.229  0.00  0.00    +0.093 C 
BRANCH   5   6
ATOM      6  C   UNL     1       8.875  -4.579  -6.430  0.00  0.00    -0.020 C 
BRANCH   6  12
ATOM      7  C   UNL     1       7.348  -6.165  -5.424  0.00  0.00    -0.078 C 
ATOM      8  C   UNL     1       5.972  -6.817  -5.571  0.00  0.00    -0.019 C 
ATOM      9  C   UNL     1       5.950  -7.670  -6.843  0.00  0.00    -0.004 C 
ATOM     10  C   UNL     1       6.288  -6.786  -8.047  0.00  0.00    -0.019 C 
ATOM     11  C   UNL     1       7.655  -6.134  -7.827  0.00  0.00    -0.078 C 
ATOM     12  N   UNL     1       7.602  -5.309  -6.602  0.00  0.00    +0.385 N 
ATOM     13  H   UNL     1       6.838  -4.629  -6.691  0.00  0.00    -0.081 HD
ENDBRANCH   6  12
BRANCH   6  17
ATOM     14  C   UNL     1      12.097  -7.308  -5.771  0.00  0.00    +0.120 A 
ATOM     15  C   UNL     1      12.022  -6.596  -6.959  0.00  0.00    +0.046 A 
ATOM     16  C   UNL     1      10.979  -5.714  -7.170  0.00  0.00    +0.005 A 
ATOM     17  C   UNL     1      10.011  -5.541  -6.198  0.00  0.00    -0.059 A 
ATOM     18  C   UNL     1      10.087  -6.246  -5.011  0.00  0.00    +0.005 A 
ATOM     19  C   UNL     1      11.124  -7.133  -4.797  0.00  0.00    +0.046 A 
BRANCH  14  21
ATOM     20  C   UNL     1      13.134  -8.875  -4.314  0.00  0.00    +0.277 C 
ATOM     21  O   UNL     1      13.121  -8.176  -5.561  0.00  0.00    -0.495 OA
ENDBRANCH  14  21
ENDBRANCH   6  17
ENDBRANCH   5   6
ENDBRANCH   1   5
BRANCH   2  22
ATOM     22  C   UNL     1       6.050  -0.991  -4.635  0.00  0.00    +0.130 C 
BRANCH  22  23
ATOM     23  C   UNL     1       5.925  -0.066  -3.451  0.00  0.00    -0.039 A 
ATOM     24  C   UNL     1       6.541   1.171  -3.473  0.00  0.00    +0.006 A 
ATOM     25  C   UNL     1       6.426   2.019  -2.387  0.00  0.00    +0.029 A 
ATOM     26  C   UNL     1       5.693   1.631  -1.281  0.00  0.00    +0.105 A 
ATOM     27  C   UNL     1       5.081   0.392  -1.258  0.00  0.00    +0.029 A 
ATOM     28  C   UNL     1       5.193  -0.455  -2.345  0.00  0.00    +0.006 A 
BRANCH  26  29
ATOM     29  S   UNL     1       5.546   2.713   0.102  0.00  0.00    +0.061 S 
ATOM     30  O   UNL     1       6.667   3.585   0.057  0.00  0.00    -0.153 OA
ATOM     31  O   UNL     1       5.263   1.895   1.229  0.00  0.00    -0.153 OA
BRANCH  29  32
ATOM     32  N   UNL     1       4.205   3.651  -0.151  0.00  0.00    -0.177 NA
ATOM     33  C   UNL     1       2.886   3.217   0.330  0.00  0.00    +0.109 C 
ATOM     34  C   UNL     1       1.901   3.242  -0.842  0.00  0.00    +0.017 C 
ATOM     35  C   UNL     1       1.910   4.633  -1.481  0.00  0.00    +0.003 C 
ATOM     36  C   UNL     1       3.310   4.939  -2.020  0.00  0.00    +0.017 C 
ATOM     37  C   UNL     1       4.311   4.933  -0.860  0.00  0.00    +0.109 C 
ENDBRANCH  29  32
ENDBRANCH  26  29
ENDBRANCH  22  23
ENDBRANCH   2  22
TORSDOF 9
