REMARK  Name = ZINC33326938
REMARK  7 active torsions:
REMARK  status: ('A' for Active; 'I' for Inactive)
REMARK    1  A    between atoms: C_1  and  C_2
REMARK    2  A    between atoms: C_6  and  N_8
REMARK    3  A    between atoms: N_8  and  C_9
REMARK    4  A    between atoms: N_15  and  C_16
REMARK    5  A    between atoms: C_19  and  N_22
REMARK    6  A    between atoms: N_22  and  S_23
REMARK    7  A    between atoms: S_23  and  C_26
REMARK                            x       y       z     vdW  Elec       q    Type
REMARK                         _______ _______ _______ _____ _____    ______ ____
ROOT
ATOM      1  C   UNL     1      -1.531   1.359  -0.263  0.00  0.00    +0.086 C 
ATOM      2  C   UNL     1      -1.220  -0.114  -0.210  0.00  0.00    +0.107 A 
ATOM      3  N   UNL     1      -0.753  -0.708  -1.289  0.00  0.00    -0.332 N 
ATOM      4  C   UNL     1      -0.466  -2.009  -1.283  0.00  0.00    +0.105 A 
ATOM      5  C   UNL     1      -0.667  -2.740  -0.116  0.00  0.00    +0.085 A 
ATOM      6  C   UNL     1      -1.161  -2.074   1.002  0.00  0.00    +0.124 A 
ATOM      7  N   UNL     1      -1.419  -0.770   0.915  0.00  0.00    -0.220 NA
ATOM      8  N   UNL     1       0.025  -2.627  -2.424  0.00  0.00    -0.301 N 
ATOM      9  H   UNL     1       0.282  -2.092  -3.192  0.00  0.00    +0.154 HD
ATOM     10  H   UNL     1      -0.616  -0.192  -2.098  0.00  0.00    +0.168 HD
ENDROOT
BRANCH   8  11
ATOM     11  C   UNL     1       0.149  -4.021  -2.467  0.00  0.00    +0.032 A 
ATOM     12  C   UNL     1      -0.852  -4.824  -1.936  0.00  0.00    +0.025 A 
ATOM     13  C   UNL     1      -0.730  -6.199  -1.979  0.00  0.00    +0.028 A 
ATOM     14  C   UNL     1       0.394  -6.778  -2.554  0.00  0.00    +0.074 A 
ATOM     15  C   UNL     1       1.394  -5.975  -3.086  0.00  0.00    +0.028 A 
ATOM     16  C   UNL     1       1.270  -4.601  -3.047  0.00  0.00    +0.025 A 
BRANCH  14  17
ATOM     17  N   UNL     1       0.517  -8.172  -2.598  0.00  0.00    -0.098 NA
BRANCH  17  18
ATOM     18  S   UNL     1       1.857  -8.863  -3.283  0.00  0.00    +0.094 S 
ATOM     19  O   UNL     1       1.812  -8.549  -4.668  0.00  0.00    -0.148 OA
ATOM     20  O   UNL     1       2.961  -8.515  -2.459  0.00  0.00    -0.148 OA
BRANCH  18  21
ATOM     21  C   UNL     1       1.664 -10.610  -3.157  0.00  0.00    +0.148 A 
ATOM     22  C   UNL     1       1.540 -11.376  -4.300  0.00  0.00    +0.070 A 
ATOM     23  C   UNL     1       1.389 -12.748  -4.201  0.00  0.00    +0.125 A 
ATOM     24  C   UNL     1       1.363 -13.354  -2.956  0.00  0.00    +0.041 A 
ATOM     25  C   UNL     1       1.488 -12.588  -1.813  0.00  0.00    +0.043 A 
ATOM     26  C   UNL     1       1.644 -11.215  -1.912  0.00  0.00    +0.150 A 
ATOM     27  F   UNL     1       1.771 -10.467  -0.795  0.00  0.00    -0.203 F 
ATOM     28  F   UNL     1       1.266 -13.497  -5.319  0.00  0.00    -0.205 F 
ENDBRANCH  18  21
ENDBRANCH  17  18
ENDBRANCH  14  17
ENDBRANCH   8  11
BRANCH   6  29
ATOM     29  N   UNL     1      -1.379  -2.757   2.188  0.00  0.00    -0.326 N 
ATOM     30  H   UNL     1      -1.724  -2.286   2.963  0.00  0.00    +0.148 HD
BRANCH  29  31
ATOM     31  C   UNL     1      -1.088  -4.190   2.272  0.00  0.00    +0.072 C 
ATOM     32  C   UNL     1      -2.292  -4.986   1.764  0.00  0.00    +0.022 C 
ATOM     33  C   UNL     1      -1.988  -6.483   1.852  0.00  0.00    +0.002 C 
ATOM     34  C   UNL     1      -1.704  -6.861   3.307  0.00  0.00    +0.000 C 
ATOM     35  C   UNL     1      -0.500  -6.065   3.815  0.00  0.00    +0.002 C 
ATOM     36  C   UNL     1      -0.804  -4.569   3.727  0.00  0.00    +0.022 C 
ENDBRANCH  29  31
ENDBRANCH   6  29
TORSDOF 6
