REMARK  Name = ZINC14944315
REMARK  6 active torsions:
REMARK  status: ('A' for Active; 'I' for Inactive)
REMARK    1  A    between atoms: C_4  and  C_7
REMARK    2  A    between atoms: C_7  and  O_8
REMARK    3  A    between atoms: O_8  and  C_9
REMARK    4  A    between atoms: C_9  and  C_11
REMARK    5  A    between atoms: C_16  and  C_33
REMARK    6  A    between atoms: N_24  and  C_27
REMARK                            x       y       z     vdW  Elec       q    Type
REMARK                         _______ _______ _______ _____ _____    ______ ____
ROOT
ATOM      1  C   UNL     1       4.137   6.397   0.610  0.00  0.00    +0.132 C 
ATOM      2  C   UNL     1       5.275   7.438   0.658  0.00  0.00    +0.036 C 
ATOM      3  C   UNL     1       6.564   6.582   0.716  0.00  0.00    +0.018 C 
ATOM      4  C   UNL     1       6.099   5.366   1.553  0.00  0.00    +0.086 C 
ATOM      5  N   UNL     1       4.719   5.107   1.111  0.00  0.00    -0.278 NA
ATOM      6  C   UNL     1       4.723   4.131  -0.022  0.00  0.00    +0.117 C 
ATOM      7  C   UNL     1       4.768   5.030  -1.254  0.00  0.00    +0.113 C 
ATOM      8  C   UNL     1       3.706   6.086  -0.764  0.00  0.00    +0.121 C 
ATOM      9  C   UNL     1       3.377   6.764  -1.996  0.00  0.00    +0.232 C 
ATOM     10  O   UNL     1       3.095   7.934  -2.144  0.00  0.00    -0.274 OA
ATOM     11  N   UNL     1       3.454   5.792  -2.963  0.00  0.00    -0.210 N 
ATOM     12  C   UNL     1       4.065   4.652  -2.519  0.00  0.00    +0.232 C 
ATOM     13  O   UNL     1       4.041   3.560  -3.043  0.00  0.00    -0.274 OA
ENDROOT
BRANCH   6  14
ATOM     14  C   UNL     1       3.464   3.302  -0.014  0.00  0.00    +0.035 A 
ATOM     15  C   UNL     1       3.445   2.092  -0.705  0.00  0.00    +0.023 A 
ATOM     16  C   UNL     1       2.314   1.328  -0.709  0.00  0.00    +0.012 A 
ATOM     17  C   UNL     1       1.191   1.799  -0.002  0.00  0.00    -0.002 A 
ATOM     18  C   UNL     1      -0.007   1.068   0.038  0.00  0.00    +0.010 A 
ATOM     19  C   UNL     1      -1.073   1.561   0.728  0.00  0.00    +0.001 A 
ATOM     20  C   UNL     1      -0.987   2.776   1.404  0.00  0.00    +0.002 A 
ATOM     21  C   UNL     1       0.158   3.511   1.385  0.00  0.00    +0.026 A 
ATOM     22  C   UNL     1       1.279   3.038   0.679  0.00  0.00    +0.047 A 
ATOM     23  N   UNL     1       2.417   3.739   0.642  0.00  0.00    -0.357 N 
ATOM     24  H   UNL     1       2.464   4.699   1.177  0.00  0.00    +0.166 HD
ENDBRANCH   6  14
BRANCH  11  25
ATOM     25  C   UNL     1       2.959   5.951  -4.265  0.00  0.00    +0.044 A 
ATOM     26  C   UNL     1       2.347   7.141  -4.636  0.00  0.00    +0.024 A 
ATOM     27  C   UNL     1       1.864   7.296  -5.921  0.00  0.00    +0.002 A 
ATOM     28  C   UNL     1       1.983   6.265  -6.835  0.00  0.00    +0.000 A 
ATOM     29  C   UNL     1       2.588   5.077  -6.467  0.00  0.00    +0.002 A 
ATOM     30  C   UNL     1       3.077   4.918  -5.185  0.00  0.00    +0.024 A 
ENDBRANCH  11  25
BRANCH   1  31
ATOM     31  C   UNL     1       2.968   6.842   1.450  0.00  0.00    +0.329 C 
ATOM     32  O   UNL     1       1.997   7.332   0.924  0.00  0.00    -0.249 OA
BRANCH  31  33
ATOM     33  O   UNL     1       3.005   6.694   2.784  0.00  0.00    -0.459 OA
BRANCH  33  34
ATOM     34  C   UNL     1       1.844   7.145   3.530  0.00  0.00    +0.267 C 
BRANCH  34  38
ATOM     35  C   UNL     1       2.471   6.451   7.698  0.00  0.00    +0.000 A 
ATOM     36  C   UNL     1       2.860   7.650   7.130  0.00  0.00    +0.000 A 
ATOM     37  C   UNL     1       2.657   7.874   5.782  0.00  0.00    +0.007 A 
ATOM     38  C   UNL     1       2.065   6.900   5.000  0.00  0.00    -0.010 A 
ATOM     39  C   UNL     1       1.671   5.703   5.569  0.00  0.00    +0.007 A 
ATOM     40  C   UNL     1       1.878   5.477   6.916  0.00  0.00    +0.000 A 
ENDBRANCH  34  38
ENDBRANCH  33  34
ENDBRANCH  31  33
ENDBRANCH   1  31
TORSDOF 6
