REMARK  Name = ZINC21239324
REMARK  6 active torsions:
REMARK  status: ('A' for Active; 'I' for Inactive)
REMARK    1  A    between atoms: C_1  and  C_2
REMARK    2  A    between atoms: C_2  and  C_3
REMARK    3  A    between atoms: C_3  and  O_4
REMARK    4  A    between atoms: O_4  and  C_5
REMARK    5  A    between atoms: C_8  and  C_11
REMARK    6  A    between atoms: C_16  and  C_26
REMARK                            x       y       z     vdW  Elec       q    Type
REMARK                         _______ _______ _______ _____ _____    ______ ____
ROOT
ATOM      1  C   UNL     1       1.969  -2.770   4.170  0.00  0.00    +0.032 C 
ATOM      2  C   UNL     1       2.767  -3.699   3.259  0.00  0.00    +0.059 C 
ATOM      3  C   UNL     1       2.629  -3.256   1.812  0.00  0.00    +0.017 C 
ATOM      4  C   UNL     1       1.499  -2.669   1.385  0.00  0.00    +0.036 C 
ATOM      5  C   UNL     1       1.228  -2.186  -0.020  0.00  0.00    +0.136 C 
ATOM      6  N   UNL     1       2.195  -2.628  -1.002  0.00  0.00    -0.331 N 
ATOM      7  C   UNL     1       3.523  -2.216  -0.932  0.00  0.00    +0.049 A 
ATOM      8  C   UNL     1       4.079  -1.403  -1.909  0.00  0.00    +0.025 A 
ATOM      9  C   UNL     1       5.388  -0.975  -1.775  0.00  0.00    +0.002 A 
ATOM     10  C   UNL     1       6.139  -1.350  -0.676  0.00  0.00    +0.002 A 
ATOM     11  C   UNL     1       5.594  -2.178   0.291  0.00  0.00    +0.025 A 
ATOM     12  C   UNL     1       4.293  -2.625   0.146  0.00  0.00    +0.052 A 
ATOM     13  N   UNL     1       3.710  -3.523   1.034  0.00  0.00    -0.316 N 
ATOM     14  C   UNL     1       0.426  -2.452   2.280  0.00  0.00    +0.163 C 
ATOM     15  O   UNL     1      -0.593  -1.938   1.862  0.00  0.00    -0.292 OA
ATOM     16  C   UNL     1       0.502  -2.833   3.729  0.00  0.00    +0.088 C 
ATOM     17  H   UNL     1       1.885  -3.298  -1.818  0.00  0.00    +0.147 HD
ATOM     18  H   UNL     1       4.189  -4.511   1.079  0.00  0.00    +0.152 HD
ENDROOT
BRANCH   5  19
ATOM     19  C   UNL     1       1.208  -0.680  -0.013  0.00  0.00    -0.021 A 
ATOM     20  C   UNL     1       0.037  -0.002  -0.295  0.00  0.00    +0.006 A 
ATOM     21  C   UNL     1       0.018   1.380  -0.287  0.00  0.00    +0.002 A 
ATOM     22  C   UNL     1       1.171   2.086   0.002  0.00  0.00    +0.020 A 
ATOM     23  C   UNL     1       2.344   1.408   0.283  0.00  0.00    +0.041 A 
ATOM     24  C   UNL     1       2.362   0.025   0.276  0.00  0.00    +0.025 A 
ATOM     25 CL   UNL     1       3.792   2.294   0.647  0.00  0.00    -0.084 Cl
ENDBRANCH   5  19
BRANCH   1  29
ATOM     26  C   UNL     1       2.318  -4.067   8.227  0.00  0.00    +0.121 A 
ATOM     27  C   UNL     1       2.714  -2.786   7.871  0.00  0.00    +0.046 A 
ATOM     28  C   UNL     1       2.601  -2.369   6.559  0.00  0.00    +0.007 A 
ATOM     29  C   UNL     1       2.092  -3.227   5.601  0.00  0.00    -0.043 A 
ATOM     30  C   UNL     1       1.691  -4.502   5.955  0.00  0.00    +0.007 A 
ATOM     31  C   UNL     1       1.808  -4.926   7.264  0.00  0.00    +0.046 A 
BRANCH  26  32
ATOM     32  O   UNL     1       2.429  -4.480   9.517  0.00  0.00    -0.492 OA
BRANCH  32  33
ATOM     33  C   UNL     1       2.001  -5.811   9.812  0.00  0.00    +0.229 C 
BRANCH  33  35
ATOM     34  C   UNL     1       1.743  -7.519  11.617  0.00  0.00    +0.007 C 
ATOM     35  C   UNL     1       2.201  -6.093  11.302  0.00  0.00    +0.038 C 
ENDBRANCH  33  35
ENDBRANCH  32  33
ENDBRANCH  26  32
ENDBRANCH   1  29
TORSDOF 5
