REMARK  Name = ZINC08451385
REMARK  8 active torsions:
REMARK  status: ('A' for Active; 'I' for Inactive)
REMARK    1  A    between atoms: C_1  and  C_2
REMARK    2  A    between atoms: C_2  and  C_3
REMARK    3  A    between atoms: C_6  and  N_9
REMARK    4  A    between atoms: C_10  and  C_34
REMARK    5  A    between atoms: C_12  and  C_15
REMARK    6  A    between atoms: C_13  and  C_14
REMARK    7  A    between atoms: C_25  and  C_27
REMARK    8  A    between atoms: C_30  and  C_33
REMARK                            x       y       z     vdW  Elec       q    Type
REMARK                         _______ _______ _______ _____ _____    ______ ____
ROOT
ATOM      1  C   UNL     1       0.034  -3.340  -1.427  0.00  0.00    +0.026 C 
ATOM      2  C   UNL     1       0.520  -3.292  -2.717  0.00  0.00    +0.081 C 
ATOM      3  C   UNL     1       0.447  -4.468  -3.628  0.00  0.00    +0.153 C 
ATOM      4  N   UNL     1       0.534  -5.704  -3.211  0.00  0.00    -0.283 NA
ATOM      5  N   UNL     1       0.275  -4.118  -4.984  0.00  0.00    -0.152 N 
ATOM      6  C   UNL     1       0.659  -2.852  -5.370  0.00  0.00    +0.181 C 
ATOM      7  N   UNL     1       1.109  -1.887  -4.607  0.00  0.00    -0.152 NA
ATOM      8  C   UNL     1       1.138  -2.064  -3.274  0.00  0.00    +0.273 C 
ATOM      9  O   UNL     1       1.662  -1.238  -2.544  0.00  0.00    -0.268 OA
ATOM     10  S   UNL     1       0.345  -2.878  -7.115  0.00  0.00    -0.033 S 
ATOM     11  C   UNL     1      -0.305  -4.540  -7.213  0.00  0.00    +0.130 C 
ATOM     12  N   UNL     1      -0.232  -4.941  -5.968  0.00  0.00    -0.164 NA
ATOM     13  H   UNL     1       0.480  -6.435  -3.846  0.00  0.00    +0.188 HD
ENDROOT
BRANCH   1  17
ATOM     14  N   UNL     1       0.000  -0.750   1.059  0.00  0.00    -0.317 N 
ATOM     15  C   UNL     1      -0.268   0.004  -0.050  0.00  0.00    +0.022 A 
ATOM     16  C   UNL     1      -0.308  -0.795  -1.129  0.00  0.00    +0.031 A 
ATOM     17  C   UNL     1      -0.032  -2.156  -0.649  0.00  0.00    -0.003 A 
ATOM     18  C   UNL     1       0.145  -2.047   0.721  0.00  0.00    +0.028 A 
ATOM     19  C   UNL     1       0.447  -3.179   1.668  0.00  0.00    +0.064 C 
ATOM     20  C   UNL     1      -0.491   1.495  -0.059  0.00  0.00    +0.064 C 
BRANCH  14  24
ATOM     21  C   UNL     1       0.323   0.750   4.934  0.00  0.00    -0.047 A 
ATOM     22  C   UNL     1      -0.888   0.811   4.270  0.00  0.00    +0.005 A 
ATOM     23  C   UNL     1      -0.999   0.315   2.985  0.00  0.00    +0.026 A 
ATOM     24  C   UNL     1       0.108  -0.245   2.362  0.00  0.00    +0.047 A 
ATOM     25  C   UNL     1       1.322  -0.310   3.034  0.00  0.00    +0.026 A 
ATOM     26  C   UNL     1       1.427   0.193   4.316  0.00  0.00    +0.005 A 
BRANCH  21  28
ATOM     27  C   UNL     1       0.123   0.183   7.340  0.00  0.00    +0.009 C 
ATOM     28  C   UNL     1       0.439   1.292   6.335  0.00  0.00    +0.032 C 
ENDBRANCH  21  28
ENDBRANCH  14  24
ENDBRANCH   1  17
BRANCH  11  29
ATOM     29  C   UNL     1      -0.800  -5.275  -8.398  0.00  0.00    +0.009 A 
ATOM     30  C   UNL     1      -1.268  -6.583  -8.266  0.00  0.00    +0.011 A 
ATOM     31  C   UNL     1      -1.733  -7.261  -9.374  0.00  0.00    +0.004 A 
ATOM     32  C   UNL     1      -1.726  -6.651 -10.616  0.00  0.00    -0.050 A 
ATOM     33  C   UNL     1      -1.259  -5.356 -10.754  0.00  0.00    +0.004 A 
ATOM     34  C   UNL     1      -0.796  -4.665  -9.653  0.00  0.00    +0.011 A 
ATOM     35  C   UNL     1      -2.231  -7.400 -11.823  0.00  0.00    +0.044 C 
ENDBRANCH  11  29
TORSDOF 4
