REMARK  Name = ZINC16701508
REMARK  10 active torsions:
REMARK  status: ('A' for Active; 'I' for Inactive)
REMARK    1  A    between atoms: C_1  and  C_2
REMARK    2  A    between atoms: C_4  and  N_21
REMARK    3  A    between atoms: C_7  and  S_8
REMARK    4  A    between atoms: S_8  and  N_11
REMARK    5  A    between atoms: N_11  and  C_12
REMARK    6  A    between atoms: C_15  and  C_18
REMARK    7  A    between atoms: C_18  and  C_19
REMARK    8  A    between atoms: C_18  and  C_20
REMARK    9  A    between atoms: C_24  and  C_29
REMARK   10  A    between atoms: C_24  and  C_30
REMARK                            x       y       z     vdW  Elec       q    Type
REMARK                         _______ _______ _______ _____ _____    ______ ____
ROOT
ATOM      1  C   UNL     1      -1.054   4.333   0.948  0.00  0.00    +0.046 C 
ATOM      2  C   UNL     1      -1.432   3.217   1.887  0.00  0.00    -0.022 A 
ATOM      3  C   UNL     1      -2.141   3.496   3.039  0.00  0.00    +0.030 A 
ATOM      4  C   UNL     1      -2.490   2.467   3.905  0.00  0.00    +0.060 A 
ATOM      5  C   UNL     1      -2.123   1.161   3.609  0.00  0.00    +0.027 A 
ATOM      6  C   UNL     1      -1.418   0.888   2.453  0.00  0.00    +0.031 A 
ATOM      7  C   UNL     1      -1.069   1.915   1.596  0.00  0.00    +0.111 A 
ENDROOT
BRANCH   4   8
ATOM      8  N   UNL     1      -3.208   2.747   5.073  0.00  0.00    -0.143 N 
ATOM      9  C   UNL     1      -3.223   3.916   5.730  0.00  0.00    +0.246 C 
ATOM     10  O   UNL     1      -2.601   4.870   5.312  0.00  0.00    -0.273 OA
ATOM     11  C   UNL     1      -4.029   4.019   6.989  0.00  0.00    +0.064 C 
ATOM     12  C   UNL     1      -5.059   2.859   7.017  0.00  0.00    +0.205 C 
ATOM     13  S   UNL     1      -4.195   1.678   5.901  0.00  0.00    +0.053 S 
ATOM     14  O   UNL     1      -5.089   1.150   4.931  0.00  0.00    -0.155 OA
ATOM     15  O   UNL     1      -3.318   0.835   6.636  0.00  0.00    -0.155 OA
ATOM     16  C   UNL     1      -4.763   5.360   7.027  0.00  0.00    +0.022 C 
ATOM     17  C   UNL     1      -3.097   3.908   8.197  0.00  0.00    +0.022 C 
ENDBRANCH   4   8
BRANCH   7  18
ATOM     18  S   UNL     1      -0.165   1.564   0.125  0.00  0.00    +0.073 S 
ATOM     19  O   UNL     1      -0.012   0.152   0.069  0.00  0.00    -0.150 OA
ATOM     20  O   UNL     1       0.945   2.451   0.108  0.00  0.00    -0.150 OA
BRANCH  18  21
ATOM     21  N   UNL     1      -1.127   1.987  -1.155  0.00  0.00    -0.216 N 
ATOM     22  H   UNL     1      -0.854   2.700  -1.752  0.00  0.00    +0.174 HD
BRANCH  21  23
ATOM     23  C   UNL     1      -2.333   1.316  -1.373  0.00  0.00    +0.048 A 
ATOM     24  C   UNL     1      -2.379  -0.071  -1.310  0.00  0.00    +0.025 A 
ATOM     25  C   UNL     1      -3.574  -0.730  -1.521  0.00  0.00    +0.006 A 
ATOM     26  C   UNL     1      -4.721  -0.012  -1.806  0.00  0.00    -0.045 A 
ATOM     27  C   UNL     1      -4.677   1.368  -1.875  0.00  0.00    +0.006 A 
ATOM     28  C   UNL     1      -3.487   2.034  -1.660  0.00  0.00    +0.025 A 
BRANCH  26  29
ATOM     29  C   UNL     1      -6.022  -0.736  -2.042  0.00  0.00    +0.013 C 
ATOM     30  C   UNL     1      -5.871  -1.681  -3.236  0.00  0.00    +0.012 C 
ATOM     31  C   UNL     1      -6.390  -1.543  -0.795  0.00  0.00    +0.012 C 
ENDBRANCH  26  29
ENDBRANCH  21  23
ENDBRANCH  18  21
ENDBRANCH   7  18
TORSDOF 5
