REMARK  Name = ZINC11071457
REMARK  2 active torsions:
REMARK  status: ('A' for Active; 'I' for Inactive)
REMARK    1  A    between atoms: C_7  and  C_13
REMARK    2  A    between atoms: C_18  and  C_21
REMARK                            x       y       z     vdW  Elec       q    Type
REMARK                         _______ _______ _______ _____ _____    ______ ____
ROOT
ATOM      1  C   UNL     1      -3.790   3.237   0.056  0.00  0.00    +0.268 C 
ATOM      2  O   UNL     1      -3.843   2.022   0.040  0.00  0.00    -0.268 OA
ATOM      3  N   UNL     1      -4.922   3.959   0.172  0.00  0.00    -0.292 N 
ATOM      4  C   UNL     1      -6.238   3.307   0.293  0.00  0.00    +0.113 C 
ATOM      5  C   UNL     1      -6.832   3.694   1.650  0.00  0.00    +0.054 C 
ATOM      6  C   UNL     1      -6.674   5.166   1.890  0.00  0.00    -0.039 C 
ATOM      7  C   UNL     1      -5.819   5.933   1.255  0.00  0.00    -0.004 C 
ATOM      8  C   UNL     1      -4.893   5.429   0.188  0.00  0.00    +0.135 C 
ENDROOT
BRANCH   1  15
ATOM      9  C   UNL     1       0.007   1.115   0.194  0.00  0.00    +0.001 A 
ATOM     10  C   UNL     1       1.198   1.821   0.086  0.00  0.00    +0.001 A 
ATOM     11  C   UNL     1       1.193   3.192  -0.064  0.00  0.00    +0.014 A 
ATOM     12  C   UNL     1      -0.021   3.868  -0.108  0.00  0.00    +0.050 A 
ATOM     13  C   UNL     1      -1.234   3.149   0.001  0.00  0.00    +0.020 A 
ATOM     14  C   UNL     1      -1.207   1.766   0.147  0.00  0.00    +0.011 A 
ATOM     15  C   UNL     1      -2.486   3.921  -0.052  0.00  0.00    +0.153 A 
ATOM     16  N   UNL     1      -2.430   5.223  -0.197  0.00  0.00    -0.166 NA
ATOM     17  N   UNL     1      -1.343   5.890  -0.297  0.00  0.00    -0.242 N 
ATOM     18  H   UNL     1      -1.403   6.852  -0.402  0.00  0.00    +0.192 HD
ATOM     19  C   UNL     1      -0.118   5.326  -0.266  0.00  0.00    +0.272 A 
ATOM     20  O   UNL     1       0.885   6.010  -0.365  0.00  0.00    -0.266 OA
ENDBRANCH   1  15
BRANCH   6  21
ATOM     21  C   UNL     1      -7.537   5.794   2.910  0.00  0.00    +0.003 A 
ATOM     22  C   UNL     1      -8.855   6.093   2.784  0.00  0.00    +0.091 A 
ATOM     23  N   UNL     1      -9.311   6.663   3.937  0.00  0.00    -0.360 N 
ATOM     24  H   UNL     1     -10.222   6.960   4.087  0.00  0.00    +0.165 HD
ATOM     25  C   UNL     1      -8.288   6.761   4.856  0.00  0.00    +0.047 A 
ATOM     26  C   UNL     1      -7.134   6.224   4.259  0.00  0.00    +0.007 A 
ATOM     27  C   UNL     1      -5.934   6.193   4.967  0.00  0.00    +0.010 A 
ATOM     28  C   UNL     1      -5.886   6.688   6.251  0.00  0.00    +0.001 A 
ATOM     29  C   UNL     1      -7.025   7.218   6.840  0.00  0.00    +0.002 A 
ATOM     30  C   UNL     1      -8.218   7.257   6.153  0.00  0.00    +0.026 A 
ENDBRANCH   6  21
TORSDOF 2
