REMARK  Name = ZINC59358957
REMARK  6 active torsions:
REMARK  status: ('A' for Active; 'I' for Inactive)
REMARK    1  A    between atoms: C_1  and  C_2
REMARK    2  A    between atoms: C_4  and  O_9
REMARK    3  A    between atoms: O_9  and  C_10
REMARK    4  A    between atoms: C_10  and  C_12
REMARK    5  A    between atoms: C_10  and  C_13
REMARK    6  A    between atoms: C_13  and  N_15
REMARK                            x       y       z     vdW  Elec       q    Type
REMARK                         _______ _______ _______ _____ _____    ______ ____
ROOT
ATOM      1  C   UNL     1      -0.434  -4.789  -3.559  0.00  0.00    +0.280 C 
ATOM      2  O   UNL     1      -0.835  -4.077  -4.460  0.00  0.00    -0.270 OA
ENDROOT
BRANCH   1   3
ATOM      3  N   UNL     1      -0.532  -6.111  -3.663  0.00  0.00    -0.144 NA
ATOM      4  C   UNL     1      -0.976  -6.659  -4.790  0.00  0.00    +0.199 A 
ATOM      5  N   UNL     1      -1.458  -5.974  -5.861  0.00  0.00    -0.326 N 
ATOM      6  H   UNL     1      -1.536  -5.010  -5.931  0.00  0.00    +0.169 HD
ATOM      7  C   UNL     1      -1.821  -6.894  -6.840  0.00  0.00    +0.065 A 
ATOM      8  C   UNL     1      -2.359  -6.762  -8.112  0.00  0.00    +0.028 A 
ATOM      9  C   UNL     1      -2.618  -7.886  -8.869  0.00  0.00    +0.002 A 
ATOM     10  C   UNL     1      -2.344  -9.146  -8.366  0.00  0.00    +0.002 A 
ATOM     11  C   UNL     1      -1.809  -9.289  -7.101  0.00  0.00    +0.028 A 
ATOM     12  C   UNL     1      -1.544  -8.165  -6.331  0.00  0.00    +0.065 A 
ATOM     13  N   UNL     1      -1.015  -7.991  -5.057  0.00  0.00    -0.326 N 
ATOM     14  H   UNL     1      -0.725  -8.698  -4.460  0.00  0.00    +0.169 HD
ENDBRANCH   1   3
BRANCH   1  15
ATOM     15  C   UNL     1       0.175  -4.173  -2.326  0.00  0.00    +0.258 C 
ATOM     16  C   UNL     1       1.651  -4.564  -2.236  0.00  0.00    +0.062 C 
BRANCH  15  17
ATOM     17  O   UNL     1       0.063  -2.750  -2.399  0.00  0.00    -0.480 OA
BRANCH  17  21
ATOM     18  C   UNL     1       0.083   1.520  -0.035  0.00  0.00    +0.045 C 
ATOM     19  C   UNL     1       0.114   0.013  -0.033  0.00  0.00    -0.029 A 
ATOM     20  C   UNL     1       0.074  -0.680  -1.227  0.00  0.00    +0.050 A 
ATOM     21  C   UNL     1       0.102  -2.067  -1.225  0.00  0.00    +0.122 A 
ATOM     22  C   UNL     1       0.170  -2.755  -0.022  0.00  0.00    +0.047 A 
ATOM     23  C   UNL     1       0.210  -2.059   1.170  0.00  0.00    +0.024 A 
ATOM     24  C   UNL     1       0.187  -0.675   1.165  0.00  0.00    +0.044 A 
ATOM     25 CL   UNL     1       0.244   0.198   2.664  0.00  0.00    -0.083 Cl
ENDBRANCH  17  21
ENDBRANCH  15  17
ENDBRANCH   1  15
TORSDOF 4
