REMARK  Name = ZINC13730757
REMARK  9 active torsions:
REMARK  status: ('A' for Active; 'I' for Inactive)
REMARK    1  A    between atoms: C_1  and  N_2
REMARK    2  A    between atoms: C_3  and  S_7
REMARK    3  A    between atoms: S_7  and  C_8
REMARK    4  A    between atoms: C_8  and  C_9
REMARK    5  A    between atoms: C_9  and  C_10
REMARK    6  A    between atoms: C_10  and  N_41
REMARK    7  A    between atoms: C_11  and  C_12
REMARK    8  A    between atoms: C_11  and  N_41
REMARK    9  A    between atoms: C_15  and  C_17
REMARK                            x       y       z     vdW  Elec       q    Type
REMARK                         _______ _______ _______ _____ _____    ______ ____
ROOT
ATOM      1  C   UNL     1       5.148   5.660  -0.017  0.00  0.00    -0.007 C 
ENDROOT
BRANCH   1   2
ATOM      2  C   UNL     1       5.336   7.155  -0.011  0.00  0.00    +0.089 A 
ATOM      3  C   UNL     1       5.439   7.929   1.087  0.00  0.00    +0.043 A 
ATOM      4  C   UNL     1       5.607   9.256   0.643  0.00  0.00    +0.050 A 
ATOM      5  C   UNL     1       5.587   9.219  -0.716  0.00  0.00    +0.136 A 
ATOM      6  O   UNL     1       5.422   7.938  -1.098  0.00  0.00    -0.462 OA
BRANCH   5   7
ATOM      7  C   UNL     1       5.724  10.382  -1.618  0.00  0.00    +0.031 A 
ATOM      8  C   UNL     1       4.932  11.516  -1.424  0.00  0.00    +0.014 A 
ATOM      9  C   UNL     1       5.068  12.600  -2.266  0.00  0.00    +0.016 A 
ATOM     10  C   UNL     1       5.980  12.562  -3.307  0.00  0.00    +0.019 A 
ATOM     11  C   UNL     1       6.764  11.440  -3.508  0.00  0.00    +0.031 A 
ATOM     12  C   UNL     1       6.642  10.350  -2.670  0.00  0.00    +0.030 A 
ATOM     13 BR   UNL     1       7.713   8.817  -2.946  0.00  0.00    -0.050 Br
ATOM     14 BR   UNL     1       6.154  14.051  -4.460  0.00  0.00    -0.050 Br
ENDBRANCH   5   7
ENDBRANCH   1   2
BRANCH   1  15
ATOM     15  N   UNL     1       3.705   5.354  -0.005  0.00  0.00    +0.384 N 
ATOM     16  H   UNL     1       3.280   5.755   0.840  0.00  0.00    -0.085 HD
ATOM     17  H   UNL     1       3.264   5.765  -0.837  0.00  0.00    -0.085 HD
BRANCH  15  18
ATOM     18  C   UNL     1       3.490   3.895  -0.010  0.00  0.00    -0.081 C 
BRANCH  18  19
ATOM     19  C   UNL     1       1.987   3.609   0.003  0.00  0.00    -0.008 C 
BRANCH  19  20
ATOM     20  C   UNL     1       1.756   2.096  -0.004  0.00  0.00    +0.075 C 
BRANCH  20  21
ATOM     21  S   UNL     1      -0.022   1.758   0.012  0.00  0.00    -0.085 S 
BRANCH  21  24
ATOM     22  C   UNL     1      -2.488  -0.435   0.036  0.00  0.00    +0.177 C 
ATOM     23  N   UNL     1      -1.076  -0.823   0.013  0.00  0.00    -0.223 N 
ATOM     24  C   UNL     1       0.002  -0.004   0.002  0.00  0.00    +0.209 A 
ATOM     25  N   UNL     1       1.071  -0.771  -0.012  0.00  0.00    -0.102 NA
ATOM     26  N   UNL     1       0.735  -2.011  -0.015  0.00  0.00    -0.022 NA
ATOM     27  N   UNL     1      -0.549  -2.127  -0.004  0.00  0.00    -0.043 NA
ENDBRANCH  21  24
ENDBRANCH  20  21
ENDBRANCH  19  20
ENDBRANCH  18  19
ENDBRANCH  15  18
ENDBRANCH   1  15
TORSDOF 8
