REMARK  Name = ZINC00780859
REMARK  8 active torsions:
REMARK  status: ('A' for Active; 'I' for Inactive)
REMARK    1  A    between atoms: C_1  and  C_2
REMARK    2  A    between atoms: C_7  and  C_8
REMARK    3  A    between atoms: C_12  and  C_15
REMARK    4  A    between atoms: C_15  and  C_16
REMARK    5  A    between atoms: N_18  and  C_19
REMARK    6  A    between atoms: C_20  and  C_28
REMARK    7  A    between atoms: C_28  and  O_30
REMARK    8  A    between atoms: O_30  and  C_31
REMARK                            x       y       z     vdW  Elec       q    Type
REMARK                         _______ _______ _______ _____ _____    ______ ____
ROOT
ATOM      1  C   UNL     1       3.661   0.192   2.466  0.00  0.00    +0.220 C 
ATOM      2  O   UNL     1       3.798  -0.642   1.597  0.00  0.00    -0.275 OA
ATOM      3  N   UNL     1       3.640  -0.181   3.761  0.00  0.00    -0.279 N 
ATOM      4  H   UNL     1       3.531   0.486   4.457  0.00  0.00    +0.155 HD
ENDROOT
BRANCH   3   5
ATOM      5  C   UNL     1       3.776  -1.519   4.099  0.00  0.00    +0.086 A 
ATOM      6  C   UNL     1       3.780  -2.094   5.363  0.00  0.00    +0.091 A 
ATOM      7  C   UNL     1       3.940  -3.536   5.444  0.00  0.00    -0.021 A 
ATOM      8  C   UNL     1       4.069  -4.168   4.257  0.00  0.00    -0.004 A 
ATOM      9  S   UNL     1       3.974  -2.880   3.046  0.00  0.00    -0.077 S 
ATOM     10  C   UNL     1       4.247  -5.638   4.031  0.00  0.00    +0.043 C 
ATOM     11  C   UNL     1       4.638  -6.288   5.366  0.00  0.00    +0.005 C 
ATOM     12  C   UNL     1       3.686  -5.788   6.456  0.00  0.00    +0.005 C 
ATOM     13  C   UNL     1       3.964  -4.314   6.754  0.00  0.00    +0.037 C 
BRANCH   6  14
ATOM     14  C   UNL     1       3.630  -1.277   6.569  0.00  0.00    +0.342 C 
ATOM     15  O   UNL     1       2.521  -1.056   7.019  0.00  0.00    -0.245 OA
BRANCH  14  16
ATOM     16  O   UNL     1       4.719  -0.770   7.181  0.00  0.00    -0.464 OA
ATOM     17  C   UNL     1       4.494   0.030   8.372  0.00  0.00    +0.280 C 
ENDBRANCH  14  16
ENDBRANCH   6  14
ENDBRANCH   3   5
BRANCH   1  18
ATOM     18  C   UNL     1       3.513   1.646   2.099  0.00  0.00    +0.127 C 
BRANCH  18  30
ATOM     19  C   UNL     1      -2.514   0.984   0.022  0.00  0.00    +0.044 C 
ATOM     20  C   UNL     1      -1.219   1.754   0.017  0.00  0.00    -0.046 A 
ATOM     21  C   UNL     1      -0.013   1.076   0.008  0.00  0.00    +0.028 A 
ATOM     22  C   UNL     1       1.174   1.786   0.000  0.00  0.00    +0.049 A 
ATOM     23  C   UNL     1       1.157   3.182   0.011  0.00  0.00    +0.055 A 
ATOM     24  C   UNL     1      -0.055   3.852   0.021  0.00  0.00    +0.028 A 
ATOM     25  C   UNL     1      -1.239   3.136   0.028  0.00  0.00    -0.046 A 
ATOM     26  C   UNL     1      -2.557   3.867   0.041  0.00  0.00    +0.044 C 
ATOM     27  N   UNL     1       2.364   3.891   0.018  0.00  0.00    -0.282 N 
ATOM     28  C   UNL     1       3.535   3.259   0.211  0.00  0.00    +0.238 C 
ATOM     29  O   UNL     1       4.575   3.871   0.090  0.00  0.00    -0.273 OA
ATOM     30  C   UNL     1       3.569   1.796   0.578  0.00  0.00    +0.166 C 
ATOM     31  N   UNL     1       2.410   1.124  -0.026  0.00  0.00    -0.331 N 
ATOM     32  H   UNL     1       2.355   4.852  -0.119  0.00  0.00    +0.155 HD
ATOM     33  H   UNL     1       2.497   0.247  -0.432  0.00  0.00    +0.147 HD
ENDBRANCH  18  30
ENDBRANCH   1  18
TORSDOF 5
