REMARK  Name = ZINC16025159
REMARK  8 active torsions:
REMARK  status: ('A' for Active; 'I' for Inactive)
REMARK    1  A    between atoms: C_1  and  C_2
REMARK    2  A    between atoms: C_2  and  C_3
REMARK    3  A    between atoms: C_2  and  C_4
REMARK    4  A    between atoms: C_4  and  C_5
REMARK    5  A    between atoms: N_13  and  C_16
REMARK    6  A    between atoms: C_16  and  C_17
REMARK    7  A    between atoms: C_16  and  C_18
REMARK    8  A    between atoms: C_16  and  C_19
REMARK                            x       y       z     vdW  Elec       q    Type
REMARK                         _______ _______ _______ _____ _____    ______ ____
ROOT
ATOM      1  C   UNL     1      -1.416  -2.058  -0.121  0.00  0.00    -0.057 C 
ATOM      2  C   UNL     1      -2.849  -2.622  -0.025  0.00  0.00    +0.073 C 
ATOM      3  C   UNL     1      -2.881  -3.800  -1.038  0.00  0.00    +0.088 C 
ATOM      4  C   UNL     1      -3.057  -5.014  -0.155  0.00  0.00    +0.225 C 
ATOM      5  O   UNL     1      -3.124  -6.160  -0.545  0.00  0.00    -0.275 OA
ATOM      6  N   UNL     1      -3.127  -4.628   1.124  0.00  0.00    -0.236 N 
ATOM      7  C   UNL     1      -3.030  -3.292   1.318  0.00  0.00    +0.224 C 
ATOM      8  O   UNL     1      -3.075  -2.720   2.386  0.00  0.00    -0.275 OA
ATOM      9  C   UNL     1      -1.487  -3.801  -1.676  0.00  0.00    +0.050 C 
ATOM     10  N   UNL     1      -0.938  -2.453  -1.473  0.00  0.00    +0.394 N 
ATOM     11  C   UNL     1      -0.593  -4.835  -1.054  0.00  0.00    -0.028 A 
ATOM     12  C   UNL     1      -0.145  -5.053   0.230  0.00  0.00    +0.004 A 
ATOM     13  C   UNL     1       0.694  -6.120   0.499  0.00  0.00    +0.000 A 
ATOM     14  C   UNL     1       1.082  -6.966  -0.523  0.00  0.00    +0.002 A 
ATOM     15  C   UNL     1       0.637  -6.751  -1.811  0.00  0.00    +0.023 A 
ATOM     16  C   UNL     1      -0.209  -5.681  -2.091  0.00  0.00    +0.036 A 
ATOM     17  N   UNL     1      -0.785  -5.263  -3.292  0.00  0.00    -0.286 N 
ATOM     18  C   UNL     1      -1.551  -4.167  -3.135  0.00  0.00    +0.211 C 
ATOM     19  O   UNL     1      -2.172  -3.587  -4.000  0.00  0.00    -0.277 OA
ATOM     20  H   UNL     1      -1.302  -1.825  -2.173  0.00  0.00    -0.083 HD
ATOM     21  H   UNL     1      -0.649  -5.711  -4.142  0.00  0.00    +0.155 HD
ATOM     22  H   UNL     1       0.071  -2.468  -1.500  0.00  0.00    -0.083 HD
ENDROOT
BRANCH   6  23
ATOM     23  C   UNL     1      -3.301  -5.574   2.229  0.00  0.00    +0.036 C 
ATOM     24  C   UNL     1      -2.132  -6.561   2.245  0.00  0.00    +0.031 C 
ATOM     25  C   UNL     1      -3.341  -4.809   3.553  0.00  0.00    +0.031 C 
ATOM     26  C   UNL     1      -4.613  -6.339   2.042  0.00  0.00    +0.031 C 
ENDBRANCH   6  23
BRANCH   1  27
ATOM     27  C   UNL     1      -1.433  -0.534   0.013  0.00  0.00    -0.012 C 
BRANCH  27  29
ATOM     28  C   UNL     1      -0.019   1.526   0.010  0.00  0.00    +0.007 C 
ATOM     29  C   UNL     1       0.002  -0.004   0.002  0.00  0.00    -0.019 C 
ATOM     30  C   UNL     1       0.742  -0.511   1.242  0.00  0.00    +0.007 C 
ENDBRANCH  27  29
ENDBRANCH   1  27
TORSDOF 3
