REMARK  Name = ZINC33171913
REMARK  8 active torsions:
REMARK  status: ('A' for Active; 'I' for Inactive)
REMARK    1  A    between atoms: C_1  and  C_2
REMARK    2  A    between atoms: C_5  and  C_8
REMARK    3  A    between atoms: C_8  and  N_9
REMARK    4  A    between atoms: C_10  and  C_12
REMARK    5  A    between atoms: C_13  and  N_29
REMARK    6  A    between atoms: C_14  and  C_17
REMARK    7  A    between atoms: N_19  and  C_20
REMARK    8  A    between atoms: C_26  and  C_28
REMARK                            x       y       z     vdW  Elec       q    Type
REMARK                         _______ _______ _______ _____ _____    ______ ____
ROOT
ATOM      1  C   UNL     1       2.433   0.936  -0.016  0.00  0.00    +0.156 A 
ATOM      2  C   UNL     1       3.636   1.642  -0.024  0.00  0.00    +0.076 A 
ATOM      3  C   UNL     1       4.750   0.801  -0.038  0.00  0.00    +0.115 A 
ATOM      4  S   UNL     1       3.977  -0.803  -0.039  0.00  0.00    +0.019 S 
ATOM      5  N   UNL     1       2.459  -0.379  -0.018  0.00  0.00    -0.203 NA
ENDROOT
BRANCH   1   7
ATOM      6  N   UNL     1      -0.011   0.966   0.007  0.00  0.00    -0.306 N 
ATOM      7  C   UNL     1       1.147   1.655   0.000  0.00  0.00    +0.265 C 
ATOM      8  O   UNL     1       1.130   2.871   0.007  0.00  0.00    -0.268 OA
ATOM      9  H   UNL     1       0.004  -0.134   0.006  0.00  0.00    +0.149 HD
BRANCH   6  10
ATOM     10  C   UNL     1      -1.290   1.681   0.017  0.00  0.00    +0.140 C 
BRANCH  10  15
ATOM     11  C   UNL     1      -5.630  -2.134   0.017  0.00  0.00    +0.044 C 
ATOM     12  C   UNL     1      -4.499  -1.138   0.017  0.00  0.00    -0.050 A 
ATOM     13  C   UNL     1      -3.974  -0.689   1.214  0.00  0.00    +0.003 A 
ATOM     14  C   UNL     1      -2.935   0.224   1.214  0.00  0.00    +0.005 A 
ATOM     15  C   UNL     1      -2.422   0.686   0.017  0.00  0.00    -0.030 A 
ATOM     16  C   UNL     1      -2.950   0.241  -1.180  0.00  0.00    +0.005 A 
ATOM     17  C   UNL     1      -3.986  -0.675  -1.180  0.00  0.00    +0.003 A 
ENDBRANCH  10  15
ENDBRANCH   6  10
ENDBRANCH   1   7
BRANCH   3  18
ATOM     18  C   UNL     1       6.173   1.145  -0.050  0.00  0.00    +0.254 C 
ATOM     19  O   UNL     1       6.517   2.313  -0.047  0.00  0.00    -0.270 OA
ATOM     20  N   UNL     1       7.103   0.170  -0.063  0.00  0.00    -0.308 N 
ATOM     21  H   UNL     1       6.793  -0.886  -0.066  0.00  0.00    +0.149 HD
BRANCH  20  22
ATOM     22  C   UNL     1       8.527   0.514  -0.074  0.00  0.00    +0.076 C 
ATOM     23  C   UNL     1       9.006   0.749   1.359  0.00  0.00    +0.022 C 
ATOM     24  C   UNL     1      10.493   1.109   1.348  0.00  0.00    +0.002 C 
ATOM     25  C   UNL     1      11.290  -0.039   0.725  0.00  0.00    +0.000 C 
ATOM     26  C   UNL     1      10.811  -0.273  -0.709  0.00  0.00    +0.005 C 
ATOM     27  C   UNL     1       9.324  -0.633  -0.698  0.00  0.00    +0.006 C 
ATOM     28  C   UNL     1       8.845  -0.868  -2.131  0.00  0.00    +0.009 C 
ENDBRANCH  20  22
ENDBRANCH   3  18
BRANCH   2  29
ATOM     29  N   UNL     1       3.717   3.028  -0.018  0.00  0.00    -0.355 N 
ATOM     30  H   UNL     1       4.699   3.522  -0.025  0.00  0.00    +0.142 HD
ATOM     31  H   UNL     1       2.797   3.632  -0.007  0.00  0.00    +0.142 HD
ENDBRANCH   2  29
TORSDOF 6
