REMARK  Name = ZINC08766787
REMARK  7 active torsions:
REMARK  status: ('A' for Active; 'I' for Inactive)
REMARK    1  A    between atoms: C_1  and  O_2
REMARK    2  A    between atoms: O_2  and  C_3
REMARK    3  A    between atoms: C_3  and  C_4
REMARK    4  A    between atoms: C_4  and  N_5
REMARK    5  A    between atoms: C_6  and  C_31
REMARK    6  A    between atoms: C_8  and  C_18
REMARK    7  A    between atoms: N_23  and  C_26
REMARK                            x       y       z     vdW  Elec       q    Type
REMARK                         _______ _______ _______ _____ _____    ______ ____
ROOT
ATOM      1  N   UNL     1       5.114   4.024   2.529  0.00  0.00    -0.287 N 
ATOM      2  C   UNL     1       3.702   4.319   2.763  0.00  0.00    +0.125 C 
ATOM      3  C   UNL     1       2.821   3.614   1.735  0.00  0.00    +0.131 C 
ATOM      4  C   UNL     1       3.323   3.893   0.343  0.00  0.00    -0.021 A 
ATOM      5  C   UNL     1       2.447   3.984  -0.717  0.00  0.00    +0.005 A 
ATOM      6  C   UNL     1       2.926   4.221  -1.993  0.00  0.00    +0.000 A 
ATOM      7  C   UNL     1       4.285   4.362  -2.216  0.00  0.00    +0.001 A 
ATOM      8  C   UNL     1       5.173   4.279  -1.162  0.00  0.00    +0.013 A 
ATOM      9  C   UNL     1       4.693   4.061   0.127  0.00  0.00    +0.041 A 
ATOM     10  C   UNL     1       5.615   3.975   1.280  0.00  0.00    +0.247 C 
ATOM     11  O   UNL     1       6.812   3.861   1.102  0.00  0.00    -0.270 OA
ENDROOT
BRANCH   2  12
ATOM     12  C   UNL     1       3.485   5.807   2.663  0.00  0.00    -0.001 A 
ATOM     13  C   UNL     1       4.223   6.676   1.954  0.00  0.00    +0.089 A 
ATOM     14  N   UNL     1       3.725   7.942   2.104  0.00  0.00    -0.360 N 
ATOM     15  H   UNL     1       4.092   8.738   1.688  0.00  0.00    +0.165 HD
ATOM     16  C   UNL     1       2.626   7.918   2.934  0.00  0.00    +0.047 A 
ATOM     17  C   UNL     1       2.424   6.579   3.315  0.00  0.00    +0.005 A 
ATOM     18  C   UNL     1       1.371   6.250   4.171  0.00  0.00    +0.010 A 
ATOM     19  C   UNL     1       0.534   7.231   4.625  0.00  0.00    +0.001 A 
ATOM     20  C   UNL     1       0.726   8.552   4.247  0.00  0.00    +0.002 A 
ATOM     21  C   UNL     1       1.762   8.900   3.408  0.00  0.00    +0.026 A 
ENDBRANCH   2  12
BRANCH   3  22
ATOM     22  C   UNL     1       2.850   2.128   1.988  0.00  0.00    +0.225 C 
ATOM     23  O   UNL     1       3.737   1.450   1.514  0.00  0.00    -0.275 OA
ATOM     24  N   UNL     1       1.891   1.554   2.739  0.00  0.00    -0.298 N 
ATOM     25  C   UNL     1       0.873   2.370   3.418  0.00  0.00    +0.126 C 
ATOM     26  C   UNL     1       0.825   1.961   4.894  0.00  0.00    +0.125 C 
ATOM     27  N   UNL     1       0.622   0.509   4.990  0.00  0.00    -0.314 N 
ATOM     28  C   UNL     1       1.747  -0.227   4.398  0.00  0.00    +0.125 C 
ATOM     29  C   UNL     1       1.833   0.093   2.902  0.00  0.00    +0.126 C 
BRANCH  27  30
ATOM     30  C   UNL     1       0.410   0.122   6.308  0.00  0.00    +0.099 A 
ATOM     31  C   UNL     1       0.191  -1.220   6.605  0.00  0.00    +0.042 A 
ATOM     32  C   UNL     1      -0.012  -1.592   7.922  0.00  0.00    +0.005 A 
ATOM     33  C   UNL     1       0.000  -0.605   8.899  0.00  0.00    +0.018 A 
ATOM     34  C   UNL     1       0.218   0.707   8.532  0.00  0.00    +0.084 A 
ATOM     35  N   UNL     1       0.427   1.109   7.250  0.00  0.00    -0.350 N 
ATOM     36  H   UNL     1       0.587   2.093   7.005  0.00  0.00    +0.166 HD
ENDBRANCH  27  30
ENDBRANCH   3  22
BRANCH   1  37
ATOM     37  C   UNL     1       5.998   3.779   3.671  0.00  0.00    +0.137 C 
BRANCH  37  38
ATOM     38  C   UNL     1       6.001   2.285   4.003  0.00  0.00    +0.178 C 
BRANCH  38  40
ATOM     39  C   UNL     1       6.627   0.145   3.125  0.00  0.00    +0.194 C 
ATOM     40  O   UNL     1       6.576   1.558   2.916  0.00  0.00    -0.381 OA
ENDBRANCH  38  40
ENDBRANCH  37  38
ENDBRANCH   1  37
TORSDOF 6
