REMARK  Name = ZINC01246269
REMARK  6 active torsions:
REMARK  status: ('A' for Active; 'I' for Inactive)
REMARK    1  A    between atoms: C_1  and  C_2
REMARK    2  A    between atoms: C_2  and  C_35
REMARK    3  A    between atoms: C_6  and  C_28
REMARK    4  A    between atoms: C_13  and  S_17
REMARK    5  A    between atoms: S_17  and  C_18
REMARK    6  A    between atoms: C_18  and  C_19
REMARK                            x       y       z     vdW  Elec       q    Type
REMARK                         _______ _______ _______ _____ _____    ______ ____
ROOT
ATOM      1  C   UNL     1      12.835   1.282   7.909  0.00  0.00    +0.041 C 
ATOM      2  C   UNL     1      12.645  -0.235   7.934  0.00  0.00    +0.068 C 
ATOM      3  C   UNL     1      11.335  -0.602   7.234  0.00  0.00    +0.070 C 
ATOM      4  C   UNL     1      10.168  -0.179   8.086  0.00  0.00    -0.025 A 
ATOM      5  C   UNL     1      10.310   0.114   9.406  0.00  0.00    +0.011 A 
ATOM      6  C   UNL     1       9.189   0.490  10.162  0.00  0.00    +0.113 A 
ATOM      7  N   UNL     1       7.991   0.567   9.593  0.00  0.00    -0.236 NA
ATOM      8  C   UNL     1       7.824   0.294   8.318  0.00  0.00    +0.112 A 
ATOM      9  C   UNL     1       8.889  -0.094   7.484  0.00  0.00    +0.037 A 
ATOM     10  C   UNL     1       8.539  -0.366   6.078  0.00  0.00    +0.092 A 
ATOM     11  C   UNL     1       7.190  -0.198   5.739  0.00  0.00    +0.072 A 
ATOM     12  S   UNL     1       6.406   0.294   7.249  0.00  0.00    -0.064 S 
ATOM     13  C   UNL     1       6.745  -0.432   4.444  0.00  0.00    +0.115 A 
ATOM     14  N   UNL     1       7.638  -0.810   3.528  0.00  0.00    -0.228 NA
ATOM     15  C   UNL     1       8.906  -0.958   3.863  0.00  0.00    +0.223 A 
ATOM     16  N   UNL     1       9.360  -0.752   5.074  0.00  0.00    -0.234 NA
ATOM     17  C   UNL     1      11.653   0.052  10.087  0.00  0.00    +0.198 C 
ATOM     18  O   UNL     1      12.576  -0.691   9.290  0.00  0.00    -0.369 OA
ATOM     19  C   UNL     1      13.818  -0.913   7.222  0.00  0.00    +0.041 C 
ENDROOT
BRANCH   6  20
ATOM     20  C   UNL     1       9.342   0.803  11.596  0.00  0.00    +0.153 A 
ATOM     21  C   UNL     1       8.647   1.747  12.286  0.00  0.00    +0.051 A 
ATOM     22  C   UNL     1       9.112   1.702  13.615  0.00  0.00    +0.042 A 
ATOM     23  C   UNL     1      10.058   0.743  13.671  0.00  0.00    +0.196 A 
ATOM     24  O   UNL     1      10.191   0.199  12.451  0.00  0.00    -0.461 OA
ENDBRANCH   6  20
BRANCH  13  25
ATOM     25  S   UNL     1       5.047  -0.227   4.022  0.00  0.00    -0.100 S 
BRANCH  25  26
ATOM     26  C   UNL     1       5.107  -0.656   2.264  0.00  0.00    +0.111 C 
BRANCH  26  27
ATOM     27  C   UNL     1       3.725  -0.548   1.673  0.00  0.00    -0.033 A 
ATOM     28  C   UNL     1       2.886  -1.647   1.675  0.00  0.00    +0.008 A 
ATOM     29  C   UNL     1       1.617  -1.553   1.135  0.00  0.00    +0.050 A 
ATOM     30  C   UNL     1       1.183  -0.356   0.589  0.00  0.00    +0.166 A 
ATOM     31  C   UNL     1       2.028   0.751   0.586  0.00  0.00    +0.167 A 
ATOM     32  C   UNL     1       3.299   0.650   1.130  0.00  0.00    +0.054 A 
ATOM     33  O   UNL     1       1.376   1.797  -0.001  0.00  0.00    -0.453 OA
ATOM     34  C   UNL     1      -0.018   1.436   0.010  0.00  0.00    +0.466 C 
ATOM     35  O   UNL     1       0.002  -0.004   0.002  0.00  0.00    -0.453 OA
ENDBRANCH  26  27
ENDBRANCH  25  26
ENDBRANCH  13  25
TORSDOF 4
