REMARK  Name = ZINC35382048
REMARK  4 active torsions:
REMARK  status: ('A' for Active; 'I' for Inactive)
REMARK    1  A    between atoms: C_1  and  C_2
REMARK    2  A    between atoms: C_5  and  C_7
REMARK    3  A    between atoms: C_7  and  C_9
REMARK    4  A    between atoms: C_7  and  N_21
REMARK                            x       y       z     vdW  Elec       q    Type
REMARK                         _______ _______ _______ _____ _____    ______ ____
ROOT
ATOM      1  C   UNL     1       1.459  -4.452   1.368  0.00  0.00    -0.035 A 
ATOM      2  C   UNL     1       2.776  -4.300   1.763  0.00  0.00    +0.053 A 
ATOM      3  C   UNL     1       3.154  -4.659   3.046  0.00  0.00    +0.162 A 
ATOM      4  C   UNL     1       2.215  -5.170   3.930  0.00  0.00    +0.163 A 
ATOM      5  C   UNL     1       0.898  -5.321   3.533  0.00  0.00    +0.069 A 
ATOM      6  C   UNL     1       0.521  -4.956   2.251  0.00  0.00    +0.047 A 
ATOM      7 CL   UNL     1      -1.131  -5.136   1.750  0.00  0.00    -0.083 Cl
ATOM      8  O   UNL     1       2.598  -5.519   5.193  0.00  0.00    -0.488 OA
ATOM      9  C   UNL     1       3.463  -6.653   5.292  0.00  0.00    +0.232 C 
ATOM     10  C   UNL     1       4.913  -6.245   5.085  0.00  0.00    +0.082 C 
ATOM     11  C   UNL     1       5.173  -5.723   3.680  0.00  0.00    +0.232 C 
ATOM     12  O   UNL     1       4.450  -4.512   3.448  0.00  0.00    -0.488 OA
ENDROOT
BRANCH   1  13
ATOM     13  C   UNL     1       1.043  -4.062  -0.027  0.00  0.00    -0.005 C 
BRANCH  13  18
ATOM     14  C   UNL     1      -0.018   1.503   0.010  0.00  0.00    +0.051 C 
ATOM     15  C   UNL     1       0.002  -0.004   0.002  0.00  0.00    -0.013 A 
ATOM     16  C   UNL     1      -1.039  -0.872   0.002  0.00  0.00    +0.011 A 
ATOM     17  C   UNL     1      -0.780  -2.230  -0.007  0.00  0.00    +0.010 A 
ATOM     18  C   UNL     1       0.507  -2.653  -0.016  0.00  0.00    -0.020 A 
ATOM     19  S   UNL     1       1.404  -1.109  -0.018  0.00  0.00    -0.100 S 
ENDBRANCH  13  18
BRANCH  13  20
ATOM     20  N   UNL     1       2.205  -4.137  -0.923  0.00  0.00    +0.386 N 
ATOM     21  H   UNL     1       2.922  -3.507  -0.597  0.00  0.00    -0.089 HD
ATOM     22  H   UNL     1       2.563  -5.080  -0.930  0.00  0.00    -0.089 HD
ATOM     23  H   UNL     1       1.926  -3.876  -1.857  0.00  0.00    -0.089 HD
ENDBRANCH  13  20
ENDBRANCH   1  13
TORSDOF 3
