REMARK  Name = ZINC65463613
REMARK  2 active torsions:
REMARK  status: ('A' for Active; 'I' for Inactive)
REMARK    1  A    between atoms: C_9  and  C_11
REMARK    2  A    between atoms: C_19  and  C_23
REMARK                            x       y       z     vdW  Elec       q    Type
REMARK                         _______ _______ _______ _____ _____    ______ ____
ROOT
ATOM      1  C   UNL     1       5.025  -2.559  -0.059  0.00  0.00    +0.081 C 
ATOM      2  C   UNL     1       4.922  -3.911  -0.773  0.00  0.00    +0.110 C 
ATOM      3  C   UNL     1       4.248  -4.941   0.085  0.00  0.00    +0.219 C 
ATOM      4  O   UNL     1       3.472  -5.715  -0.434  0.00  0.00    -0.275 OA
ATOM      5  N   UNL     1       4.471  -5.040   1.413  0.00  0.00    -0.269 N 
ATOM      6  C   UNL     1       5.200  -4.015   2.034  0.00  0.00    +0.151 A 
ATOM      7  C   UNL     1       5.487  -2.806   1.355  0.00  0.00    +0.025 A 
ATOM      8  C   UNL     1       6.191  -2.021   2.182  0.00  0.00    +0.045 A 
ATOM      9  N   UNL     1       6.342  -2.687   3.351  0.00  0.00    -0.279 N 
ATOM     10  H   UNL     1       6.812  -2.362   4.135  0.00  0.00    +0.189 HD
ATOM     11  N   UNL     1       5.700  -3.934   3.230  0.00  0.00    -0.158 NA
ATOM     12  H   UNL     1       4.139  -5.797   1.921  0.00  0.00    +0.156 HD
ENDROOT
BRANCH   1  21
ATOM     13  C   UNL     1      -0.255   0.900  -1.012  0.00  0.00    +0.001 A 
ATOM     14  C   UNL     1       0.707   1.203  -1.974  0.00  0.00    +0.002 A 
ATOM     15  C   UNL     1       1.920   0.587  -1.972  0.00  0.00    +0.028 A 
ATOM     16  C   UNL     1       2.213  -0.372  -0.987  0.00  0.00    +0.071 A 
ATOM     17  C   UNL     1       1.234  -0.679  -0.010  0.00  0.00    +0.000 A 
ATOM     18  C   UNL     1      -0.008  -0.023  -0.043  0.00  0.00    +0.010 A 
ATOM     19  C   UNL     1       1.529  -1.639   0.976  0.00  0.00    +0.012 A 
ATOM     20  C   UNL     1       2.757  -2.237   0.945  0.00  0.00    +0.024 A 
ATOM     21  C   UNL     1       3.675  -1.889  -0.043  0.00  0.00    +0.050 A 
ATOM     22  N   UNL     1       3.397  -0.994  -0.959  0.00  0.00    -0.251 NA
ENDBRANCH   1  21
BRANCH   8  23
ATOM     23  C   UNL     1       6.719  -0.645   1.868  0.00  0.00    +0.038 C 
ATOM     24  C   UNL     1       8.104  -0.364   2.473  0.00  0.00    +0.010 C 
ATOM     25  C   UNL     1       7.591   1.051   2.790  0.00  0.00    +0.001 C 
ATOM     26  C   UNL     1       6.176   0.451   2.801  0.00  0.00    +0.010 C 
ENDBRANCH   8  23
TORSDOF 2
