REMARK  Name = ZINC01752144
REMARK  6 active torsions:
REMARK  status: ('A' for Active; 'I' for Inactive)
REMARK    1  A    between atoms: C_6  and  C_7
REMARK    2  A    between atoms: N_11  and  C_15
REMARK    3  A    between atoms: C_15  and  C_16
REMARK    4  A    between atoms: N_18  and  C_19
REMARK    5  A    between atoms: C_22  and  S_25
REMARK    6  A    between atoms: S_25  and  N_28
REMARK                            x       y       z     vdW  Elec       q    Type
REMARK                         _______ _______ _______ _____ _____    ______ ____
ROOT
ATOM      1  C   UNL     1       5.869   0.137  -0.217  0.00  0.00    +0.213 C 
ENDROOT
BRANCH   1   6
ATOM      2  C   UNL     1       8.434   4.016   1.510  0.00  0.00    +0.028 C 
ATOM      3  C   UNL     1       7.927   3.165   0.583  0.00  0.00    +0.080 C 
ATOM      4  C   UNL     1       7.069   1.976   0.766  0.00  0.00    +0.261 C 
ATOM      5  O   UNL     1       6.703   1.614   1.869  0.00  0.00    -0.269 OA
ATOM      6  N   UNL     1       6.718   1.325  -0.331  0.00  0.00    -0.219 N 
ATOM      7  C   UNL     1       7.130   1.726  -1.551  0.00  0.00    +0.286 C 
ATOM      8  O   UNL     1       6.890   1.224  -2.632  0.00  0.00    -0.262 OA
ATOM      9  S   UNL     1       8.111   3.175  -1.195  0.00  0.00    -0.026 S 
BRANCH   2  15
ATOM     10  C   UNL     1      10.075   4.941  -0.114  0.00  0.00    +0.009 A 
ATOM     11  C   UNL     1      10.979   5.913  -0.485  0.00  0.00    +0.016 A 
ATOM     12  C   UNL     1      11.232   6.985   0.355  0.00  0.00    +0.018 A 
ATOM     13  C   UNL     1      10.576   7.092   1.571  0.00  0.00    +0.016 A 
ATOM     14  C   UNL     1       9.665   6.131   1.953  0.00  0.00    +0.009 A 
ATOM     15  C   UNL     1       9.404   5.045   1.109  0.00  0.00    -0.024 A 
ATOM     16 BR   UNL     1      12.480   8.310  -0.160  0.00  0.00    -0.050 Br
ENDBRANCH   2  15
ENDBRANCH   1   6
BRANCH   1  17
ATOM     17  C   UNL     1       4.420   0.546  -0.294  0.00  0.00    +0.235 C 
ATOM     18  O   UNL     1       4.127   1.715  -0.430  0.00  0.00    -0.274 OA
ATOM     19  N   UNL     1       3.451  -0.386  -0.211  0.00  0.00    -0.284 N 
ATOM     20  H   UNL     1       3.681  -1.308  -0.015  0.00  0.00    +0.155 HD
BRANCH  19  21
ATOM     21  C   UNL     1       2.114  -0.025  -0.408  0.00  0.00    +0.034 A 
ATOM     22  C   UNL     1       1.236  -0.910  -1.020  0.00  0.00    +0.025 A 
ATOM     23  C   UNL     1      -0.082  -0.548  -1.218  0.00  0.00    +0.030 A 
ATOM     24  C   UNL     1      -0.531   0.690  -0.797  0.00  0.00    +0.105 A 
ATOM     25  C   UNL     1       0.340   1.574  -0.187  0.00  0.00    +0.030 A 
ATOM     26  C   UNL     1       1.661   1.220   0.009  0.00  0.00    +0.025 A 
BRANCH  24  27
ATOM     27  S   UNL     1      -2.214   1.146  -1.046  0.00  0.00    +0.056 S 
ATOM     28  O   UNL     1      -2.952  -0.064  -1.145  0.00  0.00    -0.153 OA
ATOM     29  O   UNL     1      -2.513   2.143  -0.079  0.00  0.00    -0.153 OA
BRANCH  27  30
ATOM     30  N   UNL     1      -2.309   1.880  -2.528  0.00  0.00    -0.204 NA
ATOM     31  H   UNL     1      -1.511   1.983  -3.070  0.00  0.00    +0.144 HD
ATOM     32  H   UNL     1      -3.162   2.208  -2.853  0.00  0.00    +0.144 HD
ENDBRANCH  27  30
ENDBRANCH  24  27
ENDBRANCH  19  21
ENDBRANCH   1  17
TORSDOF 6
