REMARK  Name = ZINC44940340
REMARK  6 active torsions:
REMARK  status: ('A' for Active; 'I' for Inactive)
REMARK    1  A    between atoms: C_7  and  C_11
REMARK    2  A    between atoms: C_11  and  C_12
REMARK    3  A    between atoms: C_12  and  C_14
REMARK    4  A    between atoms: C_12  and  N_17
REMARK    5  A    between atoms: C_18  and  C_20
REMARK    6  A    between atoms: C_26  and  C_28
REMARK                            x       y       z     vdW  Elec       q    Type
REMARK                         _______ _______ _______ _____ _____    ______ ____
ROOT
ATOM      1  C   UNL     1      -1.384  -1.133  -3.853  0.00  0.00    +0.091 C 
ATOM      2  C   UNL     1      -0.824   0.182  -3.307  0.00  0.00    +0.040 C 
ATOM      3  C   UNL     1      -1.453   1.346  -4.016  0.00  0.00    -0.030 C 
ATOM      4  C   UNL     1      -2.084   1.254  -5.142  0.00  0.00    -0.030 C 
ATOM      5  C   UNL     1      -2.283  -0.030  -5.892  0.00  0.00    +0.040 C 
ATOM      6  C   UNL     1      -1.312  -1.097  -5.385  0.00  0.00    +0.091 C 
ENDROOT
BRANCH   6   7
ATOM      7  C   UNL     1      -1.696  -2.444  -5.941  0.00  0.00    +0.220 C 
ATOM      8  O   UNL     1      -2.429  -3.175  -5.309  0.00  0.00    -0.275 OA
ATOM      9  N   UNL     1      -1.224  -2.836  -7.141  0.00  0.00    -0.295 N 
ATOM     10  C   UNL     1      -1.668  -4.100  -7.750  0.00  0.00    +0.113 C 
ATOM     11  C   UNL     1      -2.432  -3.788  -9.043  0.00  0.00    +0.056 C 
ATOM     12  C   UNL     1      -1.662  -2.760  -9.831  0.00  0.00    -0.016 A 
ATOM     13  C   UNL     1      -1.792  -2.423 -11.234  0.00  0.00    +0.003 A 
ATOM     14  C   UNL     1      -2.617  -2.909 -12.253  0.00  0.00    +0.010 A 
ATOM     15  C   UNL     1      -2.466  -2.345 -13.496  0.00  0.00    +0.001 A 
ATOM     16  C   UNL     1      -1.544  -1.341 -13.742  0.00  0.00    +0.002 A 
ATOM     17  C   UNL     1      -0.715  -0.842 -12.752  0.00  0.00    +0.026 A 
ATOM     18  C   UNL     1      -0.847  -1.395 -11.480  0.00  0.00    +0.047 A 
ATOM     19  N   UNL     1      -0.205  -1.143 -10.302  0.00  0.00    -0.356 N 
ATOM     20  H   UNL     1       0.494  -0.482 -10.177  0.00  0.00    +0.166 HD
ATOM     21  C   UNL     1      -0.697  -1.964  -9.322  0.00  0.00    +0.038 A 
ATOM     22  C   UNL     1      -0.256  -2.008  -7.880  0.00  0.00    +0.161 C 
ENDBRANCH   6   7
BRANCH   1  24
ATOM     23  N   UNL     1      -0.477  -2.507  -2.007  0.00  0.00    -0.303 N 
ATOM     24  C   UNL     1      -0.565  -2.286  -3.334  0.00  0.00    +0.218 C 
ATOM     25  O   UNL     1       0.015  -3.016  -4.110  0.00  0.00    -0.275 OA
ATOM     26  H   UNL     1      -0.940  -1.923  -1.387  0.00  0.00    +0.149 HD
BRANCH  23  27
ATOM     27  C   UNL     1       0.319  -3.628  -1.502  0.00  0.00    +0.163 C 
BRANCH  27  28
ATOM     28  C   UNL     1      -0.518  -4.882  -1.509  0.00  0.00    +0.231 C 
ATOM     29  O   UNL     1      -1.666  -4.842  -1.897  0.00  0.00    -0.274 OA
ATOM     30  N   UNL     1       0.010  -6.047  -1.084  0.00  0.00    -0.328 N 
ATOM     31  H   UNL     1       0.928  -6.078  -0.773  0.00  0.00    +0.145 HD
ATOM     32  H   UNL     1      -0.529  -6.853  -1.088  0.00  0.00    +0.145 HD
ENDBRANCH  27  28
BRANCH  27  33
ATOM     33  C   UNL     1       0.776  -3.328  -0.074  0.00  0.00    +0.069 C 
BRANCH  33  40
ATOM     34  C   UNL     1       0.091   1.309   0.012  0.00  0.00    +0.001 A 
ATOM     35  C   UNL     1       1.277   2.031  -0.011  0.00  0.00    +0.002 A 
ATOM     36  C   UNL     1       2.492   1.385  -0.055  0.00  0.00    +0.026 A 
ATOM     37  C   UNL     1       2.535  -0.005  -0.076  0.00  0.00    +0.047 A 
ATOM     38  C   UNL     1       1.332  -0.733  -0.052  0.00  0.00    +0.003 A 
ATOM     39  C   UNL     1       0.110  -0.057  -0.008  0.00  0.00    +0.010 A 
ATOM     40  C   UNL     1       1.712  -2.147  -0.084  0.00  0.00    -0.020 A 
ATOM     41  C   UNL     1       3.053  -2.191  -0.122  0.00  0.00    +0.087 A 
ATOM     42  N   UNL     1       3.563  -0.921  -0.118  0.00  0.00    -0.360 N 
ATOM     43  H   UNL     1       4.507  -0.699  -0.142  0.00  0.00    +0.165 HD
ENDBRANCH  33  40
ENDBRANCH  27  33
ENDBRANCH  23  27
ENDBRANCH   1  24
TORSDOF 6
