REMARK  Name = ZINC13592037
REMARK  6 active torsions:
REMARK  status: ('A' for Active; 'I' for Inactive)
REMARK    1  A    between atoms: C_1  and  C_2
REMARK    2  A    between atoms: C_2  and  C_3
REMARK    3  A    between atoms: C_2  and  C_4
REMARK    4  A    between atoms: C_4  and  C_5
REMARK    5  A    between atoms: N_13  and  C_16
REMARK    6  A    between atoms: C_16  and  C_17
REMARK                            x       y       z     vdW  Elec       q    Type
REMARK                         _______ _______ _______ _____ _____    ______ ____
ROOT
ATOM      1  C   UNL     1      -1.416  -2.058  -0.121  0.00  0.00    +0.068 C 
ATOM      2  C   UNL     1      -2.849  -2.622  -0.025  0.00  0.00    +0.107 C 
ATOM      3  C   UNL     1      -2.882  -3.799  -1.040  0.00  0.00    +0.122 C 
ATOM      4  C   UNL     1      -3.059  -5.014  -0.158  0.00  0.00    +0.228 C 
ATOM      5  O   UNL     1      -3.129  -6.159  -0.549  0.00  0.00    -0.275 OA
ATOM      6  N   UNL     1      -3.128  -4.629   1.122  0.00  0.00    -0.239 N 
ATOM      7  C   UNL     1      -3.029  -3.294   1.317  0.00  0.00    +0.227 C 
ATOM      8  O   UNL     1      -3.072  -2.723   2.386  0.00  0.00    -0.275 OA
ATOM      9  C   UNL     1      -1.487  -3.801  -1.677  0.00  0.00    +0.136 C 
ATOM     10  N   UNL     1      -0.938  -2.453  -1.473  0.00  0.00    -0.295 NA
ATOM     11  C   UNL     1      -1.546  -4.172  -3.132  0.00  0.00    +0.005 A 
ATOM     12  C   UNL     1      -2.189  -3.629  -4.223  0.00  0.00    +0.008 A 
ATOM     13  C   UNL     1      -2.047  -4.210  -5.470  0.00  0.00    +0.002 A 
ATOM     14  C   UNL     1      -1.258  -5.337  -5.619  0.00  0.00    +0.022 A 
ATOM     15  C   UNL     1      -0.613  -5.885  -4.528  0.00  0.00    +0.062 A 
ATOM     16  C   UNL     1      -0.751  -5.305  -3.268  0.00  0.00    +0.057 A 
ATOM     17  N   UNL     1      -0.210  -5.667  -2.032  0.00  0.00    -0.282 N 
ATOM     18  C   UNL     1      -0.595  -4.834  -1.046  0.00  0.00    +0.243 C 
ATOM     19  O   UNL     1      -0.281  -4.903   0.124  0.00  0.00    -0.273 OA
ATOM     20 CL   UNL     1       0.374  -7.299  -4.727  0.00  0.00    -0.082 Cl
ATOM     21  H   UNL     1      -1.285  -1.821  -2.178  0.00  0.00    +0.123 HD
ATOM     22  H   UNL     1       0.375  -6.429  -1.900  0.00  0.00    +0.155 HD
ENDROOT
BRANCH   1  23
ATOM     23  C   UNL     1      -1.433  -0.534   0.013  0.00  0.00    +0.022 C 
BRANCH  23  25
ATOM     24  C   UNL     1      -0.019   1.526   0.010  0.00  0.00    +0.007 C 
ATOM     25  C   UNL     1       0.002  -0.004   0.002  0.00  0.00    -0.016 C 
ATOM     26  C   UNL     1       0.742  -0.511   1.242  0.00  0.00    +0.007 C 
ENDBRANCH  23  25
ENDBRANCH   1  23
BRANCH   6  27
ATOM     27  C   UNL     1      -3.303  -5.576   2.226  0.00  0.00    +0.148 C 
BRANCH  27  28
ATOM     28  C   UNL     1      -1.932  -6.035   2.726  0.00  0.00    +0.136 C 
ATOM     29  C   UNL     1      -2.096  -7.065   3.872  0.00  0.00    +0.035 C 
ATOM     30  C   UNL     1      -0.752  -7.837   3.769  0.00  0.00    +0.031 C 
ATOM     31  C   UNL     1      -0.480  -7.820   2.249  0.00  0.00    +0.160 C 
ATOM     32  O   UNL     1      -1.231  -6.736   1.686  0.00  0.00    -0.375 OA
ENDBRANCH  27  28
ENDBRANCH   6  27
TORSDOF 4
