REMARK  Name = ZINC40839572
REMARK  5 active torsions:
REMARK  status: ('A' for Active; 'I' for Inactive)
REMARK    1  A    between atoms: C_1  and  C_2
REMARK    2  A    between atoms: C_2  and  C_4
REMARK    3  A    between atoms: C_2  and  C_16
REMARK    4  A    between atoms: C_21  and  C_24
REMARK    5  A    between atoms: C_27  and  C_30
REMARK                            x       y       z     vdW  Elec       q    Type
REMARK                         _______ _______ _______ _____ _____    ______ ____
ROOT
ATOM      1  C   UNL     1       0.707  -0.490  -1.238  0.00  0.00    +0.223 C 
ATOM      2  O   UNL     1       1.704  -1.174  -1.140  0.00  0.00    -0.275 OA
ATOM      3  N   UNL     1       0.231  -0.164  -2.456  0.00  0.00    -0.264 N 
ATOM      4  C   UNL     1       0.881  -0.612  -3.599  0.00  0.00    +0.165 A 
ATOM      5  N   UNL     1       0.582  -0.402  -4.867  0.00  0.00    -0.225 NA
ATOM      6  C   UNL     1       1.320  -0.911  -5.842  0.00  0.00    +0.080 A 
ATOM      7  C   UNL     1       2.413  -1.670  -5.529  0.00  0.00    +0.076 A 
ATOM      8  S   UNL     1       2.350  -1.621  -3.743  0.00  0.00    -0.060 S 
ATOM      9  H   UNL     1      -0.566   0.383  -2.534  0.00  0.00    +0.157 HD
ENDROOT
BRANCH   6  10
ATOM     10  C   UNL     1       0.963  -0.661  -7.259  0.00  0.00    +0.001 A 
ATOM     11  C   UNL     1       1.742  -1.206  -8.281  0.00  0.00    +0.010 A 
ATOM     12  C   UNL     1       1.410  -0.973  -9.597  0.00  0.00    +0.009 A 
ATOM     13  C   UNL     1       0.297  -0.193  -9.909  0.00  0.00    -0.018 A 
ATOM     14  C   UNL     1      -0.481   0.352  -8.888  0.00  0.00    +0.009 A 
ATOM     15  C   UNL     1      -0.154   0.115  -7.571  0.00  0.00    +0.010 A 
BRANCH  13  16
ATOM     16  C   UNL     1      -0.059   0.058 -11.326  0.00  0.00    -0.018 A 
ATOM     17  C   UNL     1       0.713  -0.490 -12.349  0.00  0.00    +0.008 A 
ATOM     18  C   UNL     1       0.377  -0.253 -13.667  0.00  0.00    +0.001 A 
ATOM     19  C   UNL     1      -0.724   0.526 -13.973  0.00  0.00    +0.000 A 
ATOM     20  C   UNL     1      -1.494   1.072 -12.962  0.00  0.00    +0.001 A 
ATOM     21  C   UNL     1      -1.171   0.837 -11.641  0.00  0.00    +0.008 A 
ENDBRANCH  13  16
ENDBRANCH   6  10
BRANCH   1  23
ATOM     22  C   UNL     1      -0.019   1.526   0.010  0.00  0.00    +0.019 C 
ATOM     23  C   UNL     1       0.002  -0.004   0.002  0.00  0.00    +0.094 C 
BRANCH  23  24
ATOM     24  C   UNL     1       0.742  -0.511   1.242  0.00  0.00    +0.149 C 
ATOM     25  C   UNL     1       0.036  -0.033   2.481  0.00  0.00    +0.231 C 
ATOM     26  O   UNL     1       0.425   0.990   3.003  0.00  0.00    -0.274 OA
ATOM     27  N   UNL     1      -0.991  -0.671   3.036  0.00  0.00    -0.284 N 
ATOM     28  C   UNL     1      -1.577  -1.847   2.574  0.00  0.00    +0.047 A 
ATOM     29  C   UNL     1      -2.878  -2.158   2.954  0.00  0.00    +0.024 A 
ATOM     30  C   UNL     1      -3.473  -3.322   2.510  0.00  0.00    +0.002 A 
ATOM     31  C   UNL     1      -2.784  -4.191   1.683  0.00  0.00    +0.001 A 
ATOM     32  C   UNL     1      -1.490  -3.893   1.296  0.00  0.00    +0.016 A 
ATOM     33  C   UNL     1      -0.889  -2.726   1.737  0.00  0.00    +0.030 A 
ATOM     34  S   UNL     1       0.761  -2.329   1.239  0.00  0.00    -0.110 S 
ATOM     35  H   UNL     1      -1.368  -0.280   3.840  0.00  0.00    +0.155 HD
ENDBRANCH  23  24
ENDBRANCH   1  23
TORSDOF 4
