REMARK  Name = ZINC21230617
REMARK  11 active torsions:
REMARK  status: ('A' for Active; 'I' for Inactive)
REMARK    1  A    between atoms: C_1  and  C_2
REMARK    2  A    between atoms: C_2  and  N_3
REMARK    3  A    between atoms: C_4  and  C_20
REMARK    4  A    between atoms: C_7  and  S_8
REMARK    5  A    between atoms: S_8  and  C_9
REMARK    6  A    between atoms: C_9  and  C_11
REMARK    7  A    between atoms: C_9  and  C_14
REMARK    8  A    between atoms: C_11  and  C_12
REMARK    9  A    between atoms: C_11  and  C_13
REMARK   10  A    between atoms: C_20  and  S_21
REMARK   11  A    between atoms: S_21  and  C_22
REMARK                            x       y       z     vdW  Elec       q    Type
REMARK                         _______ _______ _______ _____ _____    ______ ____
ROOT
ATOM      1  N   UNL     1       3.360  -5.488   1.111  0.00  0.00    -0.306 N 
ATOM      2  C   UNL     1       2.654  -6.658   1.061  0.00  0.00    +0.144 A 
ATOM      3  N   UNL     1       1.469  -6.376   0.596  0.00  0.00    -0.133 NA
ATOM      4  N   UNL     1       1.378  -5.117   0.355  0.00  0.00    -0.122 NA
ATOM      5  C   UNL     1       2.512  -4.524   0.647  0.00  0.00    +0.192 A 
ENDROOT
BRANCH   1   7
ATOM      6  C   UNL     1       4.748  -5.015   3.068  0.00  0.00    +0.027 C 
ATOM      7  C   UNL     1       4.741  -5.307   1.566  0.00  0.00    +0.122 C 
ENDBRANCH   1   7
BRANCH   5   8
ATOM      8  S   UNL     1       2.869  -2.806   0.481  0.00  0.00    -0.073 S 
BRANCH   8   9
ATOM      9  C   UNL     1       1.242  -2.195  -0.024  0.00  0.00    +0.143 C 
BRANCH   9  10
ATOM     10  C   UNL     1       0.278  -2.320   1.127  0.00  0.00    +0.234 C 
ATOM     11  O   UNL     1       0.693  -2.332   2.267  0.00  0.00    -0.274 OA
ATOM     12  N   UNL     1      -1.045  -2.419   0.891  0.00  0.00    -0.239 N 
ATOM     13  C   UNL     1      -1.907  -2.531   1.921  0.00  0.00    +0.303 C 
ATOM     14  O   UNL     1      -1.491  -2.543   3.063  0.00  0.00    -0.253 OA
ATOM     15  N   UNL     1      -3.231  -2.624   1.684  0.00  0.00    -0.313 N 
ATOM     16  H   UNL     1      -1.421  -2.408  -0.143  0.00  0.00    +0.159 HD
ATOM     17  H   UNL     1      -3.934  -2.716   2.525  0.00  0.00    +0.146 HD
ATOM     18  H   UNL     1      -3.607  -2.608   0.651  0.00  0.00    +0.146 HD
ENDBRANCH   9  10
BRANCH   9  19
ATOM     19  C   UNL     1       1.355  -0.726  -0.437  0.00  0.00    +0.005 C 
ATOM     20  C   UNL     1       1.918   0.090   0.729  0.00  0.00    +0.009 C 
ATOM     21  C   UNL     1       2.290  -0.605  -1.642  0.00  0.00    +0.009 C 
ENDBRANCH   9  19
ENDBRANCH   8   9
ENDBRANCH   5   8
BRANCH   2  22
ATOM     22  C   UNL     1       3.152  -8.020   1.469  0.00  0.00    +0.152 C 
BRANCH  22  23
ATOM     23  S   UNL     1       2.792  -8.295   3.222  0.00  0.00    -0.091 S 
BRANCH  23  24
ATOM     24  C   UNL     1       3.462  -9.912   3.422  0.00  0.00    +0.136 A 
ATOM     25  N   UNL     1       3.500 -10.661   4.502  0.00  0.00    -0.233 NA
ATOM     26  C   UNL     1       4.050 -11.895   4.509  0.00  0.00    +0.079 A 
ATOM     27  C   UNL     1       4.155 -12.796   5.593  0.00  0.00    +0.029 A 
ATOM     28  C   UNL     1       4.748 -14.021   5.430  0.00  0.00    +0.002 A 
ATOM     29  C   UNL     1       5.264 -14.420   4.205  0.00  0.00    +0.001 A 
ATOM     30  C   UNL     1       5.178 -13.562   3.123  0.00  0.00    +0.017 A 
ATOM     31  C   UNL     1       4.586 -12.334   3.277  0.00  0.00    +0.040 A 
ATOM     32  S   UNL     1       4.256 -10.955   2.207  0.00  0.00    -0.061 S 
ENDBRANCH  23  24
ENDBRANCH  22  23
ENDBRANCH   2  22
TORSDOF 8
