REMARK  Name = ZINC64592854
REMARK  6 active torsions:
REMARK  status: ('A' for Active; 'I' for Inactive)
REMARK    1  A    between atoms: C_1  and  C_2
REMARK    2  A    between atoms: C_5  and  C_8
REMARK    3  A    between atoms: C_8  and  C_9
REMARK    4  A    between atoms: C_15  and  N_18
REMARK    5  A    between atoms: N_21  and  C_24
REMARK    6  A    between atoms: C_24  and  C_25
REMARK                            x       y       z     vdW  Elec       q    Type
REMARK                         _______ _______ _______ _____ _____    ______ ____
ROOT
ATOM      1  C   UNL     1       1.694  -4.279  -0.030  0.00  0.00    +0.158 A 
ATOM      2  N   UNL     1       2.362  -4.633  -1.120  0.00  0.00    -0.194 NA
ATOM      3  C   UNL     1       3.495  -5.236  -0.777  0.00  0.00    +0.255 A 
ATOM      4  N   UNL     1       4.489  -5.768  -1.492  0.00  0.00    -0.215 NA
ATOM      5  C   UNL     1       5.542  -6.327  -0.916  0.00  0.00    +0.052 A 
ATOM      6  C   UNL     1       5.631  -6.369   0.467  0.00  0.00    +0.014 A 
ATOM      7  C   UNL     1       4.605  -5.825   1.225  0.00  0.00    +0.131 A 
ATOM      8  N   UNL     1       3.540  -5.261   0.589  0.00  0.00    -0.182 N 
ATOM      9  N   UNL     1       2.370  -4.633   1.036  0.00  0.00    -0.147 NA
ATOM     10  C   UNL     1       6.803  -6.977   1.189  0.00  0.00    +0.040 C 
ATOM     11  C   UNL     1       7.596  -7.885   0.250  0.00  0.00    +0.005 C 
ATOM     12  C   UNL     1       7.908  -7.103  -1.031  0.00  0.00    +0.006 C 
ATOM     13  C   UNL     1       6.608  -6.907  -1.808  0.00  0.00    +0.056 C 
ENDROOT
BRANCH   7  14
ATOM     14  N   UNL     1       4.661  -5.856   2.600  0.00  0.00    -0.318 N 
ATOM     15  C   UNL     1       3.680  -6.626   3.381  0.00  0.00    +0.088 C 
ATOM     16  C   UNL     1       3.104  -5.715   4.470  0.00  0.00    -0.059 C 
ATOM     17  N   UNL     1       4.201  -5.150   5.265  0.00  0.00    +0.384 N 
ATOM     18  C   UNL     1       5.033  -4.281   4.423  0.00  0.00    -0.059 C 
ATOM     19  C   UNL     1       5.708  -5.125   3.331  0.00  0.00    +0.088 C 
ATOM     20  H   UNL     1       4.767  -5.899   5.636  0.00  0.00    -0.081 HD
BRANCH  17  21
ATOM     21  C   UNL     1       3.645  -4.366   6.376  0.00  0.00    -0.043 C 
BRANCH  21  22
ATOM     22  C   UNL     1       4.765  -3.887   7.263  0.00  0.00    -0.060 A 
ATOM     23  C   UNL     1       5.187  -4.668   8.323  0.00  0.00    +0.005 A 
ATOM     24  C   UNL     1       6.215  -4.234   9.139  0.00  0.00    +0.050 A 
ATOM     25  C   UNL     1       6.824  -3.013   8.897  0.00  0.00    +0.166 A 
ATOM     26  C   UNL     1       6.398  -2.226   7.830  0.00  0.00    +0.166 A 
ATOM     27  C   UNL     1       5.372  -2.671   7.012  0.00  0.00    +0.051 A 
ATOM     28  O   UNL     1       7.147  -1.085   7.803  0.00  0.00    -0.453 OA
ATOM     29  C   UNL     1       7.756  -0.995   9.105  0.00  0.00    +0.466 C 
ATOM     30  O   UNL     1       7.839  -2.365   9.539  0.00  0.00    -0.453 OA
ENDBRANCH  21  22
ENDBRANCH  17  21
ENDBRANCH   7  14
BRANCH   1  31
ATOM     31  C   UNL     1       0.363  -3.571  -0.018  0.00  0.00    +0.113 C 
BRANCH  31  36
ATOM     32  C   UNL     1       1.218   2.144  -0.026  0.00  0.00    +0.044 C 
ATOM     33  C   UNL     1       0.995   0.654  -0.024  0.00  0.00    -0.050 A 
ATOM     34  C   UNL     1       0.884  -0.030  -1.220  0.00  0.00    +0.003 A 
ATOM     35  C   UNL     1       0.679  -1.397  -1.218  0.00  0.00    +0.004 A 
ATOM     36  C   UNL     1       0.587  -2.081  -0.020  0.00  0.00    -0.040 A 
ATOM     37  C   UNL     1       0.700  -1.397   1.176  0.00  0.00    +0.004 A 
ATOM     38  C   UNL     1       0.908  -0.030   1.174  0.00  0.00    +0.003 A 
ENDBRANCH  31  36
ENDBRANCH   1  31
TORSDOF 5
