REMARK  Name = ZINC04121319
REMARK  4 active torsions:
REMARK  status: ('A' for Active; 'I' for Inactive)
REMARK    1  A    between atoms: C_1  and  O_2
REMARK    2  A    between atoms: O_2  and  C_3
REMARK    3  A    between atoms: N_12  and  N_13
REMARK    4  A    between atoms: C_14  and  C_16
REMARK                            x       y       z     vdW  Elec       q    Type
REMARK                         _______ _______ _______ _____ _____    ______ ____
ROOT
ATOM      1  N   UNL     1      -4.708   0.780   0.052  0.00  0.00    -0.231 N 
ATOM      2  C   UNL     1      -5.986   1.208   0.067  0.00  0.00    +0.267 C 
ATOM      3  O   UNL     1      -6.228   2.400   0.077  0.00  0.00    -0.268 OA
ATOM      4  H   UNL     1      -4.515  -0.170   0.045  0.00  0.00    +0.173 HD
ENDROOT
BRANCH   1  14
ATOM      5  C   UNL     1       1.246   2.051   0.001  0.00  0.00    +0.146 A 
ATOM      6  C   UNL     1       2.408   1.314  -0.014  0.00  0.00    +0.048 A 
ATOM      7  C   UNL     1       2.384  -0.073  -0.021  0.00  0.00    +0.005 A 
ATOM      8  C   UNL     1       1.168  -0.730  -0.013  0.00  0.00    +0.017 A 
ATOM      9  C   UNL     1       0.002  -0.004   0.002  0.00  0.00    +0.044 A 
ATOM     10  C   UNL     1      -0.017   1.408   0.010  0.00  0.00    +0.122 A 
ATOM     11  N   UNL     1      -1.243   1.977   0.030  0.00  0.00    -0.220 NA
ATOM     12  C   UNL     1      -2.349   1.269   0.032  0.00  0.00    +0.176 A 
ATOM     13  S   UNL     1      -1.728  -0.406   0.017  0.00  0.00    -0.051 S 
ATOM     14  N   UNL     1      -3.659   1.708   0.048  0.00  0.00    -0.242 N 
ATOM     15  H   UNL     1      -3.852   2.659   0.055  0.00  0.00    +0.172 HD
BRANCH   5  17
ATOM     16  C   UNL     1       2.613   3.997  -0.002  0.00  0.00    +0.277 C 
ATOM     17  O   UNL     1       1.310   3.409   0.007  0.00  0.00    -0.493 OA
ENDBRANCH   5  17
ENDBRANCH   1  14
BRANCH   2  18
ATOM     18  C   UNL     1      -7.089   0.233   0.073  0.00  0.00    +0.123 A 
ATOM     19  C   UNL     1      -6.828  -1.126   0.057  0.00  0.00    +0.031 A 
ATOM     20  C   UNL     1      -7.921  -2.030   0.068  0.00  0.00    +0.018 A 
ATOM     21  C   UNL     1      -7.692  -3.414   0.059  0.00  0.00    +0.011 A 
ATOM     22  C   UNL     1      -8.749  -4.278   0.064  0.00  0.00    +0.001 A 
ATOM     23  C   UNL     1     -10.051  -3.797   0.079  0.00  0.00    +0.004 A 
ATOM     24  C   UNL     1     -10.299  -2.441   0.089  0.00  0.00    +0.047 A 
ATOM     25  C   UNL     1      -9.239  -1.540   0.084  0.00  0.00    +0.139 A 
ATOM     26  O   UNL     1      -9.485  -0.213   0.094  0.00  0.00    -0.422 OA
ATOM     27  C   UNL     1      -8.485   0.685   0.089  0.00  0.00    +0.350 A 
ATOM     28  O   UNL     1      -8.738   1.875   0.098  0.00  0.00    -0.244 OA
ENDBRANCH   2  18
TORSDOF 3
