REMARK  Name = ZINC14707190
REMARK  6 active torsions:
REMARK  status: ('A' for Active; 'I' for Inactive)
REMARK    1  A    between atoms: C_1  and  C_2
REMARK    2  A    between atoms: C_4  and  C_9
REMARK    3  A    between atoms: C_9  and  N_10
REMARK    4  A    between atoms: C_11  and  C_13
REMARK    5  A    between atoms: C_15  and  S_19
REMARK    6  A    between atoms: S_19  and  N_22
REMARK                            x       y       z     vdW  Elec       q    Type
REMARK                         _______ _______ _______ _____ _____    ______ ____
ROOT
ATOM      1  C   UNL     1      -0.629  -1.184   3.717  0.00  0.00    +0.104 A 
ATOM      2  C   UNL     1      -1.094  -0.797   2.478  0.00  0.00    +0.060 A 
ATOM      3  C   UNL     1       0.025  -0.534   1.682  0.00  0.00    +0.123 A 
ATOM      4  C   UNL     1       1.131  -0.765   2.431  0.00  0.00    +0.112 A 
ATOM      5  N   UNL     1       0.747  -1.155   3.670  0.00  0.00    -0.355 N 
ATOM      6  H   UNL     1       1.342  -1.380   4.402  0.00  0.00    +0.166 HD
ENDROOT
BRANCH   1   8
ATOM      7  N   UNL     1      -0.859  -1.918   6.030  0.00  0.00    -0.306 N 
ATOM      8  C   UNL     1      -1.450  -1.558   4.873  0.00  0.00    +0.261 C 
ATOM      9  O   UNL     1      -2.663  -1.543   4.788  0.00  0.00    -0.269 OA
ATOM     10  H   UNL     1       0.108  -1.929   6.098  0.00  0.00    +0.149 HD
BRANCH   7  11
ATOM     11  C   UNL     1      -1.679  -2.291   7.186  0.00  0.00    +0.140 C 
BRANCH  11  15
ATOM     12  C   UNL     1       0.873  -0.929  11.269  0.00  0.00    +0.047 C 
ATOM     13  C   UNL     1       0.438  -1.996  10.297  0.00  0.00    -0.015 A 
ATOM     14  C   UNL     1      -0.384  -1.670   9.235  0.00  0.00    +0.011 A 
ATOM     15  C   UNL     1      -0.783  -2.648   8.344  0.00  0.00    -0.030 A 
ATOM     16  C   UNL     1      -0.365  -3.954   8.517  0.00  0.00    +0.008 A 
ATOM     17  C   UNL     1       0.461  -4.282   9.575  0.00  0.00    +0.039 A 
ATOM     18  C   UNL     1       0.861  -3.303  10.469  0.00  0.00    +0.126 A 
ATOM     19  F   UNL     1       1.665  -3.623  11.507  0.00  0.00    -0.205 F 
ENDBRANCH  11  15
ENDBRANCH   7  11
ENDBRANCH   1   8
BRANCH   3  20
ATOM     20  S   UNL     1       0.002  -0.004   0.002  0.00  0.00    +0.062 S 
ATOM     21  O   UNL     1      -1.243  -0.424  -0.539  0.00  0.00    -0.153 OA
ATOM     22  O   UNL     1       1.248  -0.390  -0.563  0.00  0.00    -0.153 OA
BRANCH  20  23
ATOM     23  N   UNL     1      -0.020   1.652   0.011  0.00  0.00    -0.177 NA
ATOM     24  C   UNL     1      -1.227   2.492   0.021  0.00  0.00    +0.109 C 
ATOM     25  C   UNL     1      -0.760   3.963   0.002  0.00  0.00    +0.018 C 
ATOM     26  C   UNL     1       0.668   3.865  -0.597  0.00  0.00    +0.018 C 
ATOM     27  C   UNL     1       1.166   2.527   0.004  0.00  0.00    +0.109 C 
ENDBRANCH  20  23
ENDBRANCH   3  20
TORSDOF 5
