REMARK  Name = ZINC66498725
REMARK  5 active torsions:
REMARK  status: ('A' for Active; 'I' for Inactive)
REMARK    1  A    between atoms: C_1  and  C_2
REMARK    2  A    between atoms: C_2  and  C_3
REMARK    3  A    between atoms: C_2  and  C_4
REMARK    4  A    between atoms: N_11  and  C_12
REMARK    5  A    between atoms: C_12  and  C_13
REMARK                            x       y       z     vdW  Elec       q    Type
REMARK                         _______ _______ _______ _____ _____    ______ ____
ROOT
ATOM      1  C   UNL     1      -0.673  -2.433   1.491  0.00  0.00    +0.159 C 
ENDROOT
BRANCH   1   2
ATOM      2  C   UNL     1      -0.623  -3.938   1.446  0.00  0.00    +0.125 A 
ATOM      3  N   UNL     1       0.056  -4.592   2.425  0.00  0.00    -0.309 N 
ATOM      4  H   UNL     1       0.495  -4.095   3.133  0.00  0.00    +0.170 HD
ATOM      5  C   UNL     1       0.114  -5.945   2.403  0.00  0.00    +0.266 A 
ATOM      6  O   UNL     1       0.714  -6.561   3.267  0.00  0.00    -0.267 OA
ATOM      7  C   UNL     1      -0.534  -6.614   1.364  0.00  0.00    +0.102 A 
ATOM      8  C   UNL     1      -1.230  -5.914   0.363  0.00  0.00    +0.085 A 
ATOM      9  N   UNL     1      -1.233  -4.545   0.479  0.00  0.00    -0.232 NA
ATOM     10  C   UNL     1      -1.834  -6.708  -0.620  0.00  0.00    +0.036 A 
ATOM     11  C   UNL     1      -1.728  -8.053  -0.567  0.00  0.00    +0.048 A 
ATOM     12  S   UNL     1      -0.748  -8.313   0.902  0.00  0.00    -0.090 S 
ENDBRANCH   1   2
BRANCH   1  19
ATOM     13  C   UNL     1      -1.215  -0.501   0.136  0.00  0.00    +0.146 C 
ATOM     14  C   UNL     1      -2.138   0.016  -0.931  0.00  0.00    +0.231 C 
ATOM     15  O   UNL     1      -1.877   1.075  -1.462  0.00  0.00    -0.274 OA
ATOM     16  N   UNL     1      -3.236  -0.641  -1.319  0.00  0.00    -0.313 N 
ATOM     17  C   UNL     1      -3.620  -1.938  -0.769  0.00  0.00    +0.119 C 
ATOM     18  C   UNL     1      -2.892  -2.183   0.553  0.00  0.00    +0.104 C 
ATOM     19  N   UNL     1      -1.456  -1.934   0.353  0.00  0.00    -0.283 NA
ATOM     20  H   UNL     1      -3.803  -0.239  -1.996  0.00  0.00    +0.149 HD
BRANCH  13  22
ATOM     21  C   UNL     1       0.447  -0.913  -1.683  0.00  0.00    +0.009 C 
ATOM     22  C   UNL     1       0.235  -0.290  -0.302  0.00  0.00    +0.009 C 
ATOM     23  C   UNL     1       0.536   1.209  -0.368  0.00  0.00    +0.009 C 
ENDBRANCH  13  22
ENDBRANCH   1  19
TORSDOF 3
