REMARK  Name = ZINC67040442
REMARK  9 active torsions:
REMARK  status: ('A' for Active; 'I' for Inactive)
REMARK    1  A    between atoms: C_1  and  C_2
REMARK    2  A    between atoms: C_2  and  C_3
REMARK    3  A    between atoms: C_2  and  C_4
REMARK    4  A    between atoms: C_4  and  C_5
REMARK    5  A    between atoms: C_5  and  C_6
REMARK    6  A    between atoms: N_8  and  N_9
REMARK    7  A    between atoms: N_12  and  C_13
REMARK    8  A    between atoms: C_13  and  C_14
REMARK    9  A    between atoms: C_17  and  C_19
REMARK                            x       y       z     vdW  Elec       q    Type
REMARK                         _______ _______ _______ _____ _____    ______ ____
ROOT
ATOM      1  N   UNL     1      -4.375  -4.388  -0.207  0.00  0.00    -0.218 N 
ATOM      2  C   UNL     1      -4.605  -5.711  -0.314  0.00  0.00    +0.316 C 
ATOM      3  O   UNL     1      -5.746  -6.132  -0.305  0.00  0.00    -0.251 OA
ATOM      4  N   UNL     1      -3.572  -6.568  -0.430  0.00  0.00    -0.291 N 
ATOM      5  H   UNL     1      -5.119  -3.771  -0.124  0.00  0.00    +0.174 HD
ATOM      6  H   UNL     1      -2.662  -6.233  -0.437  0.00  0.00    +0.151 HD
ENDROOT
BRANCH   1   9
ATOM      7  C   UNL     1      -2.829  -2.579  -0.111  0.00  0.00    +0.229 C 
ATOM      8  O   UNL     1      -3.760  -1.808  -0.006  0.00  0.00    -0.274 OA
ATOM      9  N   UNL     1      -3.060  -3.903  -0.217  0.00  0.00    -0.233 N 
ATOM     10  H   UNL     1      -2.316  -4.520  -0.301  0.00  0.00    +0.173 HD
BRANCH   7  11
ATOM     11  C   UNL     1      -1.416  -2.058  -0.121  0.00  0.00    +0.097 C 
BRANCH  11  12
ATOM     12  C   UNL     1      -1.433  -0.534   0.013  0.00  0.00    +0.012 C 
BRANCH  12  14
ATOM     13  C   UNL     1      -0.019   1.526   0.010  0.00  0.00    +0.007 C 
ATOM     14  C   UNL     1       0.002  -0.004   0.002  0.00  0.00    -0.017 C 
ATOM     15  C   UNL     1       0.742  -0.511   1.242  0.00  0.00    +0.007 C 
ENDBRANCH  12  14
ENDBRANCH  11  12
ENDBRANCH   7  11
ENDBRANCH   1   9
BRANCH   4  16
ATOM     16  C   UNL     1      -3.823  -8.007  -0.546  0.00  0.00    +0.180 C 
BRANCH  16  17
ATOM     17  C   UNL     1      -2.510  -8.738  -0.662  0.00  0.00    +0.123 A 
ATOM     18  C   UNL     1      -1.784  -9.220   0.368  0.00  0.00    +0.047 A 
ATOM     19  C   UNL     1      -0.640  -9.826  -0.180  0.00  0.00    +0.052 A 
ATOM     20  C   UNL     1      -0.729  -9.681  -1.533  0.00  0.00    +0.160 A 
ATOM     21  O   UNL     1      -1.873  -9.023  -1.808  0.00  0.00    -0.456 OA
BRANCH  20  22
ATOM     22  C   UNL     1       0.250 -10.162  -2.519  0.00  0.00    +0.144 A 
ATOM     23  N   UNL     1       1.375 -10.817  -2.316  0.00  0.00    -0.236 NA
ATOM     24  C   UNL     1       2.182 -11.199  -3.325  0.00  0.00    +0.079 A 
ATOM     25  C   UNL     1       3.408 -11.902  -3.245  0.00  0.00    +0.029 A 
ATOM     26  C   UNL     1       4.107 -12.213  -4.369  0.00  0.00    +0.002 A 
ATOM     27  C   UNL     1       3.651 -11.859  -5.632  0.00  0.00    +0.001 A 
ATOM     28  C   UNL     1       2.457 -11.173  -5.754  0.00  0.00    +0.017 A 
ATOM     29  C   UNL     1       1.744 -10.853  -4.625  0.00  0.00    +0.040 A 
ATOM     30  S   UNL     1       0.212 -10.015  -4.300  0.00  0.00    -0.064 S 
ENDBRANCH  20  22
ENDBRANCH  16  17
ENDBRANCH   4  16
TORSDOF 7
