REMARK  Name = ZINC66985354
REMARK  3 active torsions:
REMARK  status: ('A' for Active; 'I' for Inactive)
REMARK    1  A    between atoms: C_5  and  C_7
REMARK    2  A    between atoms: C_7  and  C_8
REMARK    3  A    between atoms: N_18  and  C_19
REMARK                            x       y       z     vdW  Elec       q    Type
REMARK                         _______ _______ _______ _____ _____    ______ ____
ROOT
ATOM      1  C   UNL     1       1.371  -2.696   1.385  0.00  0.00    +0.220 C 
ATOM      2  O   UNL     1       1.446  -1.912   2.307  0.00  0.00    -0.275 OA
ATOM      3  N   UNL     1       1.413  -4.022   1.622  0.00  0.00    -0.298 N 
ATOM      4  C   UNL     1       1.330  -4.983   0.513  0.00  0.00    +0.127 C 
ATOM      5  C   UNL     1       2.549  -5.912   0.578  0.00  0.00    +0.128 C 
ATOM      6  N   UNL     1       2.679  -6.422   1.949  0.00  0.00    -0.283 N 
ATOM      7  C   UNL     1       2.762  -5.461   3.058  0.00  0.00    +0.128 C 
ATOM      8  C   UNL     1       1.549  -4.532   2.994  0.00  0.00    +0.127 C 
ATOM      9  C   UNL     1       2.721  -7.748   2.187  0.00  0.00    +0.302 C 
ATOM     10  O   UNL     1       2.555  -8.535   1.274  0.00  0.00    -0.253 OA
ATOM     11  N   UNL     1       2.945  -8.203   3.436  0.00  0.00    -0.298 N 
ATOM     12  H   UNL     1       3.005  -7.578   4.176  0.00  0.00    +0.150 HD
ENDROOT
BRANCH  11  13
ATOM     13  C   UNL     1       3.100  -9.640   3.676  0.00  0.00    +0.059 C 
ATOM     14  C   UNL     1       1.720 -10.298   3.937  0.00  0.00    +0.002 C 
ATOM     15  C   UNL     1       1.796 -10.816   5.398  0.00  0.00    -0.077 C 
ATOM     16  N   UNL     1       2.824  -9.961   6.012  0.00  0.00    +0.383 N 
ATOM     17  C   UNL     1       3.885  -9.887   4.967  0.00  0.00    -0.048 C 
ATOM     18  C   UNL     1       4.832  -8.759   5.348  0.00  0.00    -0.014 C 
ATOM     19  C   UNL     1       5.500  -9.147   6.678  0.00  0.00    -0.003 C 
ATOM     20  C   UNL     1       4.444  -9.449   7.740  0.00  0.00    -0.019 C 
ATOM     21  C   UNL     1       3.428 -10.490   7.228  0.00  0.00    -0.078 C 
ATOM     22  H   UNL     1       2.445  -9.043   6.189  0.00  0.00    -0.081 HD
ENDBRANCH  11  13
BRANCH   1  23
ATOM     23  C   UNL     1       1.232  -2.187  -0.027  0.00  0.00    +0.134 C 
BRANCH  23  28
ATOM     24  C   UNL     1      -0.016   1.376   0.001  0.00  0.00    +0.000 A 
ATOM     25  C   UNL     1       1.171   2.086  -0.002  0.00  0.00    +0.003 A 
ATOM     26  C   UNL     1       2.378   1.414  -0.013  0.00  0.00    +0.038 A 
ATOM     27  C   UNL     1       2.400   0.029  -0.021  0.00  0.00    +0.127 A 
ATOM     28  C   UNL     1       1.211  -0.680  -0.018  0.00  0.00    -0.003 A 
ATOM     29  C   UNL     1       0.004  -0.006  -0.007  0.00  0.00    +0.007 A 
ATOM     30  F   UNL     1       3.579  -0.629  -0.032  0.00  0.00    -0.205 F 
ENDBRANCH  23  28
ENDBRANCH   1  23
TORSDOF 3
