REMARK  Name = ZINC34787294
REMARK  13 active torsions:
REMARK  status: ('A' for Active; 'I' for Inactive)
REMARK    1  A    between atoms: C_1  and  C_2
REMARK    2  A    between atoms: C_2  and  C_3
REMARK    3  A    between atoms: C_4  and  C_37
REMARK    4  A    between atoms: C_8  and  N_19
REMARK    5  A    between atoms: C_13  and  C_18
REMARK    6  A    between atoms: C_15  and  C_17
REMARK    7  A    between atoms: N_19  and  N_20
REMARK    8  A    between atoms: N_19  and  N_28
REMARK    9  A    between atoms: N_20  and  C_21
REMARK   10  A    between atoms: C_21  and  C_22
REMARK   11  A    between atoms: N_28  and  C_29
REMARK   12  A    between atoms: C_32  and  O_35
REMARK   13  A    between atoms: O_35  and  C_36
REMARK                            x       y       z     vdW  Elec       q    Type
REMARK                         _______ _______ _______ _____ _____    ______ ____
ROOT
ATOM      1  N   UNL     1       2.856   0.041   1.058  0.00  0.00    -0.166 N 
ENDROOT
BRANCH   1   7
ATOM      2  C   UNL     1       4.792  -2.046   2.153  0.00  0.00    -0.025 A 
ATOM      3  C   UNL     1       5.668  -3.022   2.433  0.00  0.00    -0.007 A 
ATOM      4  S   UNL     1       6.090  -3.677   0.829  0.00  0.00    -0.073 S 
ATOM      5  C   UNL     1       5.078  -2.621  -0.174  0.00  0.00    +0.116 A 
ATOM      6  C   UNL     1       4.434  -1.790   0.769  0.00  0.00    +0.054 A 
ATOM      7  C   UNL     1       3.538  -0.828   0.225  0.00  0.00    +0.167 A 
ATOM      8  N   UNL     1       3.365  -0.774  -1.085  0.00  0.00    -0.192 NA
ATOM      9  C   UNL     1       4.000  -1.589  -1.915  0.00  0.00    +0.254 A 
ATOM     10  N   UNL     1       4.853  -2.499  -1.467  0.00  0.00    -0.203 NA
ATOM     11  N   UNL     1       3.774  -1.482  -3.287  0.00  0.00    -0.202 N 
ATOM     12  C   UNL     1       4.343  -2.246  -4.255  0.00  0.00    +0.045 A 
ATOM     13  C   UNL     1       3.861  -1.824  -5.447  0.00  0.00    +0.048 A 
ATOM     14  C   UNL     1       2.971  -0.771  -5.203  0.00  0.00    +0.061 A 
ATOM     15  N   UNL     1       2.913  -0.570  -3.912  0.00  0.00    -0.169 NA
ATOM     16  C   UNL     1       2.205  -0.005  -6.251  0.00  0.00    +0.067 C 
ATOM     17  C   UNL     1       5.333  -3.362  -4.041  0.00  0.00    +0.066 C 
ATOM     18  C   UNL     1       6.175  -3.462   3.783  0.00  0.00    +0.052 C 
BRANCH   2  20
ATOM     19  C   UNL     1       3.504  -2.161   4.269  0.00  0.00    +0.009 C 
ATOM     20  C   UNL     1       4.181  -1.229   3.262  0.00  0.00    +0.033 C 
ENDBRANCH   2  20
ENDBRANCH   1   7
BRANCH   1  21
ATOM     21  N   UNL     1       3.547   0.844   1.921  0.00  0.00    -0.217 NA
ATOM     22  H   UNL     1       2.969   1.116   2.702  0.00  0.00    +0.146 HD
BRANCH  21  23
ATOM     23  C   UNL     1       4.084   2.022   1.228  0.00  0.00    +0.139 C 
BRANCH  23  24
ATOM     24  C   UNL     1       4.838   2.882   2.209  0.00  0.00    -0.032 A 
ATOM     25  C   UNL     1       4.177   3.875   2.908  0.00  0.00    +0.005 A 
ATOM     26  C   UNL     1       4.868   4.663   3.809  0.00  0.00    +0.000 A 
ATOM     27  C   UNL     1       6.220   4.459   4.011  0.00  0.00    +0.000 A 
ATOM     28  C   UNL     1       6.881   3.465   3.313  0.00  0.00    +0.000 A 
ATOM     29  C   UNL     1       6.189   2.674   2.416  0.00  0.00    +0.005 A 
ENDBRANCH  23  24
ENDBRANCH  21  23
ENDBRANCH   1  21
BRANCH   1  30
ATOM     30  N   UNL     1       1.457   0.098   1.015  0.00  0.00    -0.249 N 
ATOM     31  H   UNL     1       1.014   0.863   0.617  0.00  0.00    +0.172 HD
BRANCH  30  32
ATOM     32  C   UNL     1       0.698  -0.951   1.548  0.00  0.00    +0.046 A 
ATOM     33  C   UNL     1       1.327  -2.097   2.014  0.00  0.00    +0.028 A 
ATOM     34  C   UNL     1       0.577  -3.131   2.539  0.00  0.00    +0.047 A 
ATOM     35  C   UNL     1      -0.804  -3.024   2.602  0.00  0.00    +0.120 A 
ATOM     36  C   UNL     1      -1.434  -1.879   2.137  0.00  0.00    +0.047 A 
ATOM     37  C   UNL     1      -0.685  -0.842   1.616  0.00  0.00    +0.028 A 
BRANCH  35  38
ATOM     38  O   UNL     1      -1.542  -4.043   3.119  0.00  0.00    -0.495 OA
ATOM     39  C   UNL     1      -2.959  -3.865   3.153  0.00  0.00    +0.277 C 
ENDBRANCH  35  38
ENDBRANCH  30  32
ENDBRANCH   1  30
TORSDOF 8
