REMARK  Name = ZINC08833254
REMARK  6 active torsions:
REMARK  status: ('A' for Active; 'I' for Inactive)
REMARK    1  A    between atoms: C_1  and  O_2
REMARK    2  A    between atoms: O_2  and  C_3
REMARK    3  A    between atoms: C_6  and  C_11
REMARK    4  A    between atoms: N_13  and  C_14
REMARK    5  A    between atoms: C_14  and  N_16
REMARK    6  A    between atoms: C_19  and  O_20
REMARK                            x       y       z     vdW  Elec       q    Type
REMARK                         _______ _______ _______ _____ _____    ______ ____
ROOT
ATOM      1  N   UNL     1       3.188  -5.758  -5.553  0.00  0.00    -0.296 N 
ATOM      2  C   UNL     1       3.702  -6.408  -6.630  0.00  0.00    +0.036 C 
ATOM      3  C   UNL     1       3.634  -7.804  -6.702  0.00  0.00    +0.069 C 
ATOM      4  C   UNL     1       4.156  -8.461  -7.796  0.00  0.00    +0.128 C 
ATOM      5  C   UNL     1       4.756  -7.721  -8.835  0.00  0.00    +0.044 C 
ATOM      6  C   UNL     1       5.311  -8.409  -9.998  0.00  0.00    +0.081 C 
ATOM      7  N   UNL     1       5.332  -9.734 -10.242  0.00  0.00    -0.308 N 
ATOM      8  C   UNL     1       5.902 -10.216 -11.401  0.00  0.00    +0.046 A 
ATOM      9  C   UNL     1       6.028 -11.541 -11.845  0.00  0.00    +0.024 A 
ATOM     10  C   UNL     1       6.637 -11.822 -13.044  0.00  0.00    +0.002 A 
ATOM     11  C   UNL     1       7.142 -10.812 -13.848  0.00  0.00    +0.001 A 
ATOM     12  C   UNL     1       7.030  -9.497 -13.434  0.00  0.00    +0.017 A 
ATOM     13  C   UNL     1       6.422  -9.213 -12.234  0.00  0.00    +0.035 A 
ATOM     14  S   UNL     1       6.063  -7.726 -11.338  0.00  0.00    -0.072 S 
ATOM     15  C   UNL     1       4.818  -6.320  -8.751  0.00  0.00    +0.016 C 
ATOM     16  C   UNL     1       4.296  -5.676  -7.672  0.00  0.00    +0.024 C 
ATOM     17  H   UNL     1       3.161  -6.198  -4.689  0.00  0.00    +0.154 HD
ATOM     18  H   UNL     1       4.944 -10.350  -9.600  0.00  0.00    +0.153 HD
ENDROOT
BRANCH   1  19
ATOM     19  C   UNL     1       2.723  -4.523  -5.683  0.00  0.00    +0.141 C 
ATOM     20  S   UNL     1       2.604  -3.812  -7.236  0.00  0.00    -0.018 S 
BRANCH  19  23
ATOM     21  C   UNL     1       1.872  -2.571  -4.725  0.00  0.00    +0.255 C 
ATOM     22  O   UNL     1       1.788  -2.067  -5.828  0.00  0.00    -0.270 OA
ATOM     23  N   UNL     1       2.345  -3.827  -4.593  0.00  0.00    -0.263 N 
ATOM     24  H   UNL     1       2.412  -4.229  -3.713  0.00  0.00    +0.157 HD
BRANCH  21  28
ATOM     25  C   UNL     1       0.680  -0.378  -1.287  0.00  0.00    +0.196 A 
ATOM     26  C   UNL     1      -0.246  -1.168  -1.959  0.00  0.00    +0.204 A 
ATOM     27  C   UNL     1       0.137  -1.883  -3.078  0.00  0.00    +0.177 A 
ATOM     28  C   UNL     1       1.459  -1.811  -3.534  0.00  0.00    +0.113 A 
ATOM     29  C   UNL     1       2.387  -1.013  -2.852  0.00  0.00    +0.177 A 
ATOM     30  C   UNL     1       1.992  -0.298  -1.738  0.00  0.00    +0.204 A 
ATOM     31  F   UNL     1       2.885   0.476  -1.083  0.00  0.00    -0.198 F 
ATOM     32  F   UNL     1       3.664  -0.939  -3.287  0.00  0.00    -0.201 F 
ATOM     33  F   UNL     1      -0.763  -2.651  -3.730  0.00  0.00    -0.201 F 
ATOM     34  F   UNL     1      -1.521  -1.237  -1.518  0.00  0.00    -0.198 F 
BRANCH  25  36
ATOM     35  C   UNL     1      -0.198   1.646  -0.403  0.00  0.00    +0.277 C 
ATOM     36  O   UNL     1       0.298   0.323  -0.188  0.00  0.00    -0.489 OA
ENDBRANCH  25  36
ENDBRANCH  21  28
ENDBRANCH  19  23
ENDBRANCH   1  19
BRANCH   4  37
ATOM     37  O   UNL     1       4.093  -9.814  -7.873  0.00  0.00    -0.506 OA
ATOM     38  H   UNL     1       3.664 -10.231  -7.114  0.00  0.00    +0.292 HD
ENDBRANCH   4  37
TORSDOF 5
