REMARK  Name = ZINC05054221
REMARK  7 active torsions:
REMARK  status: ('A' for Active; 'I' for Inactive)
REMARK    1  A    between atoms: C_1  and  C_2
REMARK    2  A    between atoms: C_5  and  S_7
REMARK    3  A    between atoms: S_7  and  C_8
REMARK    4  A    between atoms: C_8  and  C_10
REMARK    5  A    between atoms: C_8  and  C_13
REMARK    6  A    between atoms: C_10  and  C_11
REMARK    7  A    between atoms: C_10  and  C_12
REMARK                            x       y       z     vdW  Elec       q    Type
REMARK                         _______ _______ _______ _____ _____    ______ ____
ROOT
ATOM      1  C   UNL     1      -2.318   3.244   5.749  0.00  0.00    +0.142 C 
ENDROOT
BRANCH   1   2
ATOM      2  C   UNL     1      -3.155   3.705   6.914  0.00  0.00    +0.234 C 
ATOM      3  O   UNL     1      -4.338   3.441   6.952  0.00  0.00    -0.274 OA
ATOM      4  N   UNL     1      -2.590   4.411   7.913  0.00  0.00    -0.239 N 
ATOM      5  C   UNL     1      -3.339   4.823   8.955  0.00  0.00    +0.303 C 
ATOM      6  O   UNL     1      -4.524   4.558   8.993  0.00  0.00    -0.253 OA
ATOM      7  N   UNL     1      -2.773   5.529   9.954  0.00  0.00    -0.313 N 
ATOM      8  H   UNL     1      -1.644   4.622   7.882  0.00  0.00    +0.159 HD
ATOM      9  H   UNL     1      -1.827   5.740   9.923  0.00  0.00    +0.146 HD
ATOM     10  H   UNL     1      -3.312   5.825  10.704  0.00  0.00    +0.146 HD
ENDBRANCH   1   2
BRANCH   1  11
ATOM     11  C   UNL     1      -1.637   1.920   6.102  0.00  0.00    +0.005 C 
ATOM     12  C   UNL     1      -0.782   1.456   4.922  0.00  0.00    +0.009 C 
ATOM     13  C   UNL     1      -0.747   2.116   7.331  0.00  0.00    +0.009 C 
ENDBRANCH   1  11
BRANCH   1  14
ATOM     14  S   UNL     1      -3.376   3.011   4.299  0.00  0.00    -0.084 S 
BRANCH  14  19
ATOM     15  C   UNL     1      -5.293   8.329   2.611  0.00  0.00    +0.075 C 
ATOM     16  C   UNL     1      -4.711   7.076   3.212  0.00  0.00    +0.100 A 
ATOM     17  N   UNL     1      -3.986   6.917   4.301  0.00  0.00    -0.146 NA
ATOM     18  N   UNL     1      -3.571   5.785   4.673  0.00  0.00    -0.135 NA
ATOM     19  C   UNL     1      -3.839   4.682   3.986  0.00  0.00    +0.159 A 
ATOM     20  S   UNL     1      -4.814   5.377   2.654  0.00  0.00    -0.044 S 
ENDBRANCH  14  19
ENDBRANCH   1  14
TORSDOF 4
