REMARK  Name = ZINC04953137
REMARK  7 active torsions:
REMARK  status: ('A' for Active; 'I' for Inactive)
REMARK    1  A    between atoms: C_1  and  C_2
REMARK    2  A    between atoms: C_2  and  C_22
REMARK    3  A    between atoms: C_4  and  N_9
REMARK    4  A    between atoms: C_6  and  C_7
REMARK    5  A    between atoms: C_6  and  C_8
REMARK    6  A    between atoms: C_10  and  C_12
REMARK    7  A    between atoms: C_17  and  N_18
REMARK                            x       y       z     vdW  Elec       q    Type
REMARK                         _______ _______ _______ _____ _____    ______ ____
ROOT
ATOM      1  N   UNL     1       1.112   3.116  -3.483  0.00  0.00    -0.309 N 
ATOM      2  C   UNL     1       0.660   4.205  -4.135  0.00  0.00    +0.246 C 
ATOM      3  O   UNL     1      -0.167   4.927  -3.612  0.00  0.00    -0.270 OA
ATOM      4  H   UNL     1       1.772   2.540  -3.900  0.00  0.00    +0.149 HD
ENDROOT
BRANCH   1   8
ATOM      5  C   UNL     1      -2.323   0.556  -1.083  0.00  0.00    -0.010 C 
ATOM      6  C   UNL     1      -1.215   1.614  -0.887  0.00  0.00    -0.072 C 
ATOM      7  C   UNL     1      -0.677   1.977  -2.268  0.00  0.00    +0.009 C 
ATOM      8  C   UNL     1       0.605   2.800  -2.142  0.00  0.00    +0.071 C 
ATOM      9  C   UNL     1       1.645   1.967  -1.394  0.00  0.00    +0.009 C 
ATOM     10  C   UNL     1       1.135   1.605  -0.001  0.00  0.00    -0.072 C 
ATOM     11  C   UNL     1       1.217   2.836   0.910  0.00  0.00    -0.010 C 
ATOM     12  C   UNL     1       2.090   0.540   0.583  0.00  0.00    -0.010 C 
ATOM     13  C   UNL     1      -1.871   2.846  -0.252  0.00  0.00    -0.010 C 
ATOM     14  N   UNL     1      -0.221   0.994   0.030  0.00  0.00    +0.386 N 
ATOM     15  H   UNL     1      -0.129   0.004  -0.223  0.00  0.00    -0.084 HD
ATOM     16  H   UNL     1      -0.582   1.070   0.989  0.00  0.00    -0.084 HD
ENDBRANCH   1   8
BRANCH   2  17
ATOM     17  C   UNL     1       1.170   4.523  -5.485  0.00  0.00    +0.067 A 
ATOM     18  C   UNL     1       1.089   3.574  -6.506  0.00  0.00    +0.017 A 
ATOM     19  C   UNL     1       1.562   3.878  -7.765  0.00  0.00    +0.021 A 
ATOM     20  C   UNL     1       2.126   5.119  -8.015  0.00  0.00    +0.043 A 
ATOM     21  C   UNL     1       2.214   6.062  -7.005  0.00  0.00    +0.053 A 
ATOM     22  C   UNL     1       1.739   5.771  -5.743  0.00  0.00    +0.140 A 
ATOM     23 CL   UNL     1       2.726   5.492  -9.601  0.00  0.00    -0.083 Cl
BRANCH  22  24
ATOM     24  N   UNL     1       1.833   6.781  -4.665  0.00  0.00    +0.057 N 
ATOM     25  O   UNL     1       2.220   7.908  -4.918  0.00  0.00    -0.126 OA
ATOM     26  O   UNL     1       1.525   6.484  -3.524  0.00  0.00    -0.126 OA
ENDBRANCH  22  24
ENDBRANCH   2  17
TORSDOF 3
