REMARK  Name = ZINC06301208
REMARK  7 active torsions:
REMARK  status: ('A' for Active; 'I' for Inactive)
REMARK    1  A    between atoms: C_1  and  C_2
REMARK    2  A    between atoms: C_4  and  C_34
REMARK    3  A    between atoms: C_9  and  C_14
REMARK    4  A    between atoms: C_14  and  C_16
REMARK    5  A    between atoms: C_14  and  N_63
REMARK    6  A    between atoms: N_20  and  C_21
REMARK    7  A    between atoms: C_21  and  C_22
REMARK                            x       y       z     vdW  Elec       q    Type
REMARK                         _______ _______ _______ _____ _____    ______ ____
ROOT
ATOM      1  C   UNL     1       1.667   6.426  -1.702  0.00  0.00    +0.039 C 
ENDROOT
BRANCH   1  10
ATOM      2  C   UNL     1       4.582  11.569   2.845  0.00  0.00    +0.044 C 
ATOM      3  C   UNL     1       4.434  10.957   1.476  0.00  0.00    -0.050 A 
ATOM      4  C   UNL     1       5.121  11.505   0.400  0.00  0.00    +0.008 A 
ATOM      5  C   UNL     1       5.001  10.962  -0.861  0.00  0.00    -0.026 A 
ATOM      6  C   UNL     1       4.184   9.853  -1.060  0.00  0.00    +0.052 A 
ATOM      7  C   UNL     1       3.490   9.301   0.032  0.00  0.00    -0.001 A 
ATOM      8  C   UNL     1       3.626   9.869   1.303  0.00  0.00    +0.013 A 
ATOM      9  C   UNL     1       2.633   8.134  -0.188  0.00  0.00    +0.017 A 
ATOM     10  C   UNL     1       2.540   7.627  -1.442  0.00  0.00    +0.011 A 
ATOM     11  C   UNL     1       3.261   8.215  -2.502  0.00  0.00    +0.251 A 
ATOM     12  O   UNL     1       3.167   7.740  -3.621  0.00  0.00    -0.268 OA
ATOM     13  N   UNL     1       4.046   9.290  -2.311  0.00  0.00    -0.322 N 
ATOM     14  H   UNL     1       4.526   9.671  -3.063  0.00  0.00    +0.169 HD
ATOM     15  C   UNL     1       5.752  11.566  -2.019  0.00  0.00    +0.046 C 
ENDBRANCH   1  10
BRANCH   1  22
ATOM     16  C   UNL     1      -0.014   8.003  -2.476  0.00  0.00    -0.077 C 
ATOM     17  C   UNL     1      -1.190   8.228  -3.387  0.00  0.00    -0.019 C 
ATOM     18  C   UNL     1      -2.455   7.673  -2.699  0.00  0.00    -0.002 C 
ATOM     19  C   UNL     1      -2.548   6.221  -2.805  0.00  0.00    -0.002 C 
ATOM     20  C   UNL     1      -1.358   5.510  -2.129  0.00  0.00    -0.019 C 
ATOM     21  C   UNL     1      -0.171   5.584  -3.051  0.00  0.00    -0.077 C 
ATOM     22  N   UNL     1       0.746   6.748  -2.804  0.00  0.00    +0.389 N 
ATOM     23  H   UNL     1       1.294   6.915  -3.656  0.00  0.00    -0.080 HD
ENDBRANCH   1  22
BRANCH   1  24
ATOM     24  C   UNL     1       2.525   5.264  -2.130  0.00  0.00    +0.143 A 
ATOM     25  N   UNL     1       3.095   5.100  -3.299  0.00  0.00    -0.115 NA
ATOM     26  N   UNL     1       3.742   3.986  -3.273  0.00  0.00    -0.023 NA
ATOM     27  N   UNL     1       3.606   3.439  -2.116  0.00  0.00    -0.044 NA
ATOM     28  N   UNL     1       2.858   4.194  -1.384  0.00  0.00    -0.226 N 
BRANCH  28  29
ATOM     29  C   UNL     1       2.451   3.937  -0.001  0.00  0.00    +0.182 C 
BRANCH  29  30
ATOM     30  C   UNL     1       1.156   3.165   0.008  0.00  0.00    -0.026 A 
ATOM     31  C   UNL     1       1.175   1.783   0.000  0.00  0.00    +0.005 A 
ATOM     32  C   UNL     1      -0.013   1.076   0.008  0.00  0.00    +0.000 A 
ATOM     33  C   UNL     1      -1.219   1.751   0.017  0.00  0.00    +0.000 A 
ATOM     34  C   UNL     1      -1.238   3.133   0.030  0.00  0.00    +0.000 A 
ATOM     35  C   UNL     1      -0.050   3.840   0.023  0.00  0.00    +0.005 A 
ENDBRANCH  29  30
ENDBRANCH  28  29
ENDBRANCH   1  24
TORSDOF 5
