REMARK  Name = ZINC37055561
REMARK  6 active torsions:
REMARK  status: ('A' for Active; 'I' for Inactive)
REMARK    1  A    between atoms: C_1  and  N_2
REMARK    2  A    between atoms: C_5  and  N_8
REMARK    3  A    between atoms: N_8  and  C_9
REMARK    4  A    between atoms: N_8  and  S_10
REMARK    5  A    between atoms: S_10  and  C_13
REMARK    6  A    between atoms: C_18  and  N_19
REMARK                            x       y       z     vdW  Elec       q    Type
REMARK                         _______ _______ _______ _____ _____    ______ ____
ROOT
ATOM      1  S   UNL     1       2.459  -4.961  -0.141  0.00  0.00    +0.063 S 
ATOM      2  O   UNL     1       2.162  -6.178  -0.811  0.00  0.00    -0.153 OA
ATOM      3  O   UNL     1       3.373  -4.007  -0.665  0.00  0.00    -0.153 OA
ENDROOT
BRANCH   1   4
ATOM      4  C   UNL     1       3.051  -5.398   1.460  0.00  0.00    +0.126 A 
ATOM      5  C   UNL     1       3.128  -6.727   1.829  0.00  0.00    +0.031 A 
ATOM      6  C   UNL     1       3.592  -7.072   3.085  0.00  0.00    +0.017 A 
ATOM      7  C   UNL     1       3.981  -6.087   3.976  0.00  0.00    +0.020 A 
ATOM      8  C   UNL     1       3.906  -4.756   3.613  0.00  0.00    +0.040 A 
ATOM      9  C   UNL     1       3.446  -4.408   2.349  0.00  0.00    +0.052 A 
ATOM     10 BR   UNL     1       4.615  -6.564   5.693  0.00  0.00    -0.050 Br
BRANCH   9  11
ATOM     11  N   UNL     1       3.374  -3.063   1.977  0.00  0.00    -0.356 N 
ATOM     12  H   UNL     1       3.159  -2.825   1.062  0.00  0.00    +0.142 HD
ATOM     13  H   UNL     1       3.540  -2.369   2.633  0.00  0.00    +0.142 HD
ENDBRANCH   9  11
ENDBRANCH   1   4
BRANCH   1  14
ATOM     14  N   UNL     1       1.019  -4.171   0.068  0.00  0.00    -0.177 NA
ATOM     15  C   UNL     1      -0.218  -4.938   0.239  0.00  0.00    +0.132 C 
BRANCH  14  20
ATOM     16  C   UNL     1      -0.747   1.177   0.375  0.00  0.00    -0.096 C 
ATOM     17  N   UNL     1      -0.583  -0.283   0.342  0.00  0.00    +0.378 N 
ATOM     18  C   UNL     1      -0.040  -0.682  -0.962  0.00  0.00    -0.078 C 
ATOM     19  C   UNL     1       0.057  -2.208  -1.033  0.00  0.00    +0.002 C 
ATOM     20  C   UNL     1       0.981  -2.707   0.082  0.00  0.00    +0.076 C 
ATOM     21  C   UNL     1       0.446  -2.221   1.432  0.00  0.00    +0.002 C 
ATOM     22  C   UNL     1       0.334  -0.695   1.411  0.00  0.00    -0.078 C 
ATOM     23  H   UNL     1      -1.480  -0.724   0.480  0.00  0.00    -0.082 HD
ENDBRANCH  14  20
ENDBRANCH   1  14
TORSDOF 4
