REMARK  Name = ZINC11063144
REMARK  8 active torsions:
REMARK  status: ('A' for Active; 'I' for Inactive)
REMARK    1  A    between atoms: C_1  and  C_2
REMARK    2  A    between atoms: C_6  and  N_8
REMARK    3  A    between atoms: C_9  and  C_11
REMARK    4  A    between atoms: C_11  and  C_13
REMARK    5  A    between atoms: C_11  and  O_14
REMARK    6  A    between atoms: O_14  and  C_15
REMARK    7  A    between atoms: C_15  and  C_17
REMARK    8  A    between atoms: C_18  and  C_32
REMARK                            x       y       z     vdW  Elec       q    Type
REMARK                         _______ _______ _______ _____ _____    ______ ____
ROOT
ATOM      1  C   UNL     1       2.608   9.072   1.028  0.00  0.00    +0.347 C 
ATOM      2  O   UNL     1       1.662   9.627   1.554  0.00  0.00    -0.244 OA
ENDROOT
BRANCH   1   3
ATOM      3  C   UNL     1       3.952   9.638   1.157  0.00  0.00    +0.102 A 
ATOM      4  C   UNL     1       4.342  10.767   1.817  0.00  0.00    -0.015 A 
ATOM      5  C   UNL     1       5.688  11.140   1.821  0.00  0.00    +0.076 A 
ATOM      6  C   UNL     1       6.566  10.285   1.116  0.00  0.00    +0.116 A 
ATOM      7  S   UNL     1       5.489   9.018   0.494  0.00  0.00    -0.062 S 
ATOM      8  N   UNL     1       7.869  10.525   1.043  0.00  0.00    -0.226 NA
ATOM      9  C   UNL     1       8.409  11.563   1.617  0.00  0.00    +0.114 A 
ATOM     10  N   UNL     1       7.662  12.459   2.325  0.00  0.00    -0.296 N 
ATOM     11  C   UNL     1       6.333  12.309   2.462  0.00  0.00    +0.263 A 
ATOM     12  O   UNL     1       5.676  13.114   3.097  0.00  0.00    -0.267 OA
ATOM     13  C   UNL     1       8.350  13.600   2.943  0.00  0.00    +0.126 C 
ATOM     14  C   UNL     1       8.733  14.604   1.858  0.00  0.00    +0.022 C 
ATOM     15  C   UNL     1      10.110  14.299   1.292  0.00  0.00    +0.002 C 
ATOM     16  C   UNL     1      10.146  12.971   0.556  0.00  0.00    +0.008 C 
ATOM     17  C   UNL     1       9.897  11.805   1.512  0.00  0.00    +0.074 C 
ATOM     18  C   UNL     1       3.323  11.608   2.542  0.00  0.00    +0.046 C 
ENDBRANCH   1   3
BRANCH   1  19
ATOM     19  O   UNL     1       2.418   7.936   0.327  0.00  0.00    -0.448 OA
BRANCH  19  20
ATOM     20  C   UNL     1       1.059   7.433   0.242  0.00  0.00    +0.259 C 
ATOM     21  C   UNL     1       0.370   8.030  -0.986  0.00  0.00    +0.062 C 
BRANCH  20  23
ATOM     22  N   UNL     1      -0.069   5.242   0.028  0.00  0.00    -0.282 N 
ATOM     23  C   UNL     1       1.085   5.931   0.122  0.00  0.00    +0.258 C 
ATOM     24  O   UNL     1       2.146   5.342   0.109  0.00  0.00    -0.271 OA
ATOM     25  H   UNL     1      -0.913   5.715  -0.039  0.00  0.00    +0.155 HD
BRANCH  22  31
ATOM     26  C   UNL     1      -1.980   0.985  -1.521  0.00  0.00    +0.044 C 
ATOM     27  C   UNL     1      -0.965   1.754  -0.715  0.00  0.00    -0.049 A 
ATOM     28  C   UNL     1      -0.013   1.076   0.025  0.00  0.00    +0.003 A 
ATOM     29  C   UNL     1       0.923   1.778   0.762  0.00  0.00    +0.002 A 
ATOM     30  C   UNL     1       0.907   3.159   0.765  0.00  0.00    +0.023 A 
ATOM     31  C   UNL     1      -0.051   3.842   0.028  0.00  0.00    +0.034 A 
ATOM     32  C   UNL     1      -0.990   3.134  -0.711  0.00  0.00    +0.026 A 
ENDBRANCH  22  31
ENDBRANCH  20  23
ENDBRANCH  19  20
ENDBRANCH   1  19
TORSDOF 5
