REMARK  Name = ZINC05215213
REMARK  9 active torsions:
REMARK  status: ('A' for Active; 'I' for Inactive)
REMARK    1  A    between atoms: C_1  and  C_2
REMARK    2  A    between atoms: C_7  and  N_12
REMARK    3  A    between atoms: C_9  and  C_11
REMARK    4  A    between atoms: C_15  and  C_19
REMARK    5  A    between atoms: C_15  and  N_23
REMARK    6  A    between atoms: C_17  and  O_18
REMARK    7  A    between atoms: C_24  and  C_26
REMARK    8  A    between atoms: C_26  and  C_27
REMARK    9  A    between atoms: C_27  and  C_28
REMARK                            x       y       z     vdW  Elec       q    Type
REMARK                         _______ _______ _______ _____ _____    ______ ____
ROOT
ATOM      1  N   UNL     1       0.735  -0.503   3.687  0.00  0.00    -0.219 N 
ATOM      2  C   UNL     1       1.275   0.290   4.636  0.00  0.00    +0.279 C 
ATOM      3  O   UNL     1       1.271   1.502   4.676  0.00  0.00    -0.270 OA
ATOM      4  C   UNL     1       1.888  -0.664   5.643  0.00  0.00    +0.304 C 
ATOM      5  N   UNL     1       1.593  -1.996   5.091  0.00  0.00    -0.192 NA
ATOM      6  C   UNL     1       0.935  -1.825   3.990  0.00  0.00    +0.288 C 
ENDROOT
BRANCH   1  12
ATOM      7  C   UNL     1      -0.019   1.526   0.010  0.00  0.00    +0.008 C 
ATOM      8  C   UNL     1       0.002  -0.004   0.002  0.00  0.00    -0.009 C 
ATOM      9  C   UNL     1      -1.433  -0.534   0.013  0.00  0.00    +0.003 C 
ATOM     10  C   UNL     1      -2.149  -0.040   1.272  0.00  0.00    +0.002 C 
ATOM     11  C   UNL     1      -1.409  -0.547   2.511  0.00  0.00    +0.023 C 
ATOM     12  C   UNL     1       0.026  -0.018   2.500  0.00  0.00    +0.089 C 
ATOM     13  C   UNL     1       0.742  -0.511   1.242  0.00  0.00    +0.010 C 
ATOM     14  C   UNL     1       2.178   0.019   1.231  0.00  0.00    +0.009 C 
ENDBRANCH   1  12
BRANCH   4  15
ATOM     15  C   UNL     1       3.399  -0.445   5.739  0.00  0.00    +0.440 C 
ATOM     16  F   UNL     1       3.655   0.870   6.145  0.00  0.00    -0.166 F 
ATOM     17  F   UNL     1       3.941  -1.335   6.673  0.00  0.00    -0.166 F 
ATOM     18  F   UNL     1       3.983  -0.669   4.488  0.00  0.00    -0.166 F 
ENDBRANCH   4  15
BRANCH   4  19
ATOM     19  N   UNL     1       1.259  -0.500   6.956  0.00  0.00    -0.277 N 
ATOM     20  C   UNL     1       1.312   0.691   7.585  0.00  0.00    +0.215 C 
ATOM     21  O   UNL     1       1.881   1.627   7.064  0.00  0.00    -0.276 OA
ATOM     22  H   UNL     1       0.804  -1.248   7.372  0.00  0.00    +0.152 HD
BRANCH  20  23
ATOM     23  C   UNL     1       0.665   0.860   8.935  0.00  0.00    +0.096 C 
BRANCH  23  24
ATOM     24  C   UNL     1       0.870   2.295   9.423  0.00  0.00    +0.013 C 
BRANCH  24  25
ATOM     25  C   UNL     1       0.212   2.466  10.794  0.00  0.00    -0.011 C 
ATOM     26  C   UNL     1      -1.302   2.297  10.659  0.00  0.00    +0.003 C 
ATOM     27  C   UNL     1      -1.959   2.468  12.030  0.00  0.00    +0.000 C 
ATOM     28  C   UNL     1      -1.649   3.864  12.573  0.00  0.00    +0.000 C 
ATOM     29  C   UNL     1      -0.135   4.033  12.709  0.00  0.00    +0.000 C 
ATOM     30  C   UNL     1       0.523   3.862  11.338  0.00  0.00    +0.003 C 
ENDBRANCH  24  25
ENDBRANCH  23  24
ENDBRANCH  20  23
ENDBRANCH   4  19
BRANCH   6  31
ATOM     31  O   UNL     1       0.495  -2.843   3.218  0.00  0.00    -0.481 OA
ATOM     32  H   UNL     1       0.713  -3.720   3.562  0.00  0.00    +0.295 HD
ENDBRANCH   6  31
TORSDOF 7
