REMARK  Name = ZINC02256112
REMARK  9 active torsions:
REMARK  status: ('A' for Active; 'I' for Inactive)
REMARK    1  A    between atoms: C_1  and  C_2
REMARK    2  A    between atoms: C_2  and  C_3
REMARK    3  A    between atoms: C_2  and  C_4
REMARK    4  A    between atoms: C_4  and  C_5
REMARK    5  A    between atoms: C_5  and  O_6
REMARK    6  A    between atoms: O_6  and  C_7
REMARK    7  A    between atoms: C_7  and  C_9
REMARK    8  A    between atoms: N_20  and  C_23
REMARK    9  A    between atoms: C_21  and  N_22
REMARK                            x       y       z     vdW  Elec       q    Type
REMARK                         _______ _______ _______ _____ _____    ______ ____
ROOT
ATOM      1  C   UNL     1      -1.247  -2.048   0.003  0.00  0.00    +0.126 A 
ATOM      2  C   UNL     1      -1.292  -2.922  -1.181  0.00  0.00    +0.125 A 
ATOM      3  C   UNL     1      -1.339  -4.289  -0.654  0.00  0.00    +0.167 A 
ATOM      4  N   UNL     1      -1.387  -5.303  -1.490  0.00  0.00    -0.225 NA
ATOM      5  C   UNL     1      -1.391  -5.080  -2.811  0.00  0.00    +0.092 A 
ATOM      6  C   UNL     1      -1.442  -6.160  -3.712  0.00  0.00    +0.030 A 
ATOM      7  C   UNL     1      -1.445  -5.923  -5.052  0.00  0.00    +0.002 A 
ATOM      8  C   UNL     1      -1.400  -4.623  -5.551  0.00  0.00    +0.002 A 
ATOM      9  C   UNL     1      -1.351  -3.554  -4.711  0.00  0.00    +0.030 A 
ATOM     10  C   UNL     1      -1.345  -3.758  -3.318  0.00  0.00    +0.090 A 
ATOM     11  N   UNL     1      -1.297  -2.713  -2.482  0.00  0.00    -0.241 NA
ATOM     12  N   UNL     1      -1.322  -4.191   0.724  0.00  0.00    -0.279 N 
ATOM     13  C   UNL     1      -1.262  -2.886   1.114  0.00  0.00    +0.119 A 
ENDROOT
BRANCH  12  14
ATOM     14  C   UNL     1      -1.355  -5.284   1.601  0.00  0.00    +0.069 A 
ATOM     15  C   UNL     1      -0.171  -5.872   2.024  0.00  0.00    +0.047 A 
ATOM     16  C   UNL     1      -0.207  -6.949   2.889  0.00  0.00    +0.043 A 
ATOM     17  C   UNL     1      -1.422  -7.442   3.333  0.00  0.00    +0.021 A 
ATOM     18  C   UNL     1      -2.603  -6.858   2.913  0.00  0.00    +0.023 A 
ATOM     19  C   UNL     1      -2.573  -5.776   2.053  0.00  0.00    +0.065 A 
ATOM     20 CL   UNL     1      -4.056  -5.039   1.532  0.00  0.00    -0.081 Cl
ATOM     21 CL   UNL     1       1.273  -7.686   3.419  0.00  0.00    -0.083 Cl
ENDBRANCH  12  14
BRANCH  13  22
ATOM     22  N   UNL     1      -1.226  -2.460   2.415  0.00  0.00    -0.343 N 
ATOM     23  H   UNL     1      -1.187  -1.512   2.614  0.00  0.00    +0.144 HD
ATOM     24  H   UNL     1      -1.240  -3.107   3.138  0.00  0.00    +0.144 HD
ENDBRANCH  13  22
BRANCH   1  25
ATOM     25  C   UNL     1      -1.192  -0.633   0.010  0.00  0.00    +0.345 C 
ATOM     26  O   UNL     1      -2.221   0.016   0.023  0.00  0.00    -0.245 OA
BRANCH  25  27
ATOM     27  O   UNL     1       0.002  -0.004   0.002  0.00  0.00    -0.461 OA
BRANCH  27  28
ATOM     28  C   UNL     1      -0.017   1.425   0.010  0.00  0.00    +0.233 C 
BRANCH  28  29
ATOM     29  C   UNL     1       1.418   1.954  -0.001  0.00  0.00    +0.044 C 
BRANCH  29  31
ATOM     30  C   UNL     1       0.793   3.979   1.323  0.00  0.00    +0.007 C 
ATOM     31  C   UNL     1       1.397   3.484   0.007  0.00  0.00    -0.014 C 
ATOM     32  C   UNL     1       2.826   4.014  -0.129  0.00  0.00    +0.007 C 
ENDBRANCH  29  31
ENDBRANCH  28  29
ENDBRANCH  27  28
ENDBRANCH  25  27
ENDBRANCH   1  25
TORSDOF 7
