REMARK  Name = ZINC08606553
REMARK  8 active torsions:
REMARK  status: ('A' for Active; 'I' for Inactive)
REMARK    1  A    between atoms: C_1  and  O_2
REMARK    2  A    between atoms: O_2  and  C_3
REMARK    3  A    between atoms: C_6  and  C_9
REMARK    4  A    between atoms: C_9  and  C_10
REMARK    5  A    between atoms: C_10  and  N_11
REMARK    6  A    between atoms: C_12  and  C_29
REMARK    7  A    between atoms: C_15  and  C_22
REMARK    8  A    between atoms: C_27  and  O_28
REMARK                            x       y       z     vdW  Elec       q    Type
REMARK                         _______ _______ _______ _____ _____    ______ ____
ROOT
ATOM      1  N   UNL     1      -6.739  -3.548  -1.396  0.00  0.00    -0.285 N 
ATOM      2  C   UNL     1      -6.936  -5.002  -1.390  0.00  0.00    +0.141 C 
ATOM      3  C   UNL     1      -8.424  -5.228  -1.382  0.00  0.00    +0.035 A 
ATOM      4  C   UNL     1      -9.450  -6.118  -1.373  0.00  0.00    +0.075 A 
ATOM      5  N   UNL     1     -10.603  -5.386  -1.370  0.00  0.00    -0.276 N 
ATOM      6  H   UNL     1     -11.498  -5.758  -1.363  0.00  0.00    +0.189 HD
ATOM      7  N   UNL     1     -10.325  -4.131  -1.375  0.00  0.00    -0.168 NA
ATOM      8  C   UNL     1      -9.020  -3.946  -1.383  0.00  0.00    +0.153 A 
ATOM      9  C   UNL     1      -7.939  -2.944  -1.386  0.00  0.00    +0.268 C 
ATOM     10  O   UNL     1      -8.110  -1.740  -1.382  0.00  0.00    -0.268 OA
ENDROOT
BRANCH   4  11
ATOM     11  C   UNL     1      -9.339  -7.593  -1.370  0.00  0.00    +0.042 A 
ATOM     12  C   UNL     1      -9.796  -8.332  -2.460  0.00  0.00    +0.013 A 
ATOM     13  C   UNL     1      -9.690  -9.708  -2.451  0.00  0.00    +0.001 A 
ATOM     14  C   UNL     1      -9.132 -10.358  -1.364  0.00  0.00    +0.004 A 
ATOM     15  C   UNL     1      -8.676  -9.635  -0.278  0.00  0.00    +0.046 A 
ATOM     16  C   UNL     1      -8.771  -8.253  -0.274  0.00  0.00    +0.126 A 
BRANCH  16  17
ATOM     17  O   UNL     1      -8.317  -7.541   0.790  0.00  0.00    -0.506 OA
ATOM     18  H   UNL     1      -8.982  -7.394   1.477  0.00  0.00    +0.292 HD
ENDBRANCH  16  17
ENDBRANCH   4  11
BRANCH   2  19
ATOM     19  C   UNL     1      -6.326  -5.612  -2.626  0.00  0.00    -0.022 A 
ATOM     20  C   UNL     1      -6.441  -4.968  -3.844  0.00  0.00    +0.006 A 
ATOM     21  C   UNL     1      -5.882  -5.527  -4.977  0.00  0.00    +0.000 A 
ATOM     22  C   UNL     1      -5.207  -6.731  -4.893  0.00  0.00    +0.000 A 
ATOM     23  C   UNL     1      -5.090  -7.374  -3.675  0.00  0.00    +0.000 A 
ATOM     24  C   UNL     1      -5.646  -6.813  -2.541  0.00  0.00    +0.006 A 
ENDBRANCH   2  19
BRANCH   1  25
ATOM     25  C   UNL     1      -5.443  -2.865  -1.405  0.00  0.00    +0.114 C 
BRANCH  25  26
ATOM     26  C   UNL     1      -4.981  -2.629   0.035  0.00  0.00    +0.054 C 
BRANCH  26  30
ATOM     27  C   UNL     1      -1.200  -0.637   0.010  0.00  0.00    +0.120 A 
ATOM     28  C   UNL     1      -2.375   0.101   0.019  0.00  0.00    +0.046 A 
ATOM     29  C   UNL     1      -3.596  -0.545   0.027  0.00  0.00    +0.007 A 
ATOM     30  C   UNL     1      -3.648  -1.927   0.026  0.00  0.00    -0.046 A 
ATOM     31  C   UNL     1      -2.479  -2.665   0.017  0.00  0.00    +0.007 A 
ATOM     32  C   UNL     1      -1.255  -2.024   0.003  0.00  0.00    +0.046 A 
BRANCH  27  34
ATOM     33  C   UNL     1      -0.017   1.425   0.010  0.00  0.00    +0.277 C 
ATOM     34  O   UNL     1       0.002  -0.004   0.002  0.00  0.00    -0.495 OA
ENDBRANCH  27  34
ENDBRANCH  26  30
ENDBRANCH  25  26
ENDBRANCH   1  25
TORSDOF 7
