REMARK  Name = ZINC51331127
REMARK  5 active torsions:
REMARK  status: ('A' for Active; 'I' for Inactive)
REMARK    1  A    between atoms: C_1  and  C_2
REMARK    2  A    between atoms: C_5  and  C_8
REMARK    3  A    between atoms: N_12  and  N_13
REMARK    4  A    between atoms: C_14  and  C_15
REMARK    5  A    between atoms: C_20  and  O_21
REMARK                            x       y       z     vdW  Elec       q    Type
REMARK                         _______ _______ _______ _____ _____    ______ ____
ROOT
ATOM      1  C   UNL     1      -0.494  -5.306   0.140  0.00  0.00    +0.184 A 
ATOM      2  N   UNL     1      -0.555  -6.342  -0.650  0.00  0.00    -0.152 NA
ATOM      3  N   UNL     1      -0.311  -7.489   0.117  0.00  0.00    -0.253 N 
ATOM      4  C   UNL     1      -0.105  -7.090   1.389  0.00  0.00    +0.197 A 
ATOM      5  N   UNL     1      -0.208  -5.747   1.419  0.00  0.00    -0.188 N 
ATOM      6  S   UNL     1       0.235  -8.107   2.724  0.00  0.00    -0.010 S 
ATOM      7  H   UNL     1      -0.295  -8.403  -0.207  0.00  0.00    +0.191 HD
ENDROOT
BRANCH   1  12
ATOM      8  C   UNL     1      -1.261   0.176  -1.434  0.00  0.00    +0.044 C 
ATOM      9  C   UNL     1      -1.060  -1.259  -1.022  0.00  0.00    -0.050 A 
ATOM     10  C   UNL     1      -1.158  -2.267  -1.965  0.00  0.00    +0.004 A 
ATOM     11  C   UNL     1      -0.975  -3.583  -1.594  0.00  0.00    +0.012 A 
ATOM     12  C   UNL     1      -0.690  -3.897  -0.265  0.00  0.00    +0.021 A 
ATOM     13  C   UNL     1      -0.593  -2.876   0.681  0.00  0.00    +0.012 A 
ATOM     14  C   UNL     1      -0.773  -1.563   0.297  0.00  0.00    +0.004 A 
ENDBRANCH   1  12
BRANCH   5  15
ATOM     15  N   UNL     1      -0.056  -4.936   2.551  0.00  0.00    -0.170 NA
ATOM     16  C   UNL     1       1.060  -4.949   3.214  0.00  0.00    +0.145 C 
BRANCH  16  17
ATOM     17  C   UNL     1       2.225  -5.675   2.680  0.00  0.00    +0.037 A 
ATOM     18  C   UNL     1       2.327  -5.929   1.310  0.00  0.00    +0.028 A 
ATOM     19  C   UNL     1       3.421  -6.609   0.816  0.00  0.00    +0.019 A 
ATOM     20  C   UNL     1       4.420  -7.042   1.673  0.00  0.00    +0.019 A 
ATOM     21  C   UNL     1       4.330  -6.797   3.031  0.00  0.00    +0.047 A 
ATOM     22  C   UNL     1       3.241  -6.110   3.542  0.00  0.00    +0.126 A 
ATOM     23 BR   UNL     1       3.558  -6.954  -1.038  0.00  0.00    -0.050 Br
BRANCH  22  24
ATOM     24  O   UNL     1       3.156  -5.863   4.875  0.00  0.00    -0.506 OA
ATOM     25  H   UNL     1       2.641  -6.519   5.364  0.00  0.00    +0.292 HD
ENDBRANCH  22  24
ENDBRANCH  16  17
ENDBRANCH   5  15
TORSDOF 4
