REMARK  Name = ZINC38671183
REMARK  7 active torsions:
REMARK  status: ('A' for Active; 'I' for Inactive)
REMARK    1  A    between atoms: C_1  and  N_2
REMARK    2  A    between atoms: C_10  and  C_12
REMARK    3  A    between atoms: C_12  and  C_14
REMARK    4  A    between atoms: C_12  and  N_27
REMARK    5  A    between atoms: C_14  and  N_15
REMARK    6  A    between atoms: N_15  and  S_16
REMARK    7  A    between atoms: S_16  and  C_19
REMARK                            x       y       z     vdW  Elec       q    Type
REMARK                         _______ _______ _______ _____ _____    ______ ____
ROOT
ATOM      1  C   UNL     1       5.007  -2.576  -0.339  0.00  0.00    -0.022 C 
ENDROOT
BRANCH   1  11
ATOM      2  C   UNL     1       0.157   1.619   0.869  0.00  0.00    +0.129 C 
ATOM      3  N   UNL     1       0.144   0.170   0.653  0.00  0.00    -0.333 N 
ATOM      4  C   UNL     1      -1.120  -0.578   0.685  0.00  0.00    +0.105 C 
ATOM      5  C   UNL     1      -0.891  -1.849   1.514  0.00  0.00    +0.024 C 
ATOM      6  C   UNL     1       0.151  -2.718   0.809  0.00  0.00    +0.038 C 
ATOM      7  C   UNL     1       1.378  -1.908   0.483  0.00  0.00    -0.026 A 
ATOM      8  C   UNL     1       1.335  -0.523   0.408  0.00  0.00    +0.033 A 
ATOM      9  C   UNL     1       2.483   0.195   0.095  0.00  0.00    +0.023 A 
ATOM     10  C   UNL     1       3.669  -0.470  -0.147  0.00  0.00    +0.004 A 
ATOM     11  C   UNL     1       3.712  -1.851  -0.077  0.00  0.00    -0.059 A 
ATOM     12  C   UNL     1       2.572  -2.568   0.245  0.00  0.00    +0.007 A 
ENDBRANCH   1  11
BRANCH   1  13
ATOM     13  N   UNL     1       5.709  -1.935  -1.459  0.00  0.00    +0.385 N 
ATOM     14  C   UNL     1       4.833  -1.911  -2.636  0.00  0.00    -0.078 C 
ATOM     15  C   UNL     1       5.529  -1.172  -3.780  0.00  0.00    -0.019 C 
ATOM     16  C   UNL     1       6.834  -1.895  -4.128  0.00  0.00    -0.004 C 
ATOM     17  C   UNL     1       7.709  -1.980  -2.874  0.00  0.00    -0.019 C 
ATOM     18  C   UNL     1       6.932  -2.689  -1.763  0.00  0.00    -0.078 C 
ATOM     19  H   UNL     1       5.953  -0.990  -1.204  0.00  0.00    -0.081 HD
ENDBRANCH   1  13
BRANCH   1  20
ATOM     20  C   UNL     1       5.885  -2.522   0.912  0.00  0.00    +0.095 C 
BRANCH  20  21
ATOM     21  N   UNL     1       5.226  -3.246   2.003  0.00  0.00    -0.191 NA
ATOM     22  H   UNL     1       4.287  -3.479   1.932  0.00  0.00    +0.148 HD
BRANCH  21  23
ATOM     23  S   UNL     1       6.085  -3.667   3.355  0.00  0.00    +0.060 S 
ATOM     24  O   UNL     1       5.174  -4.324   4.226  0.00  0.00    -0.153 OA
ATOM     25  O   UNL     1       7.282  -4.282   2.900  0.00  0.00    -0.153 OA
BRANCH  23  26
ATOM     26  C   UNL     1       6.560  -2.172   4.157  0.00  0.00    +0.125 A 
ATOM     27  C   UNL     1       6.064  -1.873   5.412  0.00  0.00    +0.050 A 
ATOM     28  C   UNL     1       6.437  -0.699   6.042  0.00  0.00    +0.043 A 
ATOM     29  C   UNL     1       7.306   0.176   5.415  0.00  0.00    +0.021 A 
ATOM     30  C   UNL     1       7.801  -0.122   4.159  0.00  0.00    +0.023 A 
ATOM     31  C   UNL     1       7.432  -1.299   3.532  0.00  0.00    +0.067 A 
ATOM     32 CL   UNL     1       8.060  -1.677   1.958  0.00  0.00    -0.082 Cl
ATOM     33 CL   UNL     1       5.815  -0.325   7.618  0.00  0.00    -0.083 Cl
ENDBRANCH  23  26
ENDBRANCH  21  23
ENDBRANCH  20  21
ENDBRANCH   1  20
TORSDOF 6
