REMARK  Name = ZINC20737367
REMARK  8 active torsions:
REMARK  status: ('A' for Active; 'I' for Inactive)
REMARK    1  A    between atoms: C_1  and  C_2
REMARK    2  A    between atoms: C_7  and  C_34
REMARK    3  A    between atoms: N_9  and  C_10
REMARK    4  A    between atoms: C_10  and  C_11
REMARK    5  A    between atoms: C_11  and  C_12
REMARK    6  A    between atoms: C_12  and  N_13
REMARK    7  A    between atoms: C_14  and  C_16
REMARK    8  A    between atoms: C_26  and  C_27
REMARK                            x       y       z     vdW  Elec       q    Type
REMARK                         _______ _______ _______ _____ _____    ______ ____
ROOT
ATOM      1  C   UNL     1       3.264   4.150  -0.064  0.00  0.00    +0.039 A 
ATOM      2  C   UNL     1       4.160   3.122  -0.370  0.00  0.00    +0.014 A 
ATOM      3  C   UNL     1       5.512   3.379  -0.387  0.00  0.00    +0.017 A 
ATOM      4  C   UNL     1       5.984   4.654  -0.101  0.00  0.00    +0.034 A 
ATOM      5  C   UNL     1       5.101   5.695   0.206  0.00  0.00    +0.048 A 
ATOM      6  C   UNL     1       3.737   5.432   0.217  0.00  0.00    +0.037 A 
ATOM      7  N   UNL     1       5.527   6.986   0.495  0.00  0.00    -0.280 N 
ATOM      8  C   UNL     1       6.705   7.527   0.172  0.00  0.00    +0.255 C 
ATOM      9  O   UNL     1       6.914   8.702   0.409  0.00  0.00    -0.269 OA
ATOM     10  C   UNL     1       7.757   6.710  -0.473  0.00  0.00    +0.075 C 
ATOM     11  C   UNL     1       8.691   7.258  -1.287  0.00  0.00    +0.028 C 
ATOM     12  S   UNL     1       7.723   4.973  -0.120  0.00  0.00    -0.082 S 
ATOM     13  H   UNL     1       4.867   7.673   1.043  0.00  0.00    +0.155 HD
ENDROOT
BRANCH  11  14
ATOM     14  C   UNL     1       9.806   6.438  -1.783  0.00  0.00    -0.024 A 
ATOM     15  C   UNL     1      10.404   5.486  -0.951  0.00  0.00    +0.008 A 
ATOM     16  C   UNL     1      11.445   4.716  -1.425  0.00  0.00    +0.001 A 
ATOM     17  C   UNL     1      11.906   4.891  -2.719  0.00  0.00    +0.000 A 
ATOM     18  C   UNL     1      11.324   5.835  -3.547  0.00  0.00    +0.001 A 
ATOM     19  C   UNL     1      10.278   6.609  -3.089  0.00  0.00    +0.008 A 
ENDBRANCH  11  14
BRANCH   1  21
ATOM     20  N   UNL     1       1.354   2.644  -0.321  0.00  0.00    -0.311 N 
ATOM     21  C   UNL     1       1.813   3.881  -0.044  0.00  0.00    +0.244 C 
ATOM     22  O   UNL     1       1.032   4.774   0.222  0.00  0.00    -0.270 OA
ATOM     23  H   UNL     1       2.060   1.836  -0.561  0.00  0.00    +0.149 HD
BRANCH  20  24
ATOM     24  C   UNL     1      -0.086   2.376  -0.301  0.00  0.00    +0.102 C 
BRANCH  24  25
ATOM     25  C   UNL     1      -0.337   0.907  -0.647  0.00  0.00    +0.000 C 
BRANCH  25  26
ATOM     26  C   UNL     1      -1.841   0.628  -0.627  0.00  0.00    -0.077 C 
BRANCH  26  33
ATOM     27  C   UNL     1      -2.703  -0.294  -3.276  0.00  0.00    -0.013 C 
ATOM     28  C   UNL     1      -1.743  -1.058  -2.362  0.00  0.00    -0.071 C 
ATOM     29  C   UNL     1      -1.866  -2.559  -2.632  0.00  0.00    -0.016 C 
ATOM     30  C   UNL     1      -3.299  -3.010  -2.335  0.00  0.00    -0.003 C 
ATOM     31  C   UNL     1      -3.642  -2.669  -0.883  0.00  0.00    -0.016 C 
ATOM     32  C   UNL     1      -3.468  -1.164  -0.663  0.00  0.00    -0.071 C 
ATOM     33  N   UNL     1      -2.081  -0.783  -0.959  0.00  0.00    +0.383 N 
ATOM     34  C   UNL     1      -3.791  -0.821   0.793  0.00  0.00    -0.013 C 
ATOM     35  H   UNL     1      -1.422  -1.398  -0.329  0.00  0.00    -0.081 HD
ENDBRANCH  26  33
ENDBRANCH  25  26
ENDBRANCH  24  25
ENDBRANCH  20  24
ENDBRANCH   1  21
TORSDOF 6
