REMARK  Name = ZINC06193823
REMARK  8 active torsions:
REMARK  status: ('A' for Active; 'I' for Inactive)
REMARK    1  A    between atoms: C_1  and  C_2
REMARK    2  A    between atoms: C_4  and  C_40
REMARK    3  A    between atoms: C_7  and  C_14
REMARK    4  A    between atoms: C_14  and  C_16
REMARK    5  A    between atoms: C_14  and  N_70
REMARK    6  A    between atoms: N_20  and  C_21
REMARK    7  A    between atoms: C_21  and  C_22
REMARK    8  A    between atoms: N_30  and  C_33
REMARK                            x       y       z     vdW  Elec       q    Type
REMARK                         _______ _______ _______ _____ _____    ______ ____
ROOT
ATOM      1  C   UNL     1      -1.294  -0.772   0.010  0.00  0.00    +0.039 C 
ENDROOT
BRANCH   1   8
ATOM      2  C   UNL     1       5.016   4.106  -0.021  0.00  0.00    +0.044 C 
ATOM      3  C   UNL     1       3.696   3.379  -0.013  0.00  0.00    -0.048 A 
ATOM      4  C   UNL     1       2.513   4.105   0.002  0.00  0.00    +0.007 A 
ATOM      5  C   UNL     1       1.305   3.467   0.009  0.00  0.00    -0.041 A 
ATOM      6  C   UNL     1       1.260   2.068   0.001  0.00  0.00    +0.002 A 
ATOM      7  C   UNL     1      -0.016   1.352   0.009  0.00  0.00    +0.018 A 
ATOM      8  C   UNL     1       0.002  -0.004   0.002  0.00  0.00    +0.011 A 
ATOM      9  C   UNL     1       1.231  -0.698  -0.013  0.00  0.00    +0.251 A 
ATOM     10  O   UNL     1       1.225  -1.917  -0.019  0.00  0.00    -0.268 OA
ATOM     11  N   UNL     1       2.408  -0.049  -0.021  0.00  0.00    -0.322 N 
ATOM     12  H   UNL     1       3.234  -0.557  -0.031  0.00  0.00    +0.169 HD
ATOM     13  C   UNL     1       2.458   1.329  -0.014  0.00  0.00    +0.050 A 
ATOM     14  C   UNL     1       3.676   2.002  -0.021  0.00  0.00    +0.029 A 
ATOM     15  C   UNL     1       0.027   4.265   0.025  0.00  0.00    +0.044 C 
ENDBRANCH   1   8
BRANCH   1  21
ATOM     16  C   UNL     1      -1.122  -0.982  -2.396  0.00  0.00    -0.058 C 
ATOM     17  C   UNL     1      -1.077  -1.990  -3.548  0.00  0.00    +0.086 C 
ATOM     18  N   UNL     1      -2.330  -2.758  -3.572  0.00  0.00    -0.331 N 
ATOM     19  C   UNL     1      -2.529  -3.475  -2.305  0.00  0.00    +0.086 C 
ATOM     20  C   UNL     1      -2.574  -2.468  -1.153  0.00  0.00    -0.058 C 
ATOM     21  N   UNL     1      -1.300  -1.718  -1.127  0.00  0.00    +0.391 N 
ATOM     22  H   UNL     1      -0.524  -2.381  -1.013  0.00  0.00    -0.080 HD
BRANCH  18  23
ATOM     23  C   UNL     1      -2.355  -3.640  -4.657  0.00  0.00    +0.065 A 
ATOM     24  C   UNL     1      -1.432  -4.674  -4.735  0.00  0.00    +0.026 A 
ATOM     25  C   UNL     1      -1.459  -5.544  -5.808  0.00  0.00    +0.002 A 
ATOM     26  C   UNL     1      -2.406  -5.387  -6.803  0.00  0.00    +0.003 A 
ATOM     27  C   UNL     1      -3.329  -4.360  -6.730  0.00  0.00    +0.040 A 
ATOM     28  C   UNL     1      -3.310  -3.488  -5.656  0.00  0.00    +0.144 A 
ATOM     29  F   UNL     1      -4.215  -2.488  -5.582  0.00  0.00    -0.204 F 
ENDBRANCH  18  23
ENDBRANCH   1  21
BRANCH   1  30
ATOM     30  C   UNL     1      -1.408  -1.552   1.295  0.00  0.00    +0.143 A 
ATOM     31  N   UNL     1      -0.760  -2.649   1.605  0.00  0.00    -0.115 NA
ATOM     32  N   UNL     1      -1.129  -3.009   2.786  0.00  0.00    -0.023 NA
ATOM     33  N   UNL     1      -1.995  -2.170   3.237  0.00  0.00    -0.044 NA
ATOM     34  N   UNL     1      -2.190  -1.254   2.349  0.00  0.00    -0.228 N 
BRANCH  34  35
ATOM     35  C   UNL     1      -3.094  -0.108   2.465  0.00  0.00    +0.178 C 
BRANCH  35  36
ATOM     36  C   UNL     1      -4.477  -0.493   1.936  0.00  0.00    +0.140 C 
ATOM     37  C   UNL     1      -5.465   0.690   2.100  0.00  0.00    +0.035 C 
ATOM     38  C   UNL     1      -6.500   0.365   0.989  0.00  0.00    +0.031 C 
ATOM     39  C   UNL     1      -5.617  -0.271  -0.107  0.00  0.00    +0.160 C 
ATOM     40  O   UNL     1      -4.418  -0.740   0.522  0.00  0.00    -0.375 OA
ENDBRANCH  35  36
ENDBRANCH  34  35
ENDBRANCH   1  30
TORSDOF 6
