REMARK  Name = ZINC24215397
REMARK  9 active torsions:
REMARK  status: ('A' for Active; 'I' for Inactive)
REMARK    1  A    between atoms: C_1  and  C_2
REMARK    2  A    between atoms: C_5  and  C_8
REMARK    3  A    between atoms: C_11  and  S_14
REMARK    4  A    between atoms: N_12  and  N_13
REMARK    5  A    between atoms: S_14  and  C_15
REMARK    6  A    between atoms: C_15  and  C_16
REMARK    7  A    between atoms: N_18  and  C_19
REMARK    8  A    between atoms: C_19  and  C_21
REMARK    9  A    between atoms: C_19  and  C_22
REMARK                            x       y       z     vdW  Elec       q    Type
REMARK                         _______ _______ _______ _____ _____    ______ ____
ROOT
ATOM      1  C   UNL     1       7.353   3.191  -2.997  0.00  0.00    +0.173 C 
ENDROOT
BRANCH   1   2
ATOM      2  C   UNL     1       6.170   3.761  -2.256  0.00  0.00    +0.224 C 
ATOM      3  O   UNL     1       6.149   4.937  -1.961  0.00  0.00    -0.275 OA
ATOM      4  N   UNL     1       5.137   2.963  -1.921  0.00  0.00    -0.308 N 
ATOM      5  H   UNL     1       5.157   1.896  -2.188  0.00  0.00    +0.149 HD
BRANCH   4   6
ATOM      6  C   UNL     1       3.988   3.516  -1.201  0.00  0.00    +0.100 C 
ATOM      7  C   UNL     1       4.280   3.521   0.301  0.00  0.00    +0.033 C 
BRANCH   6   8
ATOM      8  C   UNL     1       2.770   2.671  -1.473  0.00  0.00    -0.027 A 
ATOM      9  C   UNL     1       2.895   1.284  -1.524  0.00  0.00    +0.006 A 
ATOM     10  C   UNL     1       1.815   0.492  -1.767  0.00  0.00    +0.009 A 
ATOM     11  C   UNL     1       0.554   1.078  -1.970  0.00  0.00    -0.018 A 
ATOM     12  C   UNL     1      -0.584   0.293  -2.225  0.00  0.00    +0.008 A 
ATOM     13  C   UNL     1      -1.788   0.896  -2.422  0.00  0.00    +0.001 A 
ATOM     14  C   UNL     1      -1.913   2.283  -2.365  0.00  0.00    +0.001 A 
ATOM     15  C   UNL     1      -0.834   3.075  -2.122  0.00  0.00    +0.008 A 
ATOM     16  C   UNL     1       0.427   2.489  -1.919  0.00  0.00    -0.018 A 
ATOM     17  C   UNL     1       1.565   3.274  -1.665  0.00  0.00    +0.014 A 
ENDBRANCH   6   8
ENDBRANCH   4   6
ENDBRANCH   1   2
BRANCH   1  18
ATOM     18  S   UNL     1       8.564   4.502  -3.299  0.00  0.00    -0.075 S 
BRANCH  18  22
ATOM     19  C   UNL     1      11.616   2.998  -5.219  0.00  0.00    +0.182 A 
ATOM     20  N   UNL     1      10.830   1.958  -5.068  0.00  0.00    -0.127 NA
ATOM     21  N   UNL     1       9.765   2.301  -4.436  0.00  0.00    -0.121 NA
ATOM     22  C   UNL     1       9.802   3.584  -4.152  0.00  0.00    +0.209 A 
ATOM     23  N   UNL     1      10.982   4.071  -4.637  0.00  0.00    -0.224 N 
BRANCH  19  28
ATOM     24  C   UNL     1      16.748   3.056  -7.821  0.00  0.00    +0.044 C 
ATOM     25  C   UNL     1      15.404   3.041  -7.140  0.00  0.00    -0.050 A 
ATOM     26  C   UNL     1      15.045   4.081  -6.301  0.00  0.00    +0.004 A 
ATOM     27  C   UNL     1      13.816   4.073  -5.674  0.00  0.00    +0.012 A 
ATOM     28  C   UNL     1      12.935   3.013  -5.887  0.00  0.00    +0.021 A 
ATOM     29  C   UNL     1      13.305   1.964  -6.730  0.00  0.00    +0.012 A 
ATOM     30  C   UNL     1      14.535   1.986  -7.355  0.00  0.00    +0.004 A 
ENDBRANCH  19  28
BRANCH  23  31
ATOM     31  N   UNL     1      11.438   5.357  -4.560  0.00  0.00    -0.295 N 
ATOM     32  H   UNL     1      10.829   6.127  -4.064  0.00  0.00    +0.163 HD
ATOM     33  H   UNL     1      12.413   5.621  -4.994  0.00  0.00    +0.163 HD
ENDBRANCH  23  31
ENDBRANCH  18  22
ENDBRANCH   1  18
TORSDOF 7
