REMARK  Name = ZINC12401973
REMARK  10 active torsions:
REMARK  status: ('A' for Active; 'I' for Inactive)
REMARK    1  A    between atoms: C_1  and  C_2
REMARK    2  A    between atoms: C_2  and  C_4
REMARK    3  A    between atoms: C_2  and  O_22
REMARK    4  A    between atoms: C_7  and  S_10
REMARK    5  A    between atoms: N_8  and  N_9
REMARK    6  A    between atoms: S_10  and  C_11
REMARK    7  A    between atoms: C_11  and  C_12
REMARK    8  A    between atoms: N_18  and  C_19
REMARK    9  A    between atoms: N_18  and  C_20
REMARK   10  A    between atoms: O_22  and  C_23
REMARK                            x       y       z     vdW  Elec       q    Type
REMARK                         _______ _______ _______ _____ _____    ______ ____
ROOT
ATOM      1  C   UNL     1       7.243   4.596  -1.684  0.00  0.00    +0.191 A 
ATOM      2  N   UNL     1       7.156   4.346  -0.408  0.00  0.00    -0.128 NA
ATOM      3  N   UNL     1       6.033   3.779  -0.145  0.00  0.00    -0.121 NA
ATOM      4  C   UNL     1       5.340   3.628  -1.250  0.00  0.00    +0.209 A 
ATOM      5  N   UNL     1       6.090   4.148  -2.266  0.00  0.00    -0.225 N 
ENDROOT
BRANCH   5   6
ATOM      6  N   UNL     1       5.756   4.208  -3.589  0.00  0.00    -0.295 N 
ATOM      7  H   UNL     1       5.270   5.066  -3.801  0.00  0.00    +0.163 HD
ATOM      8  H   UNL     1       6.572   4.101  -4.173  0.00  0.00    +0.163 HD
ENDBRANCH   5   6
BRANCH   1  10
ATOM      9  C   UNL     1       9.559   4.265  -2.505  0.00  0.00    +0.060 C 
ATOM     10  C   UNL     1       8.400   5.257  -2.388  0.00  0.00    +0.239 C 
BRANCH  10  11
ATOM     11  O   UNL     1       8.824   6.398  -1.639  0.00  0.00    -0.480 OA
BRANCH  11  12
ATOM     12  C   UNL     1       9.459   7.385  -2.326  0.00  0.00    +0.140 A 
ATOM     13  C   UNL     1       9.771   7.209  -3.665  0.00  0.00    +0.048 A 
ATOM     14  C   UNL     1      10.413   8.215  -4.362  0.00  0.00    +0.023 A 
ATOM     15  C   UNL     1      10.752   9.394  -3.722  0.00  0.00    +0.043 A 
ATOM     16  C   UNL     1      10.446   9.570  -2.385  0.00  0.00    +0.043 A 
ATOM     17  C   UNL     1       9.800   8.568  -1.685  0.00  0.00    +0.084 A 
ATOM     18 CL   UNL     1       9.417   8.789  -0.006  0.00  0.00    -0.080 Cl
ATOM     19 CL   UNL     1      11.564  10.653  -4.599  0.00  0.00    -0.083 Cl
ENDBRANCH  11  12
ENDBRANCH  10  11
ENDBRANCH   1  10
BRANCH   4  20
ATOM     20  S   UNL     1       3.743   2.899  -1.393  0.00  0.00    -0.077 S 
BRANCH  20  21
ATOM     21  C   UNL     1       3.436   2.470   0.338  0.00  0.00    +0.153 C 
BRANCH  21  22
ATOM     22  C   UNL     1       2.086   1.813   0.462  0.00  0.00    +0.146 A 
ATOM     23  N   UNL     1       1.012   2.552   0.685  0.00  0.00    -0.199 NA
ATOM     24  C   UNL     1      -0.183   1.976   0.794  0.00  0.00    +0.217 A 
ATOM     25  N   UNL     1      -0.295   0.657   0.680  0.00  0.00    -0.181 NA
ATOM     26  C   UNL     1       0.786  -0.082   0.456  0.00  0.00    +0.222 A 
ATOM     27  N   UNL     1       1.977   0.501   0.347  0.00  0.00    -0.198 NA
ATOM     28  N   UNL     1       0.674  -1.452   0.336  0.00  0.00    -0.306 N 
ATOM     29  C   UNL     1      -0.638  -2.093   0.456  0.00  0.00    +0.132 C 
ATOM     30  C   UNL     1       1.867  -2.266   0.089  0.00  0.00    +0.132 C 
ATOM     31  N   UNL     1      -1.304   2.748   1.021  0.00  0.00    -0.327 N 
ATOM     32  H   UNL     1      -2.175   2.328   1.097  0.00  0.00    +0.145 HD
ATOM     33  H   UNL     1      -1.221   3.710   1.105  0.00  0.00    +0.145 HD
ENDBRANCH  21  22
ENDBRANCH  20  21
ENDBRANCH   4  20
TORSDOF 7
