REMARK  Name = ZINC64590703
REMARK  6 active torsions:
REMARK  status: ('A' for Active; 'I' for Inactive)
REMARK    1  A    between atoms: C_3  and  C_6
REMARK    2  A    between atoms: C_6  and  N_7
REMARK    3  A    between atoms: C_19  and  S_20
REMARK    4  A    between atoms: S_20  and  C_21
REMARK    5  A    between atoms: C_21  and  C_22
REMARK    6  A    between atoms: N_24  and  C_25
REMARK                            x       y       z     vdW  Elec       q    Type
REMARK                         _______ _______ _______ _____ _____    ______ ____
ROOT
ATOM      1  N   UNL     1       4.040   0.610   1.372  0.00  0.00    -0.269 N 
ATOM      2  C   UNL     1       4.294   1.770   2.016  0.00  0.00    +0.270 A 
ATOM      3  O   UNL     1       4.099   2.836   1.459  0.00  0.00    -0.266 OA
ATOM      4  C   UNL     1       4.782   1.738   3.329  0.00  0.00    +0.101 A 
ATOM      5  C   UNL     1       5.017   0.538   3.999  0.00  0.00    +0.071 A 
ATOM      6  C   UNL     1       5.500   0.704   5.295  0.00  0.00    +0.035 A 
ATOM      7  C   UNL     1       5.696   1.949   5.781  0.00  0.00    +0.048 A 
ATOM      8  S   UNL     1       5.240   2.966   4.522  0.00  0.00    -0.090 S 
ATOM      9  N   UNL     1       4.740  -0.646   3.292  0.00  0.00    -0.255 N 
ATOM     10  C   UNL     1       4.259  -0.600   2.015  0.00  0.00    +0.241 A 
ATOM     11  N   UNL     1       4.086  -1.837   1.606  0.00  0.00    -0.109 NA
ATOM     12  N   UNL     1       4.459  -2.695   2.649  0.00  0.00    -0.120 NA
ATOM     13  C   UNL     1       4.861  -1.958   3.657  0.00  0.00    +0.198 A 
ENDROOT
BRANCH   1  14
ATOM     14  C   UNL     1       3.529   0.629  -0.001  0.00  0.00    +0.202 C 
BRANCH  14  17
ATOM     15  C   UNL     1      -0.088   1.331   0.064  0.00  0.00    +0.041 A 
ATOM     16  C   UNL     1       1.258   1.764   0.045  0.00  0.00    +0.046 A 
ATOM     17  C   UNL     1       2.023   0.658   0.024  0.00  0.00    +0.125 A 
ATOM     18  O   UNL     1       1.216  -0.416   0.030  0.00  0.00    -0.466 OA
ATOM     19  C   UNL     1      -0.065  -0.014   0.053  0.00  0.00    +0.195 A 
ENDBRANCH  14  17
ENDBRANCH   1  14
BRANCH  13  20
ATOM     20  S   UNL     1       5.432  -2.553   5.213  0.00  0.00    -0.076 S 
BRANCH  20  21
ATOM     21  C   UNL     1       5.350  -4.358   5.050  0.00  0.00    +0.173 C 
BRANCH  21  22
ATOM     22  C   UNL     1       5.819  -5.000   6.331  0.00  0.00    +0.228 C 
ATOM     23  O   UNL     1       6.173  -4.308   7.262  0.00  0.00    -0.275 OA
ATOM     24  N   UNL     1       5.844  -6.343   6.441  0.00  0.00    -0.284 N 
ATOM     25  H   UNL     1       5.500  -6.895   5.722  0.00  0.00    +0.155 HD
BRANCH  24  26
ATOM     26  C   UNL     1       6.367  -6.941   7.595  0.00  0.00    +0.052 A 
ATOM     27  C   UNL     1       6.198  -6.332   8.831  0.00  0.00    +0.027 A 
ATOM     28  C   UNL     1       6.714  -6.923   9.968  0.00  0.00    +0.040 A 
ATOM     29  C   UNL     1       7.400  -8.122   9.875  0.00  0.00    +0.125 A 
ATOM     30  C   UNL     1       7.571  -8.732   8.644  0.00  0.00    +0.060 A 
ATOM     31  C   UNL     1       7.051  -8.147   7.505  0.00  0.00    +0.065 A 
ATOM     32 CL   UNL     1       7.258  -8.914   5.961  0.00  0.00    -0.082 Cl
ATOM     33  F   UNL     1       7.904  -8.699  10.988  0.00  0.00    -0.205 F 
ENDBRANCH  24  26
ENDBRANCH  21  22
ENDBRANCH  20  21
ENDBRANCH  13  20
TORSDOF 6
