REMARK  Name = ZINC39217211
REMARK  3 active torsions:
REMARK  status: ('A' for Active; 'I' for Inactive)
REMARK    1  A    between atoms: C_1  and  C_2
REMARK    2  A    between atoms: C_5  and  C_17
REMARK    3  A    between atoms: N_9  and  C_11
REMARK                            x       y       z     vdW  Elec       q    Type
REMARK                         _______ _______ _______ _____ _____    ______ ____
ROOT
ATOM      1  C   UNL     1      -0.018   1.503   0.010  0.00  0.00    +0.062 C 
ATOM      2  C   UNL     1       0.002  -0.004   0.002  0.00  0.00    +0.025 C 
ATOM      3  C   UNL     1      -1.091  -0.771   0.003  0.00  0.00    +0.004 C 
ATOM      4  C   UNL     1      -2.533  -0.807   0.249  0.00  0.00    +0.024 C 
ATOM      5  C   UNL     1      -3.042  -1.880   0.895  0.00  0.00    +0.052 C 
ATOM      6  S   UNL     1      -1.631  -2.959   1.147  0.00  0.00    -0.095 S 
ATOM      7  C   UNL     1      -0.576  -2.213  -0.161  0.00  0.00    +0.187 C 
ATOM      8  N   UNL     1       0.826  -2.120   0.221  0.00  0.00    -0.236 N 
ATOM      9  N   UNL     1       1.158  -0.769  -0.014  0.00  0.00    -0.267 N 
ATOM     10  H   UNL     1       2.054  -0.429  -0.161  0.00  0.00    +0.170 HD
ENDROOT
BRANCH   8  11
ATOM     11  C   UNL     1       1.652  -3.137   0.705  0.00  0.00    +0.049 A 
ATOM     12  C   UNL     1       1.153  -4.423   0.865  0.00  0.00    +0.025 A 
ATOM     13  C   UNL     1       1.973  -5.426   1.343  0.00  0.00    +0.002 A 
ATOM     14  C   UNL     1       3.290  -5.151   1.663  0.00  0.00    +0.000 A 
ATOM     15  C   UNL     1       3.790  -3.872   1.505  0.00  0.00    +0.002 A 
ATOM     16  C   UNL     1       2.977  -2.865   1.022  0.00  0.00    +0.025 A 
ENDBRANCH   8  11
BRANCH   5  17
ATOM     17  C   UNL     1      -4.471  -2.116   1.311  0.00  0.00    +0.349 C 
ATOM     18  N   UNL     1      -4.553  -2.356   2.760  0.00  0.00    -0.144 NA
ATOM     19  N   UNL     1      -5.013  -3.489   2.930  0.00  0.00    -0.074 NA
ATOM     20  C   UNL     1      -5.282  -4.121   1.780  0.00  0.00    +0.272 C 
ATOM     21  S   UNL     1      -5.927  -5.702   1.660  0.00  0.00    +0.009 S 
ATOM     22  O   UNL     1      -4.973  -3.329   0.725  0.00  0.00    -0.440 OA
ENDBRANCH   5  17
TORSDOF 2
