REMARK  Name = ZINC20749160
REMARK  5 active torsions:
REMARK  status: ('A' for Active; 'I' for Inactive)
REMARK    1  A    between atoms: C_1  and  O_2
REMARK    2  A    between atoms: O_2  and  C_3
REMARK    3  A    between atoms: C_8  and  C_9
REMARK    4  A    between atoms: C_20  and  N_26
REMARK    5  A    between atoms: C_22  and  O_25
REMARK                            x       y       z     vdW  Elec       q    Type
REMARK                         _______ _______ _______ _____ _____    ______ ____
ROOT
ATOM      1  C   UNL     1      -2.437  -0.106  -0.010  0.00  0.00    +0.109 C 
ATOM      2  C   UNL     1      -2.306   1.154   0.820  0.00  0.00    +0.029 C 
ATOM      3  C   UNL     1      -3.506   2.107   0.875  0.00  0.00    +0.033 C 
ATOM      4  C   UNL     1      -2.814   3.456   1.083  0.00  0.00    -0.030 C 
ATOM      5  C   UNL     1      -1.581   3.414   0.590  0.00  0.00    -0.023 C 
ATOM      6  C   UNL     1      -1.335   2.063   0.004  0.00  0.00    +0.049 C 
ATOM      7  C   UNL     1      -0.017   1.391   0.010  0.00  0.00    -0.014 A 
ATOM      8  C   UNL     1       1.163   2.108   0.002  0.00  0.00    +0.039 A 
ATOM      9  C   UNL     1       2.381   1.456  -0.028  0.00  0.00    +0.130 A 
ATOM     10  C   UNL     1       2.417   0.074  -0.051  0.00  0.00    +0.080 A 
ATOM     11  C   UNL     1       1.243  -0.652  -0.037  0.00  0.00    +0.140 A 
ATOM     12  C   UNL     1       0.002  -0.004   0.002  0.00  0.00    +0.074 A 
ATOM     13  N   UNL     1      -1.142  -0.802   0.053  0.00  0.00    -0.334 N 
ATOM     14  H   UNL     1      -1.110  -1.899   0.135  0.00  0.00    +0.147 HD
ENDROOT
BRANCH   1  20
ATOM     15  C   UNL     1      -4.071   0.522  -1.805  0.00  0.00    +0.125 A 
ATOM     16  C   UNL     1      -4.367   0.848  -3.121  0.00  0.00    +0.046 A 
ATOM     17  C   UNL     1      -3.357   0.899  -4.062  0.00  0.00    +0.004 A 
ATOM     18  C   UNL     1      -2.053   0.625  -3.694  0.00  0.00    +0.001 A 
ATOM     19  C   UNL     1      -1.755   0.305  -2.382  0.00  0.00    +0.009 A 
ATOM     20  C   UNL     1      -2.762   0.248  -1.438  0.00  0.00    +0.015 A 
BRANCH  15  22
ATOM     21  C   UNL     1      -6.387   0.764  -1.326  0.00  0.00    +0.277 C 
ATOM     22  O   UNL     1      -5.063   0.470  -0.877  0.00  0.00    -0.495 OA
ENDBRANCH  15  22
ENDBRANCH   1  20
BRANCH   9  23
ATOM     23  N   UNL     1       3.640   2.234  -0.036  0.00  0.00    +0.057 N 
ATOM     24  O   UNL     1       4.712   1.657  -0.063  0.00  0.00    -0.126 OA
ATOM     25  O   UNL     1       3.604   3.451  -0.015  0.00  0.00    -0.126 OA
ENDBRANCH   9  23
BRANCH  11  26
ATOM     26  O   UNL     1       1.292  -2.011  -0.060  0.00  0.00    -0.505 OA
ATOM     27  H   UNL     1       0.360  -2.595  -0.048  0.00  0.00    +0.292 HD
ENDBRANCH  11  26
TORSDOF 4
