REMARK  Name = ZINC02240699
REMARK  9 active torsions:
REMARK  status: ('A' for Active; 'I' for Inactive)
REMARK    1  A    between atoms: C_1  and  C_2
REMARK    2  A    between atoms: C_2  and  C_3
REMARK    3  A    between atoms: C_3  and  C_4
REMARK    4  A    between atoms: C_4  and  C_5
REMARK    5  A    between atoms: C_5  and  N_6
REMARK    6  A    between atoms: C_7  and  C_9
REMARK    7  A    between atoms: N_20  and  N_23
REMARK    8  A    between atoms: C_21  and  N_22
REMARK    9  A    between atoms: C_24  and  C_25
REMARK                            x       y       z     vdW  Elec       q    Type
REMARK                         _______ _______ _______ _____ _____    ______ ____
ROOT
ATOM      1  C   UNL     1       1.555  -2.056  -0.024  0.00  0.00    +0.105 A 
ATOM      2  C   UNL     1       1.157  -0.638  -0.013  0.00  0.00    +0.124 A 
ATOM      3  C   UNL     1       2.413   0.118  -0.020  0.00  0.00    +0.183 A 
ATOM      4  N   UNL     1       2.376   1.433  -0.013  0.00  0.00    -0.224 NA
ATOM      5  C   UNL     1       1.197   2.067   0.002  0.00  0.00    +0.092 A 
ATOM      6  C   UNL     1       1.149   3.474   0.010  0.00  0.00    +0.030 A 
ATOM      7  C   UNL     1      -0.054   4.110   0.025  0.00  0.00    +0.002 A 
ATOM      8  C   UNL     1      -1.246   3.389   0.032  0.00  0.00    +0.002 A 
ATOM      9  C   UNL     1      -1.240   2.029   0.019  0.00  0.00    +0.030 A 
ATOM     10  C   UNL     1      -0.016   1.334   0.009  0.00  0.00    +0.090 A 
ATOM     11  N   UNL     1       0.002  -0.004   0.002  0.00  0.00    -0.241 NA
ATOM     12  N   UNL     1       3.440  -0.806  -0.035  0.00  0.00    -0.198 N 
ATOM     13  C   UNL     1       2.945  -2.077  -0.037  0.00  0.00    +0.134 A 
ENDROOT
BRANCH   1  15
ATOM     14  N   UNL     1       0.264  -3.753   1.148  0.00  0.00    -0.311 N 
ATOM     15  C   UNL     1       0.663  -3.214  -0.020  0.00  0.00    +0.250 C 
ATOM     16  O   UNL     1       0.281  -3.691  -1.073  0.00  0.00    -0.270 OA
ATOM     17  H   UNL     1       0.568  -3.373   1.987  0.00  0.00    +0.149 HD
BRANCH  14  18
ATOM     18  C   UNL     1      -0.630  -4.914   1.151  0.00  0.00    +0.104 C 
BRANCH  18  19
ATOM     19  C   UNL     1      -0.927  -5.325   2.595  0.00  0.00    +0.019 C 
BRANCH  19  20
ATOM     20  C   UNL     1      -1.860  -6.538   2.598  0.00  0.00    +0.001 C 
BRANCH  20  22
ATOM     21  C   UNL     1      -3.090  -8.161   4.045  0.00  0.00    +0.004 C 
ATOM     22  C   UNL     1      -2.157  -6.949   4.042  0.00  0.00    -0.003 C 
ENDBRANCH  20  22
ENDBRANCH  19  20
ENDBRANCH  18  19
ENDBRANCH  14  18
ENDBRANCH   1  15
BRANCH  13  23
ATOM     23  N   UNL     1       3.711  -3.215  -0.050  0.00  0.00    -0.342 N 
ATOM     24  H   UNL     1       3.284  -4.086  -0.051  0.00  0.00    +0.144 HD
ATOM     25  H   UNL     1       4.678  -3.148  -0.059  0.00  0.00    +0.144 HD
ENDBRANCH  13  23
BRANCH  12  26
ATOM     26  N   UNL     1       4.803  -0.482  -0.046  0.00  0.00    -0.171 NA
ATOM     27  C   UNL     1       5.424  -0.327  -1.175  0.00  0.00    +0.142 C 
BRANCH  27  28
ATOM     28  C   UNL     1       6.859   0.014  -1.187  0.00  0.00    +0.013 A 
ATOM     29  C   UNL     1       7.542   0.179  -2.398  0.00  0.00    +0.012 A 
ATOM     30  C   UNL     1       8.886   0.505  -2.354  0.00  0.00    +0.020 A 
ATOM     31  C   UNL     1       9.509   0.644  -1.127  0.00  0.00    +0.111 A 
ATOM     32  N   UNL     1       8.842   0.478  -0.001  0.00  0.00    -0.263 NA
ATOM     33  C   UNL     1       7.561   0.173   0.010  0.00  0.00    +0.120 A 
ENDBRANCH  27  28
ENDBRANCH  12  26
TORSDOF 8
