REMARK  Name = ZINC16688515
REMARK  13 active torsions:
REMARK  status: ('A' for Active; 'I' for Inactive)
REMARK    1  A    between atoms: C_1  and  C_2
REMARK    2  A    between atoms: C_2  and  O_3
REMARK    3  A    between atoms: O_3  and  C_4
REMARK    4  A    between atoms: C_6  and  C_20
REMARK    5  A    between atoms: C_9  and  O_10
REMARK    6  A    between atoms: O_10  and  C_11
REMARK    7  A    between atoms: C_11  and  C_12
REMARK    8  A    between atoms: C_20  and  N_57
REMARK    9  A    between atoms: C_21  and  C_22
REMARK   10  A    between atoms: C_21  and  N_57
REMARK   11  A    between atoms: C_22  and  N_23
REMARK   12  A    between atoms: N_23  and  C_24
REMARK   13  A    between atoms: C_27  and  N_31
REMARK                            x       y       z     vdW  Elec       q    Type
REMARK                         _______ _______ _______ _____ _____    ______ ____
ROOT
ATOM      1  C   UNL     1      -2.369   1.252   2.956  0.00  0.00    +0.164 A 
ATOM      2  C   UNL     1      -1.719   0.807   1.816  0.00  0.00    +0.051 A 
ATOM      3  C   UNL     1      -0.718   1.572   1.248  0.00  0.00    -0.059 A 
ATOM      4  C   UNL     1      -0.359   2.779   1.817  0.00  0.00    +0.025 A 
ATOM      5  C   UNL     1      -1.007   3.232   2.952  0.00  0.00    +0.086 A 
ATOM      6  C   UNL     1      -2.012   2.469   3.527  0.00  0.00    +0.181 A 
ATOM      7 CL   UNL     1      -0.558   4.752   3.661  0.00  0.00    -0.080 Cl
ENDROOT
BRANCH   1   8
ATOM      8  O   UNL     1      -3.354   0.500   3.517  0.00  0.00    -0.489 OA
BRANCH   8  10
ATOM      9  C   UNL     1      -4.791  -1.439   3.644  0.00  0.00    +0.048 C 
ATOM     10  C   UNL     1      -3.668  -0.739   2.877  0.00  0.00    +0.226 C 
ENDBRANCH   8  10
ENDBRANCH   1   8
BRANCH   6  11
ATOM     11  O   UNL     1      -2.647   2.910   4.646  0.00  0.00    -0.482 OA
BRANCH  11  12
ATOM     12  C   UNL     1      -2.087   2.528   5.903  0.00  0.00    +0.264 C 
BRANCH  12  13
ATOM     13  C   UNL     1      -2.918   3.104   7.020  0.00  0.00    -0.010 A 
ATOM     14  C   UNL     1      -2.617   4.352   7.533  0.00  0.00    +0.010 A 
ATOM     15  C   UNL     1      -3.381   4.883   8.554  0.00  0.00    +0.039 A 
ATOM     16  C   UNL     1      -4.444   4.161   9.071  0.00  0.00    +0.123 A 
ATOM     17  C   UNL     1      -4.742   2.909   8.560  0.00  0.00    +0.039 A 
ATOM     18  C   UNL     1      -3.978   2.382   7.535  0.00  0.00    +0.010 A 
ATOM     19  F   UNL     1      -5.189   4.677  10.072  0.00  0.00    -0.205 F 
ENDBRANCH  12  13
ENDBRANCH  11  12
ENDBRANCH   6  11
BRANCH   3  20
ATOM     20  C   UNL     1      -0.013   1.086   0.008  0.00  0.00    -0.047 C 
BRANCH  20  21
ATOM     21  N   UNL     1      -0.732   1.579  -1.182  0.00  0.00    +0.383 N 
ATOM     22  H   UNL     1      -0.746   2.605  -1.168  0.00  0.00    -0.085 HD
ATOM     23  H   UNL     1      -1.695   1.223  -1.167  0.00  0.00    -0.085 HD
BRANCH  21  24
ATOM     24  C   UNL     1      -0.062   1.117  -2.413  0.00  0.00    -0.063 C 
BRANCH  24  25
ATOM     25  C   UNL     1      -0.829   1.643  -3.628  0.00  0.00    +0.082 C 
BRANCH  25  26
ATOM     26  N   UNL     1      -0.171   1.188  -4.855  0.00  0.00    -0.345 N 
ATOM     27  H   UNL     1       0.628   0.640  -4.802  0.00  0.00    +0.146 HD
BRANCH  26  28
ATOM     28  C   UNL     1      -0.692   1.545  -6.101  0.00  0.00    +0.046 A 
ATOM     29  C   UNL     1      -1.835   2.330  -6.178  0.00  0.00    +0.026 A 
ATOM     30  C   UNL     1      -2.348   2.681  -7.412  0.00  0.00    +0.034 A 
ATOM     31  C   UNL     1      -1.726   2.252  -8.570  0.00  0.00    +0.128 A 
ATOM     32  C   UNL     1      -0.587   1.470  -8.497  0.00  0.00    +0.054 A 
ATOM     33  C   UNL     1      -0.065   1.120  -7.266  0.00  0.00    +0.064 A 
ATOM     34 CL   UNL     1       1.368   0.145  -7.176  0.00  0.00    -0.082 Cl
BRANCH  31  35
ATOM     35  N   UNL     1      -2.278   2.631  -9.889  0.00  0.00    +0.056 N 
ATOM     36  O   UNL     1      -3.281   3.320  -9.955  0.00  0.00    -0.126 OA
ATOM     37  O   UNL     1      -1.731   2.254 -10.910  0.00  0.00    -0.126 OA
ENDBRANCH  31  35
ENDBRANCH  26  28
ENDBRANCH  25  26
ENDBRANCH  24  25
ENDBRANCH  21  24
ENDBRANCH  20  21
ENDBRANCH   3  20
TORSDOF 12
