REMARK  Name = ZINC65247734
REMARK  5 active torsions:
REMARK  status: ('A' for Active; 'I' for Inactive)
REMARK    1  A    between atoms: C_1  and  C_2
REMARK    2  A    between atoms: C_5  and  N_8
REMARK    3  A    between atoms: C_9  and  C_11
REMARK    4  A    between atoms: C_11  and  C_12
REMARK    5  A    between atoms: C_22  and  C_24
REMARK                            x       y       z     vdW  Elec       q    Type
REMARK                         _______ _______ _______ _____ _____    ______ ____
ROOT
ATOM      1  C   UNL     1       0.424  -6.867   2.557  0.00  0.00    +0.222 C 
ATOM      2  N   UNL     1       1.625  -6.303   3.199  0.00  0.00    -0.174 NA
ATOM      3  N   UNL     1       2.717  -6.877   3.222  0.00  0.00    -0.082 NA
ATOM      4  C   UNL     1       2.950  -8.075   2.627  0.00  0.00    +0.276 C 
ATOM      5  O   UNL     1       3.998  -8.660   2.762  0.00  0.00    -0.270 OA
ATOM      6  C   UNL     1       1.835  -8.630   1.795  0.00  0.00    +0.192 C 
ATOM      7  N   UNL     1       0.581  -8.305   2.551  0.00  0.00    -0.187 NA
ATOM      8  N   UNL     1      -0.302  -9.135   1.949  0.00  0.00    -0.275 N 
ATOM      9  C   UNL     1       0.386 -10.366   1.827  0.00  0.00    +0.047 C 
ATOM     10  C   UNL     1       1.734 -10.130   1.721  0.00  0.00    +0.027 C 
ATOM     11  H   UNL     1      -1.206  -8.932   1.664  0.00  0.00    +0.167 HD
ENDROOT
BRANCH   9  12
ATOM     12  C   UNL     1      -0.250 -11.703   1.802  0.00  0.00    -0.003 A 
ATOM     13  C   UNL     1       0.535 -12.850   1.684  0.00  0.00    +0.012 A 
ATOM     14  C   UNL     1      -0.062 -14.093   1.661  0.00  0.00    +0.039 A 
ATOM     15  C   UNL     1      -1.440 -14.204   1.755  0.00  0.00    +0.123 A 
ATOM     16  C   UNL     1      -2.225 -13.068   1.872  0.00  0.00    +0.039 A 
ATOM     17  C   UNL     1      -1.637 -11.820   1.902  0.00  0.00    +0.012 A 
ATOM     18  F   UNL     1      -2.021 -15.424   1.732  0.00  0.00    -0.205 F 
ENDBRANCH   9  12
BRANCH   1  19
ATOM     19  C   UNL     1       0.309  -6.349   1.121  0.00  0.00    +0.142 C 
BRANCH  19  21
ATOM     20  N   UNL     1       0.059  -4.170  -0.021  0.00  0.00    -0.285 N 
ATOM     21  C   UNL     1       0.175  -4.848   1.138  0.00  0.00    +0.221 C 
ATOM     22  O   UNL     1       0.173  -4.251   2.193  0.00  0.00    -0.275 OA
ATOM     23  H   UNL     1      -0.017  -4.651  -0.860  0.00  0.00    +0.155 HD
BRANCH  20  28
ATOM     24  C   UNL     1       0.008   1.503   0.007  0.00  0.00    +0.044 C 
ATOM     25  C   UNL     1       0.022  -0.004  -0.001  0.00  0.00    -0.050 A 
ATOM     26  C   UNL     1       0.777  -0.692   0.931  0.00  0.00    +0.005 A 
ATOM     27  C   UNL     1       0.791  -2.073   0.927  0.00  0.00    +0.023 A 
ATOM     28  C   UNL     1       0.046  -2.771  -0.014  0.00  0.00    +0.033 A 
ATOM     29  C   UNL     1      -0.712  -2.077  -0.948  0.00  0.00    +0.023 A 
ATOM     30  C   UNL     1      -0.726  -0.696  -0.936  0.00  0.00    +0.005 A 
ENDBRANCH  20  28
ENDBRANCH  19  21
ENDBRANCH   1  19
TORSDOF 4
