REMARK  Name = ZINC23381942
REMARK  6 active torsions:
REMARK  status: ('A' for Active; 'I' for Inactive)
REMARK    1  A    between atoms: C_1  and  C_2
REMARK    2  A    between atoms: C_4  and  C_27
REMARK    3  A    between atoms: C_8  and  C_26
REMARK    4  A    between atoms: N_14  and  C_16
REMARK    5  A    between atoms: C_16  and  N_17
REMARK    6  A    between atoms: C_20  and  C_23
REMARK                            x       y       z     vdW  Elec       q    Type
REMARK                         _______ _______ _______ _____ _____    ______ ____
ROOT
ATOM      1  C   UNL     1       2.599  -4.248  -0.268  0.00  0.00    +0.044 C 
ATOM      2  C   UNL     1       2.537  -2.744  -0.315  0.00  0.00    -0.050 A 
ATOM      3  C   UNL     1       3.681  -2.009  -0.573  0.00  0.00    +0.008 A 
ATOM      4  C   UNL     1       3.643  -0.627  -0.576  0.00  0.00    -0.026 A 
ATOM      5  C   UNL     1       2.480   0.043  -0.230  0.00  0.00    +0.061 A 
ATOM      6  C   UNL     1       1.287  -0.701  -0.115  0.00  0.00    +0.002 A 
ATOM      7  C   UNL     1       1.340  -2.098  -0.101  0.00  0.00    +0.013 A 
ATOM      8  C   UNL     1       0.002  -0.004   0.002  0.00  0.00    -0.038 A 
ATOM      9  C   UNL     1      -0.016   1.345   0.009  0.00  0.00    +0.052 A 
ATOM     10  C   UNL     1       1.244   2.085   0.001  0.00  0.00    +0.160 A 
ATOM     11  N   UNL     1       2.457   1.406   0.032  0.00  0.00    -0.271 N 
ATOM     12  C   UNL     1       3.369   2.317   0.423  0.00  0.00    +0.181 A 
ATOM     13  S   UNL     1       4.858   2.035   1.218  0.00  0.00    -0.011 S 
ATOM     14  N   UNL     1       2.870   3.538   0.127  0.00  0.00    -0.257 N 
ATOM     15  N   UNL     1       1.496   3.370  -0.082  0.00  0.00    -0.153 NA
ATOM     16  C   UNL     1      -1.296  -0.765   0.076  0.00  0.00    +0.044 C 
ATOM     17  C   UNL     1       4.872   0.106  -1.052  0.00  0.00    +0.046 C 
ENDROOT
BRANCH  14  18
ATOM     18  C   UNL     1       3.623   4.789   0.043  0.00  0.00    +0.072 C 
BRANCH  18  19
ATOM     19  N   UNL     1       3.643   5.438   1.361  0.00  0.00    +0.393 N 
ATOM     20  C   UNL     1       3.959   4.470   2.419  0.00  0.00    -0.075 C 
ATOM     21  C   UNL     1       3.828   5.147   3.786  0.00  0.00    -0.006 C 
ATOM     22  C   UNL     1       4.789   6.338   3.854  0.00  0.00    +0.071 C 
ATOM     23  C   UNL     1       4.470   7.306   2.712  0.00  0.00    -0.006 C 
ATOM     24  C   UNL     1       4.582   6.567   1.376  0.00  0.00    -0.075 C 
ATOM     25  H   UNL     1       2.637   5.835   1.559  0.00  0.00    -0.079 HD
BRANCH  22  26
ATOM     26  C   UNL     1       4.622   7.044   5.175  0.00  0.00    +0.213 C 
ATOM     27  O   UNL     1       4.282   8.208   5.201  0.00  0.00    -0.276 OA
ATOM     28  N   UNL     1       4.851   6.382   6.326  0.00  0.00    -0.329 N 
ATOM     29  H   UNL     1       4.729   6.898   7.290  0.00  0.00    +0.145 HD
ATOM     30  H   UNL     1       5.159   5.327   6.302  0.00  0.00    +0.145 HD
ENDBRANCH  22  26
ENDBRANCH  18  19
ENDBRANCH  14  18
TORSDOF 3
