REMARK  Name = ZINC40475402
REMARK  2 active torsions:
REMARK  status: ('A' for Active; 'I' for Inactive)
REMARK    1  A    between atoms: C_4  and  N_7
REMARK    2  A    between atoms: C_12  and  C_25
REMARK                            x       y       z     vdW  Elec       q    Type
REMARK                         _______ _______ _______ _____ _____    ______ ____
ROOT
ATOM      1  N   UNL     1       4.375  -0.219  -0.103  0.00  0.00    -0.209 N 
ATOM      2  C   UNL     1       4.147  -1.558  -0.081  0.00  0.00    +0.232 C 
ATOM      3  O   UNL     1       3.088  -2.120  -0.258  0.00  0.00    -0.274 OA
ATOM      4  C   UNL     1       5.468  -2.199   0.206  0.00  0.00    +0.113 C 
ATOM      5  C   UNL     1       5.770  -3.554  -0.388  0.00  0.00    +0.108 C 
ATOM      6  C   UNL     1       7.185  -3.916  -0.046  0.00  0.00    +0.035 A 
ATOM      7  C   UNL     1       8.220  -3.112   0.340  0.00  0.00    +0.110 A 
ATOM      8  N   UNL     1       9.359  -3.752   0.601  0.00  0.00    -0.225 NA
ATOM      9  C   UNL     1       9.468  -5.056   0.471  0.00  0.00    +0.147 A 
ATOM     10  S   UNL     1      10.880  -6.070   0.763  0.00  0.00    -0.023 SA
ATOM     11  S   UNL     1       7.933  -5.524  -0.040  0.00  0.00    -0.063 S 
ATOM     12  S   UNL     1       8.011  -1.342   0.454  0.00  0.00    -0.091 S 
ATOM     13  C   UNL     1       6.435  -1.163  -0.441  0.00  0.00    +0.152 C 
ATOM     14  C   UNL     1       5.692   0.108  -0.136  0.00  0.00    +0.240 C 
ATOM     15  O   UNL     1       6.174   1.206   0.046  0.00  0.00    -0.274 OA
ENDROOT
BRANCH   1  19
ATOM     16  C   UNL     1       1.318   2.616  -0.090  0.00  0.00    +0.000 A 
ATOM     17  C   UNL     1       2.639   3.025  -0.123  0.00  0.00    +0.002 A 
ATOM     18  C   UNL     1       3.654   2.088  -0.127  0.00  0.00    +0.024 A 
ATOM     19  C   UNL     1       3.347   0.735  -0.098  0.00  0.00    +0.044 A 
ATOM     20  C   UNL     1       2.020   0.327  -0.064  0.00  0.00    +0.024 A 
ATOM     21  C   UNL     1       1.010   1.268  -0.060  0.00  0.00    +0.002 A 
ENDBRANCH   1  19
BRANCH   5  22
ATOM     22  C   UNL     1       5.608  -3.498  -1.886  0.00  0.00    +0.114 A 
ATOM     23  C   UNL     1       4.617  -4.073  -2.591  0.00  0.00    +0.045 A 
ATOM     24  C   UNL     1       4.854  -3.770  -3.952  0.00  0.00    +0.041 A 
ATOM     25  C   UNL     1       5.975  -3.028  -3.996  0.00  0.00    +0.195 A 
ATOM     26  O   UNL     1       6.424  -2.862  -2.741  0.00  0.00    -0.467 OA
ENDBRANCH   5  22
TORSDOF 2
