REMARK  Name = ZINC10273624
REMARK  8 active torsions:
REMARK  status: ('A' for Active; 'I' for Inactive)
REMARK    1  A    between atoms: C_1  and  O_2
REMARK    2  A    between atoms: O_2  and  C_3
REMARK    3  A    between atoms: C_3  and  C_5
REMARK    4  A    between atoms: C_6  and  C_20
REMARK    5  A    between atoms: C_11  and  C_13
REMARK    6  A    between atoms: C_16  and  O_19
REMARK    7  A    between atoms: C_20  and  S_21
REMARK    8  A    between atoms: S_21  and  C_24
REMARK                            x       y       z     vdW  Elec       q    Type
REMARK                         _______ _______ _______ _____ _____    ______ ____
ROOT
ATOM      1  C   UNL     1      -1.125   2.059   0.224  0.00  0.00    +0.080 C 
ATOM      2  C   UNL     1       0.079   1.509  -0.045  0.00  0.00    +0.045 C 
ATOM      3  N   UNL     1       1.178   2.290  -0.259  0.00  0.00    -0.271 N 
ATOM      4  C   UNL     1       1.159   3.628  -0.217  0.00  0.00    +0.304 C 
ATOM      5  O   UNL     1       2.190   4.238  -0.421  0.00  0.00    -0.252 OA
ATOM      6  N   UNL     1       0.033   4.321   0.046  0.00  0.00    -0.288 N 
ATOM      7  C   UNL     1      -1.211   3.571   0.292  0.00  0.00    +0.144 C 
ATOM      8  H   UNL     1       2.021   1.850  -0.453  0.00  0.00    +0.156 HD
ATOM      9  H   UNL     1       0.041   5.290   0.072  0.00  0.00    +0.151 HD
ENDROOT
BRANCH   7  10
ATOM     10  C   UNL     1      -2.232   4.019  -0.722  0.00  0.00    -0.022 A 
ATOM     11  C   UNL     1      -1.849   4.258  -2.028  0.00  0.00    +0.009 A 
ATOM     12  C   UNL     1      -2.784   4.664  -2.961  0.00  0.00    +0.046 A 
ATOM     13  C   UNL     1      -4.107   4.841  -2.582  0.00  0.00    +0.117 A 
ATOM     14  C   UNL     1      -4.488   4.606  -1.269  0.00  0.00    +0.046 A 
ATOM     15  C   UNL     1      -3.550   4.195  -0.342  0.00  0.00    +0.009 A 
BRANCH  13  16
ATOM     16  O   UNL     1      -5.028   5.245  -3.496  0.00  0.00    -0.507 OA
ATOM     17  H   UNL     1      -5.124   6.205  -3.560  0.00  0.00    +0.292 HD
ENDBRANCH  13  16
ENDBRANCH   7  10
BRANCH   1  18
ATOM     18  C   UNL     1      -2.266   1.252   0.441  0.00  0.00    +0.339 C 
ATOM     19  O   UNL     1      -2.150   0.043   0.523  0.00  0.00    -0.245 OA
BRANCH  18  21
ATOM     20  C   UNL     1      -4.592   0.946   0.773  0.00  0.00    +0.280 C 
ATOM     21  O   UNL     1      -3.484   1.822   0.556  0.00  0.00    -0.465 OA
ENDBRANCH  18  21
ENDBRANCH   1  18
BRANCH   2  22
ATOM     22  C   UNL     1       0.209   0.009  -0.115  0.00  0.00    +0.223 C 
BRANCH  22  23
ATOM     23  S   UNL     1       0.884  -0.613   1.449  0.00  0.00    +0.008 S 
ATOM     24  O   UNL     1       2.231  -0.189   1.604  0.00  0.00    -0.169 OA
ATOM     25  O   UNL     1      -0.059  -0.430   2.496  0.00  0.00    -0.169 OA
BRANCH  23  26
ATOM     26  C   UNL     1       0.985  -2.359   1.235  0.00  0.00    +0.127 A 
ATOM     27  C   UNL     1       2.008  -3.102   0.747  0.00  0.00    +0.036 A 
ATOM     28  C   UNL     1       1.865  -4.475   0.674  0.00  0.00    +0.029 A 
ATOM     29  C   UNL     1       0.701  -5.037   1.083  0.00  0.00    +0.080 A 
ATOM     30  S   UNL     1      -0.237  -3.609   1.600  0.00  0.00    -0.059 S 
ATOM     31 CL   UNL     1       0.241  -6.711   1.100  0.00  0.00    -0.076 Cl
ENDBRANCH  23  26
ENDBRANCH  22  23
ENDBRANCH   2  22
TORSDOF 7
