REMARK  Name = ZINC40888983
REMARK  8 active torsions:
REMARK  status: ('A' for Active; 'I' for Inactive)
REMARK    1  A    between atoms: C_1  and  C_2
REMARK    2  A    between atoms: C_5  and  C_26
REMARK    3  A    between atoms: C_6  and  O_9
REMARK    4  A    between atoms: C_7  and  C_8
REMARK    5  A    between atoms: O_9  and  C_10
REMARK    6  A    between atoms: C_10  and  C_11
REMARK    7  A    between atoms: N_13  and  N_14
REMARK    8  A    between atoms: C_15  and  C_16
REMARK                            x       y       z     vdW  Elec       q    Type
REMARK                         _______ _______ _______ _____ _____    ______ ____
ROOT
ATOM      1  C   UNL     1       1.149  -3.845   4.202  0.00  0.00    +0.270 C 
ATOM      2  O   UNL     1       0.032  -4.095   4.607  0.00  0.00    -0.270 OA
ATOM      3  N   UNL     1       2.226  -4.246   4.905  0.00  0.00    -0.204 N 
ATOM      4  H   UNL     1       3.118  -4.047   4.581  0.00  0.00    +0.177 HD
ENDROOT
BRANCH   3   5
ATOM      5  N   UNL     1       2.057  -4.952   6.104  0.00  0.00    -0.188 NA
ATOM      6  C   UNL     1       3.096  -5.338   6.782  0.00  0.00    +0.140 C 
BRANCH   6   7
ATOM      7  C   UNL     1       2.918  -6.079   8.041  0.00  0.00    +0.020 A 
ATOM      8  C   UNL     1       3.903  -6.541   8.858  0.00  0.00    +0.093 A 
ATOM      9  N   UNL     1       3.350  -7.178   9.929  0.00  0.00    -0.360 N 
ATOM     10  H   UNL     1       3.853  -7.590  10.649  0.00  0.00    +0.165 HD
ATOM     11  C   UNL     1       1.975  -7.151   9.843  0.00  0.00    +0.047 A 
ATOM     12  C   UNL     1       1.640  -6.460   8.667  0.00  0.00    +0.008 A 
ATOM     13  C   UNL     1       0.302  -6.273   8.324  0.00  0.00    +0.010 A 
ATOM     14  C   UNL     1      -0.688  -6.765   9.145  0.00  0.00    +0.001 A 
ATOM     15  C   UNL     1      -0.358  -7.445  10.309  0.00  0.00    +0.002 A 
ATOM     16  C   UNL     1       0.960  -7.645  10.656  0.00  0.00    +0.026 A 
ENDBRANCH   6   7
ENDBRANCH   3   5
BRANCH   1  17
ATOM     17  C   UNL     1       1.330  -3.087   2.912  0.00  0.00    +0.326 C 
BRANCH  17  18
ATOM     18  O   UNL     1       0.050  -2.776   2.358  0.00  0.00    -0.482 OA
BRANCH  18  24
ATOM     19  C   UNL     1      -0.018   1.503   0.010  0.00  0.00    +0.044 C 
ATOM     20  C   UNL     1       0.002  -0.004   0.002  0.00  0.00    -0.044 A 
ATOM     21  C   UNL     1       0.006  -0.688  -1.200  0.00  0.00    +0.004 A 
ATOM     22  C   UNL     1       0.024  -2.071  -1.211  0.00  0.00    +0.007 A 
ATOM     23  C   UNL     1       0.039  -2.772  -0.020  0.00  0.00    -0.008 A 
ATOM     24  C   UNL     1       0.035  -2.088   1.186  0.00  0.00    +0.127 A 
ATOM     25  C   UNL     1       0.023  -0.700   1.195  0.00  0.00    -0.006 A 
ATOM     26  C   UNL     1       0.026   0.046   2.504  0.00  0.00    +0.048 C 
ATOM     27  C   UNL     1       0.059  -4.279  -0.033  0.00  0.00    +0.047 C 
ENDBRANCH  18  24
ENDBRANCH  17  18
ENDBRANCH   1  17
TORSDOF 5
