REMARK  Name = ZINC19182164
REMARK  7 active torsions:
REMARK  status: ('A' for Active; 'I' for Inactive)
REMARK    1  A    between atoms: C_5  and  N_7
REMARK    2  A    between atoms: C_13  and  C_15
REMARK    3  A    between atoms: C_15  and  S_16
REMARK    4  A    between atoms: S_16  and  C_17
REMARK    5  A    between atoms: C_18  and  C_26
REMARK    6  A    between atoms: C_20  and  C_24
REMARK    7  A    between atoms: C_21  and  N_23
REMARK                            x       y       z     vdW  Elec       q    Type
REMARK                         _______ _______ _______ _____ _____    ______ ____
ROOT
ATOM      1  N   UNL     1       1.236  -2.079  -0.021  0.00  0.00    -0.325 N 
ATOM      2  C   UNL     1       1.254  -2.834   1.239  0.00  0.00    +0.124 C 
ATOM      3  C   UNL     1       0.076  -3.815   1.240  0.00  0.00    +0.126 C 
ATOM      4  N   UNL     1       0.081  -4.556  -0.030  0.00  0.00    -0.298 N 
ATOM      5  C   UNL     1       0.063  -3.801  -1.290  0.00  0.00    +0.126 C 
ATOM      6  C   UNL     1       1.236  -2.820  -1.291  0.00  0.00    +0.124 C 
ATOM      7  C   UNL     1       0.102  -5.904  -0.037  0.00  0.00    +0.226 C 
ATOM      8  O   UNL     1       0.117  -6.516   1.009  0.00  0.00    -0.275 OA
ENDROOT
BRANCH   1  13
ATOM      9  C   UNL     1      -0.017   1.377   0.010  0.00  0.00    +0.002 A 
ATOM     10  C   UNL     1       1.170   2.087   0.002  0.00  0.00    +0.003 A 
ATOM     11  C   UNL     1       2.380   1.418  -0.013  0.00  0.00    +0.040 A 
ATOM     12  C   UNL     1       2.406   0.035  -0.021  0.00  0.00    +0.144 A 
ATOM     13  C   UNL     1       1.214  -0.681  -0.013  0.00  0.00    +0.065 A 
ATOM     14  C   UNL     1       0.002  -0.004   0.002  0.00  0.00    +0.026 A 
ATOM     15  F   UNL     1       3.588  -0.619  -0.036  0.00  0.00    -0.204 F 
ENDBRANCH   1  13
BRANCH   7  16
ATOM     16  C   UNL     1       0.107  -6.649  -1.347  0.00  0.00    +0.171 C 
BRANCH  16  17
ATOM     17  S   UNL     1       0.137  -8.435  -1.026  0.00  0.00    -0.095 S 
BRANCH  17  18
ATOM     18  C   UNL     1       0.140  -9.157  -2.633  0.00  0.00    +0.117 A 
ATOM     19  C   UNL     1       0.156 -10.560  -2.766  0.00  0.00    +0.085 A 
ATOM     20  C   UNL     1       0.159 -11.121  -4.045  0.00  0.00    +0.043 A 
ATOM     21  C   UNL     1       0.145 -10.261  -5.146  0.00  0.00    +0.092 A 
ATOM     22  C   UNL     1       0.130  -8.870  -4.929  0.00  0.00    +0.135 A 
ATOM     23  N   UNL     1       0.122  -8.375  -3.702  0.00  0.00    -0.224 NA
BRANCH  22  24
ATOM     24  N   UNL     1       0.117  -8.011  -6.010  0.00  0.00    -0.342 N 
ATOM     25  H   UNL     1       0.118  -8.368  -6.912  0.00  0.00    +0.144 HD
ATOM     26  H   UNL     1       0.106  -7.052  -5.867  0.00  0.00    +0.144 HD
ENDBRANCH  22  24
BRANCH  21  27
ATOM     27  C   UNL     1       0.147 -10.788  -6.478  0.00  0.00    +0.103 C 
ATOM     28  N   UNL     1       0.149 -11.206  -7.534  0.00  0.00    -0.191 NA
ENDBRANCH  21  27
BRANCH  19  29
ATOM     29  C   UNL     1       0.170 -11.399  -1.605  0.00  0.00    +0.102 C 
ATOM     30  N   UNL     1       0.181 -12.064  -0.684  0.00  0.00    -0.191 NA
ENDBRANCH  19  29
ENDBRANCH  17  18
ENDBRANCH  16  17
ENDBRANCH   7  16
TORSDOF 7
