REMARK  Name = ZINC02358465
REMARK  9 active torsions:
REMARK  status: ('A' for Active; 'I' for Inactive)
REMARK    1  A    between atoms: C_1  and  C_2
REMARK    2  A    between atoms: C_2  and  O_3
REMARK    3  A    between atoms: O_3  and  C_4
REMARK    4  A    between atoms: C_7  and  N_10
REMARK    5  A    between atoms: C_11  and  N_35
REMARK    6  A    between atoms: C_12  and  C_23
REMARK    7  A    between atoms: N_25  and  C_26
REMARK    8  A    between atoms: C_26  and  C_28
REMARK    9  A    between atoms: C_26  and  C_29
REMARK                            x       y       z     vdW  Elec       q    Type
REMARK                         _______ _______ _______ _____ _____    ______ ____
ROOT
ATOM      1  N   UNL     1      -1.676   2.441   5.507  0.00  0.00    -0.280 N 
ATOM      2  C   UNL     1      -0.758   2.230   4.523  0.00  0.00    +0.117 A 
ATOM      3  C   UNL     1      -1.259   1.348   3.572  0.00  0.00    +0.104 A 
ATOM      4  C   UNL     1      -2.617   0.987   4.011  0.00  0.00    +0.123 A 
ATOM      5  C   UNL     1      -2.827   1.716   5.265  0.00  0.00    +0.166 A 
ATOM      6  N   UNL     1      -3.969   1.588   5.905  0.00  0.00    -0.225 NA
ATOM      7  C   UNL     1      -4.925   0.790   5.411  0.00  0.00    +0.092 A 
ATOM      8  C   UNL     1      -6.149   0.646   6.089  0.00  0.00    +0.030 A 
ATOM      9  C   UNL     1      -7.114  -0.167   5.580  0.00  0.00    +0.002 A 
ATOM     10  C   UNL     1      -6.910  -0.864   4.391  0.00  0.00    +0.002 A 
ATOM     11  C   UNL     1      -5.739  -0.751   3.707  0.00  0.00    +0.030 A 
ATOM     12  C   UNL     1      -4.717   0.081   4.202  0.00  0.00    +0.090 A 
ATOM     13  N   UNL     1      -3.561   0.199   3.537  0.00  0.00    -0.241 NA
ENDROOT
BRANCH   1  17
ATOM     14  C   UNL     1      -1.091   4.934   8.800  0.00  0.00    +0.121 A 
ATOM     15  C   UNL     1      -1.133   5.472   7.522  0.00  0.00    +0.047 A 
ATOM     16  C   UNL     1      -1.326   4.647   6.432  0.00  0.00    +0.030 A 
ATOM     17  C   UNL     1      -1.479   3.279   6.615  0.00  0.00    +0.050 A 
ATOM     18  C   UNL     1      -1.444   2.742   7.894  0.00  0.00    +0.030 A 
ATOM     19  C   UNL     1      -1.244   3.567   8.984  0.00  0.00    +0.047 A 
BRANCH  14  20
ATOM     20  O   UNL     1      -0.900   5.746   9.874  0.00  0.00    -0.492 OA
BRANCH  20  22
ATOM     21  C   UNL     1      -0.645   6.190  12.236  0.00  0.00    +0.048 C 
ATOM     22  C   UNL     1      -0.868   5.125  11.160  0.00  0.00    +0.225 C 
ENDBRANCH  20  22
ENDBRANCH  14  20
ENDBRANCH   1  17
BRANCH   3  23
ATOM     23  C   UNL     1      -0.575   0.877   2.369  0.00  0.00    +0.250 C 
ATOM     24  O   UNL     1       0.106  -0.132   2.412  0.00  0.00    -0.270 OA
ATOM     25  N   UNL     1      -0.698   1.558   1.213  0.00  0.00    -0.305 N 
ATOM     26  H   UNL     1      -1.241   2.362   1.179  0.00  0.00    +0.150 HD
BRANCH  25  27
ATOM     27  C   UNL     1      -0.013   1.086   0.008  0.00  0.00    +0.100 C 
ATOM     28  C   UNL     1       1.423   1.615  -0.003  0.00  0.00    +0.033 C 
BRANCH  27  29
ATOM     29  C   UNL     1      -0.742   1.585  -1.213  0.00  0.00    -0.027 A 
ATOM     30  C   UNL     1      -1.257   2.868  -1.234  0.00  0.00    +0.005 A 
ATOM     31  C   UNL     1      -1.922   3.327  -2.355  0.00  0.00    +0.000 A 
ATOM     32  C   UNL     1      -2.079   2.501  -3.452  0.00  0.00    +0.000 A 
ATOM     33  C   UNL     1      -1.568   1.216  -3.430  0.00  0.00    +0.000 A 
ATOM     34  C   UNL     1      -0.899   0.759  -2.310  0.00  0.00    +0.005 A 
ENDBRANCH  27  29
ENDBRANCH  25  27
ENDBRANCH   3  23
BRANCH   2  35
ATOM     35  N   UNL     1       0.485   2.806   4.476  0.00  0.00    -0.343 N 
ATOM     36  H   UNL     1       1.085   2.607   3.740  0.00  0.00    +0.144 HD
ATOM     37  H   UNL     1       0.765   3.414   5.178  0.00  0.00    +0.144 HD
ENDBRANCH   2  35
TORSDOF 7
