REMARK  Name = ZINC63698415
REMARK  10 active torsions:
REMARK  status: ('A' for Active; 'I' for Inactive)
REMARK    1  A    between atoms: C_1  and  C_2
REMARK    2  A    between atoms: C_5  and  C_35
REMARK    3  A    between atoms: C_6  and  S_8
REMARK    4  A    between atoms: S_8  and  N_11
REMARK    5  A    between atoms: C_15  and  C_17
REMARK    6  A    between atoms: C_17  and  N_18
REMARK    7  A    between atoms: C_19  and  C_21
REMARK    8  A    between atoms: N_23  and  C_24
REMARK    9  A    between atoms: C_24  and  C_25
REMARK   10  A    between atoms: C_25  and  C_26
REMARK                            x       y       z     vdW  Elec       q    Type
REMARK                         _______ _______ _______ _____ _____    ______ ____
ROOT
ATOM      1  N   UNL     1      -0.592  -4.873   0.656  0.00  0.00    -0.306 N 
ATOM      2  C   UNL     1      -0.315  -4.867  -0.662  0.00  0.00    +0.299 C 
ATOM      3  O   UNL     1      -1.181  -5.145  -1.466  0.00  0.00    -0.265 OA
ATOM      4  H   UNL     1       0.080  -4.587   1.295  0.00  0.00    +0.149 HD
ENDROOT
BRANCH   2   5
ATOM      5  C   UNL     1       1.059  -4.518  -1.136  0.00  0.00    +0.299 C 
ATOM      6  O   UNL     1       1.941  -4.300  -0.331  0.00  0.00    -0.265 OA
ATOM      7  N   UNL     1       1.319  -4.446  -2.456  0.00  0.00    -0.307 N 
ATOM      8  H   UNL     1       0.614  -4.620  -3.099  0.00  0.00    +0.149 HD
BRANCH   7   9
ATOM      9  C   UNL     1       2.666  -4.104  -2.920  0.00  0.00    +0.109 C 
BRANCH   9  10
ATOM     10  C   UNL     1       2.690  -4.090  -4.450  0.00  0.00    +0.052 C 
BRANCH  10  11
ATOM     11  C   UNL     1       4.075  -3.738  -4.927  0.00  0.00    -0.040 C 
ATOM     12  C   UNL     1       5.056  -4.599  -5.285  0.00  0.00    -0.001 A 
ATOM     13  C   UNL     1       5.123  -6.064  -5.333  0.00  0.00    +0.010 A 
ATOM     14  C   UNL     1       6.268  -6.655  -5.743  0.00  0.00    +0.001 A 
ATOM     15  C   UNL     1       7.390  -5.905  -6.121  0.00  0.00    +0.002 A 
ATOM     16  C   UNL     1       7.405  -4.555  -6.103  0.00  0.00    +0.026 A 
ATOM     17  C   UNL     1       6.254  -3.829  -5.690  0.00  0.00    +0.043 A 
ATOM     18  N   UNL     1       6.023  -2.543  -5.587  0.00  0.00    -0.380 N 
ATOM     19  C   UNL     1       4.649  -2.351  -5.110  0.00  0.00    +0.144 C 
ATOM     20  H   UNL     1       6.654  -1.837  -5.795  0.00  0.00    +0.160 HD
ENDBRANCH  10  11
ENDBRANCH   9  10
ENDBRANCH   7   9
ENDBRANCH   2   5
BRANCH   1  21
ATOM     21  C   UNL     1      -1.908  -5.313   1.127  0.00  0.00    +0.125 C 
BRANCH  21  26
ATOM     22  N   UNL     1      -2.122  -3.640   2.912  0.00  0.00    -0.172 NA
ATOM     23  C   UNL     1      -3.415  -3.381   3.572  0.00  0.00    +0.110 C 
ATOM     24  C   UNL     1      -3.798  -4.727   4.236  0.00  0.00    +0.019 C 
ATOM     25  C   UNL     1      -3.293  -5.749   3.183  0.00  0.00    +0.023 C 
ATOM     26  C   UNL     1      -2.015  -5.080   2.635  0.00  0.00    +0.097 C 
BRANCH  22  27
ATOM     27  S   UNL     1      -0.983  -2.498   2.539  0.00  0.00    +0.061 S 
ATOM     28  O   UNL     1      -1.497  -1.250   2.986  0.00  0.00    -0.153 OA
ATOM     29  O   UNL     1      -0.606  -2.726   1.188  0.00  0.00    -0.153 OA
BRANCH  27  35
ATOM     30  C   UNL     1       3.999  -3.995   3.042  0.00  0.00    +0.044 C 
ATOM     31  C   UNL     1       2.723  -3.531   3.696  0.00  0.00    -0.049 A 
ATOM     32  C   UNL     1       2.667  -3.373   5.068  0.00  0.00    +0.004 A 
ATOM     33  C   UNL     1       1.497  -2.948   5.668  0.00  0.00    +0.005 A 
ATOM     34  C   UNL     1       0.382  -2.681   4.896  0.00  0.00    -0.024 A 
ATOM     35  C   UNL     1       0.438  -2.838   3.524  0.00  0.00    +0.109 A 
ATOM     36  C   UNL     1       1.610  -3.259   2.923  0.00  0.00    +0.032 A 
ATOM     37  C   UNL     1      -0.894  -2.218   5.550  0.00  0.00    +0.046 C 
ENDBRANCH  27  35
ENDBRANCH  22  27
ENDBRANCH  21  26
ENDBRANCH   1  21
TORSDOF 8
