REMARK  Name = ZINC00914789
REMARK  8 active torsions:
REMARK  status: ('A' for Active; 'I' for Inactive)
REMARK    1  A    between atoms: C_1  and  C_2
REMARK    2  A    between atoms: C_5  and  C_33
REMARK    3  A    between atoms: C_9  and  C_14
REMARK    4  A    between atoms: C_14  and  N_15
REMARK    5  A    between atoms: N_15  and  C_16
REMARK    6  A    between atoms: N_15  and  S_23
REMARK    7  A    between atoms: C_16  and  C_17
REMARK    8  A    between atoms: S_23  and  C_26
REMARK                            x       y       z     vdW  Elec       q    Type
REMARK                         _______ _______ _______ _____ _____    ______ ____
ROOT
ATOM      1  N   UNL     1       0.344   0.180  -0.027  0.00  0.00    -0.170 NA
ENDROOT
BRANCH   1   2
ATOM      2  S   UNL     1       1.248  -0.677   1.064  0.00  0.00    +0.062 S 
ATOM      3  O   UNL     1       2.443   0.063   1.272  0.00  0.00    -0.153 OA
ATOM      4  O   UNL     1       0.375  -1.028   2.129  0.00  0.00    -0.153 OA
BRANCH   2   5
ATOM      5  C   UNL     1       1.719  -2.184   0.281  0.00  0.00    +0.119 A 
ATOM      6  C   UNL     1       3.029  -2.378  -0.113  0.00  0.00    +0.029 A 
ATOM      7  C   UNL     1       3.399  -3.560  -0.726  0.00  0.00    +0.002 A 
ATOM      8  C   UNL     1       2.457  -4.549  -0.946  0.00  0.00    +0.001 A 
ATOM      9  C   UNL     1       1.147  -4.355  -0.553  0.00  0.00    +0.017 A 
ATOM     10  C   UNL     1       0.778  -3.174   0.066  0.00  0.00    +0.044 A 
ATOM     11 BR   UNL     1      -1.014  -2.912   0.611  0.00  0.00    -0.048 Br
ENDBRANCH   2   5
ENDBRANCH   1   2
BRANCH   1  12
ATOM     12  C   UNL     1       1.000   1.103  -0.957  0.00  0.00    +0.150 C 
BRANCH  12  21
ATOM     13  C   UNL     1       4.274   4.103   1.763  0.00  0.00    +0.044 C 
ATOM     14  C   UNL     1       3.018   4.904   1.535  0.00  0.00    -0.041 A 
ATOM     15  C   UNL     1       2.917   6.176   2.021  0.00  0.00    +0.004 A 
ATOM     16  C   UNL     1       1.765   6.922   1.817  0.00  0.00    +0.005 A 
ATOM     17  C   UNL     1       0.699   6.394   1.120  0.00  0.00    -0.026 A 
ATOM     18  C   UNL     1       0.779   5.100   0.615  0.00  0.00    +0.052 A 
ATOM     19  C   UNL     1       1.950   4.347   0.824  0.00  0.00    +0.002 A 
ATOM     20  C   UNL     1       2.021   2.985   0.293  0.00  0.00    +0.020 A 
ATOM     21  C   UNL     1       0.957   2.500  -0.393  0.00  0.00    +0.033 A 
ATOM     22  C   UNL     1      -0.194   3.296  -0.575  0.00  0.00    +0.254 A 
ATOM     23  O   UNL     1      -1.141   2.840  -1.191  0.00  0.00    -0.268 OA
ATOM     24  N   UNL     1      -0.271   4.547  -0.086  0.00  0.00    -0.322 N 
ATOM     25  H   UNL     1      -1.102   5.083  -0.234  0.00  0.00    +0.169 HD
ATOM     26  C   UNL     1      -0.546   7.214   0.906  0.00  0.00    +0.046 C 
ENDBRANCH  12  21
ENDBRANCH   1  12
BRANCH   1  27
ATOM     27  C   UNL     1      -1.111   0.016  -0.062  0.00  0.00    +0.141 C 
BRANCH  27  28
ATOM     28  C   UNL     1      -1.508  -0.738  -1.333  0.00  0.00    +0.134 C 
ATOM     29  C   UNL     1      -3.038  -0.917  -1.379  0.00  0.00    +0.035 C 
ATOM     30  C   UNL     1      -3.461  -0.227  -2.699  0.00  0.00    +0.031 C 
ATOM     31  C   UNL     1      -2.135  -0.220  -3.501  0.00  0.00    +0.160 C 
ATOM     32  O   UNL     1      -1.132   0.024  -2.492  0.00  0.00    -0.375 OA
ENDBRANCH  27  28
ENDBRANCH   1  27
TORSDOF 6
