REMARK  Name = ZINC65032920
REMARK  8 active torsions:
REMARK  status: ('A' for Active; 'I' for Inactive)
REMARK    1  A    between atoms: C_1  and  C_2
REMARK    2  A    between atoms: C_2  and  C_3
REMARK    3  A    between atoms: C_3  and  N_4
REMARK    4  A    between atoms: C_8  and  S_14
REMARK    5  A    between atoms: S_14  and  N_17
REMARK    6  A    between atoms: C_23  and  C_25
REMARK    7  A    between atoms: C_25  and  C_26
REMARK    8  A    between atoms: C_26  and  C_27
REMARK                            x       y       z     vdW  Elec       q    Type
REMARK                         _______ _______ _______ _____ _____    ______ ____
ROOT
ATOM      1  N   UNL     1       0.185  -5.601  -5.334  0.00  0.00    -0.174 NA
ATOM      2  C   UNL     1       0.884  -4.684  -6.246  0.00  0.00    +0.128 C 
ATOM      3  C   UNL     1       2.154  -4.177  -5.553  0.00  0.00    +0.125 C 
ATOM      4  N   UNL     1       2.886  -5.331  -5.011  0.00  0.00    -0.299 N 
ATOM      5  C   UNL     1       2.187  -6.247  -4.099  0.00  0.00    +0.125 C 
ATOM      6  C   UNL     1       0.919  -6.752  -4.788  0.00  0.00    +0.128 C 
ATOM      7  C   UNL     1       4.174  -5.544  -5.344  0.00  0.00    +0.216 C 
ATOM      8  O   UNL     1       4.740  -4.781  -6.098  0.00  0.00    -0.276 OA
ENDROOT
BRANCH   1   9
ATOM      9  S   UNL     1      -1.398  -5.339  -4.925  0.00  0.00    +0.061 S 
ATOM     10  O   UNL     1      -1.929  -6.597  -4.532  0.00  0.00    -0.153 OA
ATOM     11  O   UNL     1      -1.965  -4.565  -5.973  0.00  0.00    -0.153 OA
BRANCH   9  16
ATOM     12  N   UNL     1      -1.413  -1.998   0.005  0.00  0.00    -0.302 N 
ATOM     13  C   UNL     1      -1.411  -2.677  -1.202  0.00  0.00    +0.059 A 
ATOM     14  C   UNL     1      -1.425  -2.129  -2.496  0.00  0.00    +0.029 A 
ATOM     15  C   UNL     1      -1.421  -2.940  -3.606  0.00  0.00    +0.030 A 
ATOM     16  C   UNL     1      -1.402  -4.320  -3.487  0.00  0.00    +0.107 A 
ATOM     17  C   UNL     1      -1.387  -4.888  -2.225  0.00  0.00    +0.045 A 
ATOM     18  C   UNL     1      -1.391  -4.077  -1.116  0.00  0.00    +0.043 A 
ATOM     19  S   UNL     1      -1.378  -4.374   0.635  0.00  0.00    -0.027 S 
ATOM     20  C   UNL     1      -1.393  -2.671   1.172  0.00  0.00    +0.292 A 
ATOM     21  O   UNL     1      -1.387  -2.230   2.306  0.00  0.00    -0.259 OA
BRANCH  12  22
ATOM     22  C   UNL     1      -1.433  -0.534   0.013  0.00  0.00    +0.126 C 
BRANCH  22  24
ATOM     23  C   UNL     1      -0.019   1.526   0.010  0.00  0.00    +0.005 C 
ATOM     24  C   UNL     1       0.002  -0.004   0.002  0.00  0.00    +0.018 C 
ENDBRANCH  22  24
ENDBRANCH  12  22
ENDBRANCH   9  16
ENDBRANCH   1   9
BRANCH   7  25
ATOM     25  C   UNL     1       4.912  -6.731  -4.780  0.00  0.00    +0.100 C 
BRANCH  25  26
ATOM     26  C   UNL     1       6.346  -6.741  -5.313  0.00  0.00    +0.042 C 
BRANCH  26  27
ATOM     27  C   UNL     1       7.083  -7.928  -4.749  0.00  0.00    -0.041 C 
ATOM     28  C   UNL     1       7.247  -9.136  -5.334  0.00  0.00    -0.001 A 
ATOM     29  C   UNL     1       6.804  -9.687  -6.621  0.00  0.00    +0.010 A 
ATOM     30  C   UNL     1       7.129 -10.961  -6.936  0.00  0.00    +0.001 A 
ATOM     31  C   UNL     1       7.876 -11.768  -6.067  0.00  0.00    +0.002 A 
ATOM     32  C   UNL     1       8.319 -11.333  -4.868  0.00  0.00    +0.026 A 
ATOM     33  C   UNL     1       8.035 -10.009  -4.434  0.00  0.00    +0.043 A 
ATOM     34  N   UNL     1       8.346  -9.365  -3.336  0.00  0.00    -0.380 N 
ATOM     35  C   UNL     1       7.795  -8.008  -3.417  0.00  0.00    +0.144 C 
ATOM     36  H   UNL     1       8.859  -9.724  -2.595  0.00  0.00    +0.160 HD
ENDBRANCH  26  27
ENDBRANCH  25  26
ENDBRANCH   7  25
TORSDOF 7
