REMARK  Name = ZINC08533425
REMARK  7 active torsions:
REMARK  status: ('A' for Active; 'I' for Inactive)
REMARK    1  A    between atoms: C_1  and  C_2
REMARK    2  A    between atoms: N_11  and  C_12
REMARK    3  A    between atoms: C_12  and  C_14
REMARK    4  A    between atoms: C_12  and  C_15
REMARK    5  A    between atoms: N_17  and  C_18
REMARK    6  A    between atoms: C_22  and  S_24
REMARK    7  A    between atoms: S_24  and  N_27
REMARK                            x       y       z     vdW  Elec       q    Type
REMARK                         _______ _______ _______ _____ _____    ______ ____
ROOT
ATOM      1  C   UNL     1      -2.143   1.058   1.279  0.00  0.00    +0.237 C 
ATOM      2  O   UNL     1      -3.075   1.833   1.301  0.00  0.00    -0.273 OA
ATOM      3  N   UNL     1      -2.371  -0.271   1.273  0.00  0.00    -0.284 N 
ATOM      4  H   UNL     1      -1.629  -0.890   1.188  0.00  0.00    +0.155 HD
ENDROOT
BRANCH   3   5
ATOM      5  C   UNL     1      -3.678  -0.756   1.388  0.00  0.00    +0.035 A 
ATOM      6  C   UNL     1      -4.732  -0.061   0.810  0.00  0.00    +0.023 A 
ATOM      7  C   UNL     1      -6.021  -0.543   0.926  0.00  0.00    +0.004 A 
ATOM      8  C   UNL     1      -6.263  -1.717   1.617  0.00  0.00    +0.028 A 
ATOM      9  C   UNL     1      -5.215  -2.411   2.193  0.00  0.00    +0.107 A 
ATOM     10  C   UNL     1      -3.923  -1.938   2.075  0.00  0.00    +0.051 A 
BRANCH   9  11
ATOM     11  S   UNL     1      -5.528  -3.907   3.071  0.00  0.00    +0.056 S 
ATOM     12  O   UNL     1      -4.450  -4.077   3.980  0.00  0.00    -0.153 OA
ATOM     13  O   UNL     1      -6.883  -3.851   3.497  0.00  0.00    -0.153 OA
BRANCH  11  14
ATOM     14  N   UNL     1      -5.427  -5.147   1.977  0.00  0.00    -0.204 NA
ATOM     15  H   UNL     1      -5.225  -4.958   1.048  0.00  0.00    +0.144 HD
ATOM     16  H   UNL     1      -5.569  -6.061   2.267  0.00  0.00    +0.144 HD
ENDBRANCH  11  14
ENDBRANCH   9  11
ENDBRANCH   3   5
BRANCH   1  17
ATOM     17  C   UNL     1      -0.729   1.579   1.260  0.00  0.00    +0.157 C 
ATOM     18  C   UNL     1      -0.022   1.089  -0.005  0.00  0.00    +0.038 C 
BRANCH  17  29
ATOM     19  C   UNL     1      -3.571   4.858   5.850  0.00  0.00    +0.044 C 
ATOM     20  C   UNL     1      -2.830   4.386   4.626  0.00  0.00    -0.050 A 
ATOM     21  C   UNL     1      -2.078   3.227   4.676  0.00  0.00    +0.005 A 
ATOM     22  C   UNL     1      -1.398   2.799   3.555  0.00  0.00    +0.023 A 
ATOM     23  C   UNL     1      -1.464   3.529   2.367  0.00  0.00    +0.034 A 
ATOM     24  C   UNL     1      -2.223   4.685   2.322  0.00  0.00    -0.026 A 
ATOM     25  C   UNL     1      -2.901   5.111   3.453  0.00  0.00    +0.008 A 
ATOM     26  C   UNL     1      -2.349   5.510   1.065  0.00  0.00    +0.038 C 
ATOM     27  C   UNL     1      -1.254   5.108   0.074  0.00  0.00    +0.024 C 
ATOM     28  C   UNL     1      -1.229   3.577  -0.006  0.00  0.00    +0.106 C 
ATOM     29  N   UNL     1      -0.749   3.048   1.272  0.00  0.00    -0.318 N 
ENDBRANCH  17  29
ENDBRANCH   1  17
TORSDOF 5
