REMARK  Name = ZINC02449797
REMARK  10 active torsions:
REMARK  status: ('A' for Active; 'I' for Inactive)
REMARK    1  A    between atoms: C_1  and  C_2
REMARK    2  A    between atoms: C_2  and  O_3
REMARK    3  A    between atoms: O_3  and  C_4
REMARK    4  A    between atoms: C_9  and  C_10
REMARK    5  A    between atoms: C_27  and  C_29
REMARK    6  A    between atoms: C_32  and  O_37
REMARK    7  A    between atoms: C_33  and  O_35
REMARK    8  A    between atoms: O_35  and  C_36
REMARK    9  A    between atoms: O_37  and  C_38
REMARK   10  A    between atoms: C_38  and  C_39
REMARK                            x       y       z     vdW  Elec       q    Type
REMARK                         _______ _______ _______ _____ _____    ______ ____
ROOT
ATOM      1  C   UNL     1       2.052  -2.069   3.384  0.00  0.00    +0.238 C 
ATOM      2  C   UNL     1       1.009  -1.528   4.317  0.00  0.00    +0.027 C 
ATOM      3  C   UNL     1       0.703  -2.180   5.458  0.00  0.00    +0.083 C 
ATOM      4  C   UNL     1       1.443  -3.433   5.750  0.00  0.00    +0.042 A 
ATOM      5  C   UNL     1       0.993  -4.337   6.703  0.00  0.00    +0.013 A 
ATOM      6  C   UNL     1       1.712  -5.492   6.941  0.00  0.00    +0.001 A 
ATOM      7  C   UNL     1       2.874  -5.748   6.234  0.00  0.00    +0.004 A 
ATOM      8  C   UNL     1       3.330  -4.853   5.283  0.00  0.00    +0.046 A 
ATOM      9  C   UNL     1       2.620  -3.691   5.035  0.00  0.00    +0.131 A 
ATOM     10  O   UNL     1       3.043  -2.793   4.115  0.00  0.00    -0.479 OA
ATOM     11  N   UNL     1      -0.242  -1.711   6.310  0.00  0.00    -0.213 NA
ATOM     12  C   UNL     1      -0.927  -0.607   6.122  0.00  0.00    +0.237 C 
ATOM     13  N   UNL     1      -1.886  -0.004   6.858  0.00  0.00    -0.205 NA
ATOM     14  C   UNL     1      -2.285   1.092   6.274  0.00  0.00    +0.203 C 
ATOM     15  N   UNL     1      -1.598   1.262   5.110  0.00  0.00    -0.251 N 
ATOM     16  N   UNL     1      -0.726   0.177   5.003  0.00  0.00    -0.208 N 
ATOM     17  C   UNL     1       0.271  -0.243   4.011  0.00  0.00    +0.159 C 
ATOM     18  H   UNL     1      -1.696   1.993   4.480  0.00  0.00    +0.171 HD
ENDROOT
BRANCH   1  24
ATOM     19  C   UNL     1       1.898  -3.080   1.094  0.00  0.00    +0.127 A 
ATOM     20  C   UNL     1       1.297  -3.933   0.179  0.00  0.00    +0.046 A 
ATOM     21  C   UNL     1       0.201  -4.685   0.554  0.00  0.00    +0.004 A 
ATOM     22  C   UNL     1      -0.298  -4.589   1.840  0.00  0.00    +0.001 A 
ATOM     23  C   UNL     1       0.298  -3.740   2.754  0.00  0.00    +0.011 A 
ATOM     24  C   UNL     1       1.399  -2.990   2.385  0.00  0.00    +0.039 A 
BRANCH  19  25
ATOM     25  O   UNL     1       2.977  -2.339   0.728  0.00  0.00    -0.492 OA
BRANCH  25  27
ATOM     26  C   UNL     1       4.646  -1.577  -0.844  0.00  0.00    +0.048 C 
ATOM     27  C   UNL     1       3.393  -2.429  -0.636  0.00  0.00    +0.225 C 
ENDBRANCH  25  27
ENDBRANCH  19  25
ENDBRANCH   1  24
BRANCH  17  28
ATOM     28  C   UNL     1      -0.424  -0.405   2.684  0.00  0.00    -0.017 A 
ATOM     29  C   UNL     1      -1.606  -1.117   2.607  0.00  0.00    +0.009 A 
ATOM     30  C   UNL     1      -2.248  -1.268   1.392  0.00  0.00    +0.050 A 
ATOM     31  C   UNL     1      -1.707  -0.704   0.248  0.00  0.00    +0.162 A 
ATOM     32  C   UNL     1      -0.518   0.014   0.326  0.00  0.00    +0.162 A 
ATOM     33  C   UNL     1       0.118   0.166   1.548  0.00  0.00    +0.055 A 
BRANCH  32  34
ATOM     34  O   UNL     1       0.017   0.570  -0.794  0.00  0.00    -0.491 OA
ATOM     35  C   UNL     1       1.275   1.233  -0.652  0.00  0.00    +0.277 C 
ENDBRANCH  32  34
BRANCH  31  36
ATOM     36  O   UNL     1      -2.337  -0.851  -0.948  0.00  0.00    -0.489 OA
BRANCH  36  37
ATOM     37  C   UNL     1      -3.553  -1.601  -0.953  0.00  0.00    +0.226 C 
ATOM     38  C   UNL     1      -4.112  -1.659  -2.376  0.00  0.00    +0.048 C 
ENDBRANCH  36  37
ENDBRANCH  31  36
ENDBRANCH  17  28
TORSDOF 7
