REMARK  Name = ZINC50817532
REMARK  4 active torsions:
REMARK  status: ('A' for Active; 'I' for Inactive)
REMARK    1  A    between atoms: C_1  and  N_2
REMARK    2  A    between atoms: N_2  and  C_3
REMARK    3  A    between atoms: C_4  and  C_8
REMARK    4  A    between atoms: C_8  and  N_9
REMARK                            x       y       z     vdW  Elec       q    Type
REMARK                         _______ _______ _______ _____ _____    ______ ____
ROOT
ATOM      1  N   UNL     1       1.208  -3.329  -0.803  0.00  0.00    -0.289 NA
ATOM      2  C   UNL     1       2.352  -4.048  -0.221  0.00  0.00    +0.113 C 
ATOM      3  C   UNL     1       3.404  -4.295  -1.305  0.00  0.00    +0.175 C 
ATOM      4  O   UNL     1       2.808  -5.007  -2.395  0.00  0.00    -0.374 OA
ATOM      5  C   UNL     1       1.698  -4.324  -2.981  0.00  0.00    +0.135 C 
ATOM      6  C   UNL     1       0.626  -4.099  -1.911  0.00  0.00    +0.086 C 
ATOM      7  C   UNL     1      -0.546  -3.334  -2.525  0.00  0.00    +0.021 C 
ATOM      8  C   UNL     1      -1.142  -4.157  -3.669  0.00  0.00    +0.002 C 
ATOM      9  C   UNL     1      -0.073  -4.405  -4.735  0.00  0.00    +0.003 C 
ATOM     10  C   UNL     1       1.106  -5.160  -4.116  0.00  0.00    +0.033 C 
ENDROOT
BRANCH   1  11
ATOM     11  C   UNL     1       0.196  -3.034   0.221  0.00  0.00    +0.144 C 
BRANCH  11  13
ATOM     12  C   UNL     1       0.624  -0.698   1.037  0.00  0.00    +0.110 A 
ATOM     13  C   UNL     1       0.756  -2.046   1.211  0.00  0.00    +0.107 A 
ATOM     14  N   UNL     1       1.399  -2.434   2.290  0.00  0.00    -0.143 NA
ATOM     15  N   UNL     1       1.857  -1.543   3.103  0.00  0.00    -0.108 NA
ATOM     16  S   UNL     1       1.414  -0.092   2.392  0.00  0.00    +0.052 S 
BRANCH  12  18
ATOM     17  C   UNL     1      -0.018   1.461   0.010  0.00  0.00    +0.126 C 
ATOM     18  N   UNL     1       0.002  -0.004   0.002  0.00  0.00    -0.339 N 
ATOM     19  H   UNL     1      -0.418  -0.491  -0.724  0.00  0.00    +0.146 HD
ENDBRANCH  12  18
ENDBRANCH  11  13
ENDBRANCH   1  11
TORSDOF 3
