REMARK  Name = ZINC67481887
REMARK  6 active torsions:
REMARK  status: ('A' for Active; 'I' for Inactive)
REMARK    1  A    between atoms: C_1  and  C_2
REMARK    2  A    between atoms: N_4  and  C_5
REMARK    3  A    between atoms: N_14  and  C_15
REMARK    4  A    between atoms: C_15  and  C_16
REMARK    5  A    between atoms: N_21  and  C_22
REMARK    6  A    between atoms: C_22  and  C_23
REMARK                            x       y       z     vdW  Elec       q    Type
REMARK                         _______ _______ _______ _____ _____    ______ ____
ROOT
ATOM      1  C   UNL     1       0.018  -2.137  -1.174  0.00  0.00    +0.090 C 
ATOM      2  C   UNL     1      -0.597  -2.649  -2.478  0.00  0.00    +0.025 C 
ATOM      3  C   UNL     1      -0.606  -4.179  -2.474  0.00  0.00    +0.021 C 
ATOM      4  C   UNL     1       0.834  -4.694  -2.384  0.00  0.00    +0.109 C 
ATOM      5  N   UNL     1       1.479  -4.091  -1.209  0.00  0.00    -0.284 N 
ATOM      6  C   UNL     1       1.465  -2.629  -1.068  0.00  0.00    +0.131 C 
ATOM      7  C   UNL     1       2.072  -4.865  -0.279  0.00  0.00    +0.302 C 
ATOM      8  O   UNL     1       2.681  -4.352   0.640  0.00  0.00    -0.253 OA
ATOM      9  N   UNL     1       1.990  -6.207  -0.366  0.00  0.00    -0.301 N 
ATOM     10  H   UNL     1       1.568  -6.618  -1.137  0.00  0.00    +0.150 HD
ENDROOT
BRANCH   1  14
ATOM     11  C   UNL     1      -0.021   1.502   0.015  0.00  0.00    +0.109 C 
ATOM     12  C   UNL     1       0.000  -0.005   0.006  0.00  0.00    +0.210 C 
ATOM     13  O   UNL     1       0.020  -0.617   1.052  0.00  0.00    -0.276 OA
ATOM     14  N   UNL     1      -0.003  -0.672  -1.165  0.00  0.00    -0.311 N 
ATOM     15  H   UNL     1      -0.018  -0.183  -2.002  0.00  0.00    +0.149 HD
ENDBRANCH   1  14
BRANCH   9  16
ATOM     16  C   UNL     1       2.538  -7.046   0.702  0.00  0.00    +0.090 C 
BRANCH  16  17
ATOM     17  C   UNL     1       2.316  -8.520   0.358  0.00  0.00    -0.051 C 
ATOM     18  C   UNL     1       3.035  -9.415   1.390  0.00  0.00    -0.016 C 
ATOM     19  C   UNL     1       3.587 -10.576   0.522  0.00  0.00    -0.020 C 
ATOM     20  C   UNL     1       3.958  -9.838  -0.789  0.00  0.00    -0.078 C 
ATOM     21  N   UNL     1       2.896  -8.820  -0.964  0.00  0.00    +0.383 N 
ATOM     22  H   UNL     1       3.291  -7.980  -1.359  0.00  0.00    -0.081 HD
BRANCH  21  23
ATOM     23  C   UNL     1       1.851  -9.340  -1.856  0.00  0.00    -0.075 C 
BRANCH  23  24
ATOM     24  C   UNL     1       2.428  -9.531  -3.260  0.00  0.00    -0.028 C 
ATOM     25  C   UNL     1       2.816  -8.170  -3.842  0.00  0.00    +0.002 C 
ATOM     26  C   UNL     1       3.393  -8.361  -5.246  0.00  0.00    +0.000 C 
ATOM     27  C   UNL     1       2.343  -9.019  -6.144  0.00  0.00    +0.000 C 
ATOM     28  C   UNL     1       1.954 -10.380  -5.562  0.00  0.00    +0.000 C 
ATOM     29  C   UNL     1       1.377 -10.188  -4.158  0.00  0.00    +0.002 C 
ENDBRANCH  23  24
ENDBRANCH  21  23
ENDBRANCH  16  17
ENDBRANCH   9  16
TORSDOF 5
