REMARK  Name = ZINC12486641
REMARK  11 active torsions:
REMARK  status: ('A' for Active; 'I' for Inactive)
REMARK    1  A    between atoms: C_1  and  O_2
REMARK    2  A    between atoms: O_2  and  C_3
REMARK    3  A    between atoms: C_8  and  N_9
REMARK    4  A    between atoms: N_9  and  C_10
REMARK    5  A    between atoms: C_10  and  C_12
REMARK    6  A    between atoms: C_10  and  C_18
REMARK    7  A    between atoms: N_20  and  C_21
REMARK    8  A    between atoms: C_21  and  C_22
REMARK    9  A    between atoms: C_28  and  C_30
REMARK   10  A    between atoms: C_30  and  N_31
REMARK   11  A    between atoms: C_32  and  C_34
REMARK                            x       y       z     vdW  Elec       q    Type
REMARK                         _______ _______ _______ _____ _____    ______ ____
ROOT
ATOM      1  N   UNL     1       2.609   3.918  -0.094  0.00  0.00    -0.251 N 
ATOM      2  C   UNL     1       3.210   4.490  -1.156  0.00  0.00    +0.238 C 
ATOM      3  O   UNL     1       4.024   5.373  -0.990  0.00  0.00    -0.273 OA
ENDROOT
BRANCH   1   9
ATOM      4  C   UNL     1       2.069   1.563  -0.251  0.00  0.00    +0.142 A 
ATOM      5  C   UNL     1       1.135   0.558  -0.441  0.00  0.00    +0.049 A 
ATOM      6  C   UNL     1      -0.190   0.879  -0.671  0.00  0.00    +0.024 A 
ATOM      7  C   UNL     1      -0.590   2.203  -0.700  0.00  0.00    +0.043 A 
ATOM      8  C   UNL     1       0.337   3.212  -0.511  0.00  0.00    +0.047 A 
ATOM      9  C   UNL     1       1.669   2.897  -0.286  0.00  0.00    +0.081 A 
ATOM     10 CL   UNL     1      -2.256   2.599  -0.981  0.00  0.00    -0.083 Cl
BRANCH   4  12
ATOM     11  C   UNL     1       3.712  -0.139  -0.010  0.00  0.00    +0.277 C 
ATOM     12  O   UNL     1       3.374   1.249  -0.032  0.00  0.00    -0.493 OA
ENDBRANCH   4  12
ENDBRANCH   1   9
BRANCH   1  13
ATOM     13  C   UNL     1       2.940   4.364   1.262  0.00  0.00    +0.197 C 
BRANCH  13  14
ATOM     14  C   UNL     1       3.344   3.176   2.097  0.00  0.00    -0.018 A 
ATOM     15  C   UNL     1       2.416   2.200   2.406  0.00  0.00    +0.006 A 
ATOM     16  C   UNL     1       2.788   1.108   3.168  0.00  0.00    +0.000 A 
ATOM     17  C   UNL     1       4.087   0.997   3.629  0.00  0.00    +0.000 A 
ATOM     18  C   UNL     1       5.014   1.976   3.323  0.00  0.00    +0.000 A 
ATOM     19  C   UNL     1       4.643   3.065   2.557  0.00  0.00    +0.006 A 
ENDBRANCH  13  14
BRANCH  13  20
ATOM     20  C   UNL     1       1.736   5.026   1.881  0.00  0.00    +0.239 C 
ATOM     21  O   UNL     1       0.703   5.116   1.251  0.00  0.00    -0.273 OA
ATOM     22  N   UNL     1       1.806   5.517   3.134  0.00  0.00    -0.311 N 
ATOM     23  H   UNL     1       2.632   5.445   3.637  0.00  0.00    +0.149 HD
BRANCH  22  24
ATOM     24  C   UNL     1       0.635   6.160   3.735  0.00  0.00    +0.135 C 
BRANCH  24  25
ATOM     25  C   UNL     1       0.981   6.626   5.151  0.00  0.00    +0.135 C 
ATOM     26  C   UNL     1      -0.245   7.305   5.793  0.00  0.00    +0.035 C 
ATOM     27  C   UNL     1      -0.516   6.470   7.069  0.00  0.00    +0.031 C 
ATOM     28  C   UNL     1       0.853   5.784   7.305  0.00  0.00    +0.160 C 
ATOM     29  O   UNL     1       1.319   5.494   5.969  0.00  0.00    -0.375 OA
ENDBRANCH  24  25
ENDBRANCH  22  24
ENDBRANCH  13  20
ENDBRANCH   1  13
BRANCH   2  30
ATOM     30  C   UNL     1       2.870   4.031  -2.551  0.00  0.00    +0.201 C 
BRANCH  30  31
ATOM     31  N   UNL     1       3.650   4.802  -3.522  0.00  0.00    -0.300 N 
ATOM     32  C   UNL     1       3.510   4.562  -4.841  0.00  0.00    +0.280 C 
ATOM     33  O   UNL     1       2.735   3.706  -5.225  0.00  0.00    -0.267 OA
ATOM     34  H   UNL     1       4.268   5.484  -3.216  0.00  0.00    +0.150 HD
BRANCH  32  35
ATOM     35  C   UNL     1       4.292   5.334  -5.813  0.00  0.00    +0.189 A 
ATOM     36  C   UNL     1       4.246   5.194  -7.171  0.00  0.00    +0.054 A 
ATOM     37  C   UNL     1       5.150   6.127  -7.703  0.00  0.00    +0.042 A 
ATOM     38  C   UNL     1       5.700   6.788  -6.660  0.00  0.00    +0.196 A 
ATOM     39  O   UNL     1       5.176   6.310  -5.524  0.00  0.00    -0.458 OA
ENDBRANCH  32  35
ENDBRANCH  30  31
ENDBRANCH   2  30
TORSDOF 10
