REMARK  Name = ZINC63328782
REMARK  7 active torsions:
REMARK  status: ('A' for Active; 'I' for Inactive)
REMARK    1  A    between atoms: C_1  and  O_2
REMARK    2  A    between atoms: O_2  and  C_3
REMARK    3  A    between atoms: C_9  and  C_13
REMARK    4  A    between atoms: N_15  and  C_16
REMARK    5  A    between atoms: C_16  and  C_17
REMARK    6  A    between atoms: C_17  and  C_18
REMARK    7  A    between atoms: C_18  and  N_20
REMARK                            x       y       z     vdW  Elec       q    Type
REMARK                         _______ _______ _______ _____ _____    ______ ____
ROOT
ATOM      1  C   UNL     1      -0.539  -5.231   1.274  0.00  0.00    +0.239 C 
ATOM      2  O   UNL     1      -0.986  -5.225   2.401  0.00  0.00    -0.273 OA
ATOM      3  N   UNL     1      -1.137  -5.967   0.316  0.00  0.00    -0.313 N 
ATOM      4  H   UNL     1      -0.780  -5.972  -0.586  0.00  0.00    +0.149 HD
ENDROOT
BRANCH   1  11
ATOM      5  C   UNL     1       0.684  -0.664   1.074  0.00  0.00    +0.129 A 
ATOM      6  C   UNL     1       1.262   0.058   2.072  0.00  0.00    +0.046 A 
ATOM      7  C   UNL     1       1.911  -0.562   3.143  0.00  0.00    +0.006 A 
ATOM      8  C   UNL     1       2.008  -1.907   3.261  0.00  0.00    +0.026 A 
ATOM      9  C   UNL     1       1.442  -2.759   2.279  0.00  0.00    +0.047 A 
ATOM     10  N   UNL     1       1.406  -4.067   2.173  0.00  0.00    -0.370 N 
ATOM     11  C   UNL     1       0.684  -4.415   0.944  0.00  0.00    +0.190 C 
ATOM     12  C   UNL     1       0.282  -3.101   0.313  0.00  0.00    +0.020 C 
ATOM     13  C   UNL     1       0.743  -2.134   1.134  0.00  0.00    +0.038 A 
ATOM     14  H   UNL     1       1.793  -4.698   2.801  0.00  0.00    +0.161 HD
BRANCH   5  16
ATOM     15  C   UNL     1       0.050   1.388   0.063  0.00  0.00    +0.277 C 
ATOM     16  O   UNL     1       0.061  -0.040   0.045  0.00  0.00    -0.494 OA
ENDBRANCH   5  16
ENDBRANCH   1  11
BRANCH   3  17
ATOM     17  C   UNL     1      -2.327  -6.760   0.637  0.00  0.00    +0.113 C 
BRANCH  17  18
ATOM     18  C   UNL     1      -2.804  -7.495  -0.618  0.00  0.00    +0.116 C 
BRANCH  18  19
ATOM     19  C   UNL     1      -4.027  -8.310  -0.288  0.00  0.00    +0.240 C 
ATOM     20  O   UNL     1      -4.475  -8.304   0.843  0.00  0.00    -0.274 OA
BRANCH  19  21
ATOM     21  N   UNL     1      -4.616  -9.036  -1.232  0.00  0.00    -0.157 NA
ATOM     22  C   UNL     1      -5.633  -9.836  -0.919  0.00  0.00    +0.164 A 
ATOM     23  N   UNL     1      -6.264  -9.952   0.277  0.00  0.00    -0.335 N 
ATOM     24  H   UNL     1      -5.981  -9.409   1.030  0.00  0.00    +0.168 HD
ATOM     25  C   UNL     1      -7.309 -10.844   0.420  0.00  0.00    +0.055 A 
ATOM     26  C   UNL     1      -8.090 -11.120   1.551  0.00  0.00    +0.027 A 
ATOM     27  C   UNL     1      -9.098 -12.054   1.495  0.00  0.00    +0.002 A 
ATOM     28  C   UNL     1      -9.371 -12.746   0.327  0.00  0.00    +0.001 A 
ATOM     29  C   UNL     1      -8.615 -12.492  -0.804  0.00  0.00    +0.017 A 
ATOM     30  C   UNL     1      -7.607 -11.559  -0.750  0.00  0.00    +0.039 A 
ATOM     31  S   UNL     1      -6.430 -10.928  -1.917  0.00  0.00    -0.052 S 
ENDBRANCH  19  21
ENDBRANCH  18  19
ENDBRANCH  17  18
ENDBRANCH   3  17
TORSDOF 6
