REMARK  Name = ZINC11037591
REMARK  11 active torsions:
REMARK  status: ('A' for Active; 'I' for Inactive)
REMARK    1  A    between atoms: C_1  and  C_2
REMARK    2  A    between atoms: C_2  and  C_3
REMARK    3  A    between atoms: C_3  and  C_4
REMARK    4  A    between atoms: C_4  and  N_5
REMARK    5  A    between atoms: C_6  and  N_28
REMARK    6  A    between atoms: C_7  and  N_14
REMARK    7  A    between atoms: N_14  and  C_15
REMARK    8  A    between atoms: N_14  and  C_16
REMARK    9  A    between atoms: C_16  and  C_17
REMARK   10  A    between atoms: C_17  and  S_18
REMARK   11  A    between atoms: S_18  and  C_21
REMARK                            x       y       z     vdW  Elec       q    Type
REMARK                         _______ _______ _______ _____ _____    ______ ____
ROOT
ATOM      1  N   UNL     1      -0.007  -0.168   4.380  0.00  0.00    -0.280 N 
ATOM      2  C   UNL     1      -0.670   0.256   3.251  0.00  0.00    +0.127 A 
ATOM      3  C   UNL     1      -0.042   1.109   2.384  0.00  0.00    +0.133 A 
ATOM      4  C   UNL     1       1.271   1.525   2.669  0.00  0.00    +0.277 A 
ATOM      5  O   UNL     1       1.854   2.280   1.909  0.00  0.00    -0.266 OA
ATOM      6  N   UNL     1       1.879   1.089   3.789  0.00  0.00    -0.273 N 
ATOM      7  H   UNL     1       2.809   1.391   3.998  0.00  0.00    +0.173 HD
ATOM      8  C   UNL     1       1.247   0.250   4.630  0.00  0.00    +0.331 A 
ATOM      9  O   UNL     1       1.817  -0.135   5.633  0.00  0.00    -0.246 OA
ENDROOT
BRANCH   2  10
ATOM     10  N   UNL     1      -1.953  -0.172   2.996  0.00  0.00    -0.343 N 
ATOM     11  H   UNL     1      -2.416   0.130   2.199  0.00  0.00    +0.144 HD
ATOM     12  H   UNL     1      -2.394  -0.777   3.613  0.00  0.00    +0.144 HD
ENDBRANCH   2  10
BRANCH   3  13
ATOM     13  N   UNL     1      -0.700   1.560   1.217  0.00  0.00    -0.325 N 
ATOM     14  C   UNL     1      -0.013   1.086   0.008  0.00  0.00    +0.129 C 
BRANCH  13  15
ATOM     15  C   UNL     1      -0.822   3.023   1.213  0.00  0.00    +0.128 C 
BRANCH  15  16
ATOM     16  C   UNL     1      -1.748   3.455   0.075  0.00  0.00    +0.190 C 
BRANCH  16  17
ATOM     17  S   UNL     1      -1.899   5.263   0.070  0.00  0.00    -0.002 S 
ATOM     18  O   UNL     1      -2.600   5.699   1.227  0.00  0.00    -0.169 OA
ATOM     19  O   UNL     1      -0.660   5.857  -0.291  0.00  0.00    -0.169 OA
BRANCH  17  20
ATOM     20  C   UNL     1      -2.980   5.624  -1.273  0.00  0.00    +0.088 A 
ATOM     21  C   UNL     1      -2.463   5.848  -2.535  0.00  0.00    +0.028 A 
ATOM     22  C   UNL     1      -3.311   6.127  -3.591  0.00  0.00    +0.017 A 
ATOM     23  C   UNL     1      -4.676   6.192  -3.382  0.00  0.00    +0.018 A 
ATOM     24  C   UNL     1      -5.193   5.973  -2.118  0.00  0.00    +0.017 A 
ATOM     25  C   UNL     1      -4.345   5.689  -1.064  0.00  0.00    +0.028 A 
ATOM     26 BR   UNL     1      -5.836   6.580  -4.824  0.00  0.00    -0.050 Br
ENDBRANCH  17  20
ENDBRANCH  16  17
ENDBRANCH  15  16
ENDBRANCH  13  15
ENDBRANCH   3  13
BRANCH   1  27
ATOM     27  C   UNL     1      -0.671  -1.081   5.314  0.00  0.00    +0.128 C 
BRANCH  27  28
ATOM     28  C   UNL     1      -0.379  -2.527   4.909  0.00  0.00    +0.021 C 
BRANCH  28  30
ATOM     29  C   UNL     1      -0.780  -4.926   5.479  0.00  0.00    +0.004 C 
ATOM     30  C   UNL     1      -1.072  -3.480   5.885  0.00  0.00    -0.002 C 
ENDBRANCH  28  30
ENDBRANCH  27  28
ENDBRANCH   1  27
TORSDOF 9
