REMARK  Name = ZINC12135374
REMARK  9 active torsions:
REMARK  status: ('A' for Active; 'I' for Inactive)
REMARK    1  A    between atoms: C_1  and  O_2
REMARK    2  A    between atoms: O_2  and  C_3
REMARK    3  A    between atoms: C_8  and  C_9
REMARK    4  A    between atoms: C_20  and  C_21
REMARK    5  A    between atoms: C_20  and  N_66
REMARK    6  A    between atoms: C_21  and  N_22
REMARK    7  A    between atoms: C_23  and  C_25
REMARK    8  A    between atoms: C_25  and  C_26
REMARK    9  A    between atoms: C_26  and  N_27
REMARK                            x       y       z     vdW  Elec       q    Type
REMARK                         _______ _______ _______ _____ _____    ______ ____
ROOT
ATOM      1  C   UNL     1      -0.059   5.351   0.028  0.00  0.00    +0.191 C 
ATOM      2  C   UNL     1      -0.234   5.853  -1.389  0.00  0.00    -0.028 C 
ATOM      3  C   UNL     1       0.839   8.025  -1.137  0.00  0.00    -0.039 C 
ATOM      4  C   UNL     1       0.906   8.183   0.370  0.00  0.00    -0.022 A 
ATOM      5  C   UNL     1       0.802   9.435   0.941  0.00  0.00    +0.005 A 
ATOM      6  C   UNL     1       0.915   9.573   2.313  0.00  0.00    +0.000 A 
ATOM      7  C   UNL     1       1.131   8.462   3.107  0.00  0.00    +0.004 A 
ATOM      8  C   UNL     1       1.223   7.207   2.536  0.00  0.00    +0.046 A 
ATOM      9  C   UNL     1       1.101   7.067   1.161  0.00  0.00    +0.123 A 
ATOM     10  O   UNL     1       1.167   5.833   0.590  0.00  0.00    -0.486 OA
ATOM     11  N   UNL     1      -0.423   7.318  -1.463  0.00  0.00    +0.386 N 
ATOM     12  H   UNL     1      -1.140   7.593  -0.781  0.00  0.00    -0.081 HD
ENDROOT
BRANCH   1  18
ATOM     13  C   UNL     1      -1.236   3.137   0.029  0.00  0.00    +0.127 A 
ATOM     14  C   UNL     1      -1.218   1.750   0.017  0.00  0.00    +0.046 A 
ATOM     15  C   UNL     1      -0.013   1.076   0.008  0.00  0.00    +0.004 A 
ATOM     16  C   UNL     1       1.176   1.783   0.000  0.00  0.00    +0.001 A 
ATOM     17  C   UNL     1       1.161   3.165   0.007  0.00  0.00    +0.011 A 
ATOM     18  C   UNL     1      -0.043   3.844   0.021  0.00  0.00    +0.032 A 
BRANCH  13  20
ATOM     19  C   UNL     1      -3.610   3.009   0.051  0.00  0.00    +0.277 C 
ATOM     20  O   UNL     1      -2.421   3.802   0.043  0.00  0.00    -0.495 OA
ENDBRANCH  13  20
ENDBRANCH   1  18
BRANCH  11  21
ATOM     21  C   UNL     1      -0.878   7.696  -2.810  0.00  0.00    -0.059 C 
BRANCH  21  22
ATOM     22  C   UNL     1      -1.314   9.162  -2.780  0.00  0.00    +0.085 C 
BRANCH  22  23
ATOM     23  N   UNL     1      -1.799   9.554  -4.106  0.00  0.00    -0.317 N 
ATOM     24  C   UNL     1      -2.238  10.810  -4.318  0.00  0.00    +0.215 C 
ATOM     25  O   UNL     1      -2.232  11.616  -3.411  0.00  0.00    -0.276 OA
ATOM     26  H   UNL     1      -1.804   8.910  -4.831  0.00  0.00    +0.149 HD
BRANCH  24  27
ATOM     27  C   UNL     1      -2.738  11.214  -5.681  0.00  0.00    +0.117 C 
BRANCH  27  28
ATOM     28  C   UNL     1      -3.174  12.681  -5.651  0.00  0.00    +0.136 C 
BRANCH  28  29
ATOM     29  N   UNL     1      -3.659  13.073  -6.976  0.00  0.00    -0.292 N 
ATOM     30  C   UNL     1      -4.974  12.975  -7.425  0.00  0.00    +0.070 A 
ATOM     31  C   UNL     1      -6.148  12.523  -6.840  0.00  0.00    +0.028 A 
ATOM     32  C   UNL     1      -7.328  12.552  -7.556  0.00  0.00    +0.002 A 
ATOM     33  C   UNL     1      -7.345  13.029  -8.856  0.00  0.00    +0.002 A 
ATOM     34  C   UNL     1      -6.181  13.481  -9.447  0.00  0.00    +0.028 A 
ATOM     35  C   UNL     1      -4.991  13.456  -8.735  0.00  0.00    +0.067 A 
ATOM     36  N   UNL     1      -3.686  13.831  -9.043  0.00  0.00    -0.306 N 
ATOM     37  H   UNL     1      -3.386  14.204  -9.887  0.00  0.00    +0.170 HD
ATOM     38  C   UNL     1      -2.912  13.595  -7.966  0.00  0.00    +0.328 A 
ATOM     39  O   UNL     1      -1.717  13.817  -7.900  0.00  0.00    -0.247 OA
ENDBRANCH  28  29
ENDBRANCH  27  28
ENDBRANCH  24  27
ENDBRANCH  22  23
ENDBRANCH  21  22
ENDBRANCH  11  21
TORSDOF 8
