REMARK  Name = ZINC36378619
REMARK  8 active torsions:
REMARK  status: ('A' for Active; 'I' for Inactive)
REMARK    1  A    between atoms: C_1  and  C_2
REMARK    2  A    between atoms: C_9  and  C_27
REMARK    3  A    between atoms: C_10  and  O_21
REMARK    4  A    between atoms: C_13  and  C_20
REMARK    5  A    between atoms: C_17  and  O_19
REMARK    6  A    between atoms: O_21  and  C_22
REMARK    7  A    between atoms: C_22  and  C_24
REMARK    8  A    between atoms: C_24  and  C_26
REMARK                            x       y       z     vdW  Elec       q    Type
REMARK                         _______ _______ _______ _____ _____    ______ ____
ROOT
ATOM      1  C   UNL     1      -0.019   1.526   0.010  0.00  0.00    +0.008 C 
ATOM      2  C   UNL     1       0.002  -0.004   0.002  0.00  0.00    -0.001 C 
ATOM      3  C   UNL     1       0.682  -0.478  -1.266  0.00  0.00    +0.006 C 
ATOM      4  C   UNL     1       0.679  -1.984  -1.414  0.00  0.00    +0.035 C 
ATOM      5  C   UNL     1       1.040  -2.703  -0.121  0.00  0.00    +0.152 C 
ATOM      6  C   UNL     1       0.990  -1.983   1.212  0.00  0.00    +0.111 C 
ATOM      7  C   UNL     1       0.703  -0.489   1.245  0.00  0.00    +0.043 C 
ATOM      8  C   UNL     1      -0.082  -0.152   2.521  0.00  0.00    +0.219 C 
ATOM      9  C   UNL     1       0.681  -0.783   3.662  0.00  0.00    +0.051 C 
ATOM     10  C   UNL     1       1.090  -0.243   4.796  0.00  0.00    +0.042 C 
ATOM     11  C   UNL     1       1.855  -1.248   5.548  0.00  0.00    +0.338 C 
ATOM     12  O   UNL     1       2.306  -1.093   6.665  0.00  0.00    -0.245 OA
ATOM     13  O   UNL     1       1.980  -2.369   4.806  0.00  0.00    -0.425 OA
ATOM     14  C   UNL     1       1.132  -2.232   3.669  0.00  0.00    +0.243 C 
ATOM     15  C   UNL     1       1.875  -2.493   2.366  0.00  0.00    +0.122 C 
ATOM     16  C   UNL     1       0.818   1.170   5.244  0.00  0.00    +0.051 C 
ATOM     17  C   UNL     1       2.040   0.247   1.341  0.00  0.00    +0.018 C 
ATOM     18  O   UNL     1      -0.045  -2.875   0.807  0.00  0.00    -0.364 OA
ENDROOT
BRANCH  14  19
ATOM     19  O   UNL     1       0.004  -3.101   3.786  0.00  0.00    -0.352 OA
ATOM     20  H   UNL     1      -0.520  -2.960   4.586  0.00  0.00    +0.214 HD
ENDBRANCH  14  19
BRANCH   8  21
ATOM     21  O   UNL     1      -0.150   1.265   2.695  0.00  0.00    -0.453 OA
BRANCH  21  22
ATOM     22  C   UNL     1      -1.236   1.752   3.327  0.00  0.00    +0.335 C 
ATOM     23  O   UNL     1      -2.103   0.995   3.718  0.00  0.00    -0.245 OA
BRANCH  22  24
ATOM     24  C   UNL     1      -1.374   3.200   3.542  0.00  0.00    +0.026 C 
ATOM     25  C   UNL     1      -2.447   3.681   4.165  0.00  0.00    +0.019 C 
ATOM     26  C   UNL     1      -0.299   4.139   3.057  0.00  0.00    +0.050 C 
ENDBRANCH  22  24
ENDBRANCH  21  22
ENDBRANCH   8  21
TORSDOF 4
