REMARK  Name = ZINC36637284
REMARK  12 active torsions:
REMARK  status: ('A' for Active; 'I' for Inactive)
REMARK    1  A    between atoms: C_1  and  C_2
REMARK    2  A    between atoms: C_2  and  N_3
REMARK    3  A    between atoms: N_3  and  C_4
REMARK    4  A    between atoms: N_3  and  S_10
REMARK    5  A    between atoms: S_10  and  C_13
REMARK    6  A    between atoms: C_16  and  C_19
REMARK    7  A    between atoms: N_21  and  C_22
REMARK    8  A    between atoms: C_22  and  C_23
REMARK    9  A    between atoms: C_23  and  N_24
REMARK   10  A    between atoms: N_24  and  C_25
REMARK   11  A    between atoms: N_24  and  C_26
REMARK   12  A    between atoms: C_32  and  C_36
REMARK                            x       y       z     vdW  Elec       q    Type
REMARK                         _______ _______ _______ _____ _____    ______ ____
ROOT
ATOM      1  C   UNL     1      -4.802   3.039   4.257  0.00  0.00    +0.252 C 
ATOM      2  O   UNL     1      -4.433   3.705   5.204  0.00  0.00    -0.270 OA
ATOM      3  N   UNL     1      -6.014   3.259   3.709  0.00  0.00    -0.248 N 
ATOM      4  C   UNL     1      -6.775   4.338   4.126  0.00  0.00    +0.168 A 
ATOM      5  N   UNL     1      -7.968   4.709   3.720  0.00  0.00    -0.224 NA
ATOM      6  C   UNL     1      -8.599   5.794   4.220  0.00  0.00    +0.080 A 
ATOM      7  C   UNL     1      -9.873   6.300   3.873  0.00  0.00    +0.029 A 
ATOM      8  C   UNL     1     -10.370   7.422   4.482  0.00  0.00    +0.005 A 
ATOM      9  C   UNL     1      -9.648   8.100   5.454  0.00  0.00    -0.049 A 
ATOM     10  C   UNL     1      -8.399   7.634   5.817  0.00  0.00    +0.020 A 
ATOM     11  C   UNL     1      -7.892   6.510   5.213  0.00  0.00    +0.041 A 
ATOM     12  S   UNL     1      -6.389   5.574   5.358  0.00  0.00    -0.052 S 
ATOM     13  C   UNL     1     -10.220   9.332   6.105  0.00  0.00    +0.044 C 
ENDROOT
BRANCH   1  17
ATOM     14  C   UNL     1      -2.276   0.014   2.674  0.00  0.00    +0.109 A 
ATOM     15  C   UNL     1      -1.721   1.149   3.238  0.00  0.00    +0.029 A 
ATOM     16  C   UNL     1      -2.536   2.136   3.753  0.00  0.00    +0.015 A 
ATOM     17  C   UNL     1      -3.923   1.986   3.706  0.00  0.00    +0.037 A 
ATOM     18  C   UNL     1      -4.476   0.838   3.135  0.00  0.00    +0.015 A 
ATOM     19  C   UNL     1      -3.650  -0.138   2.618  0.00  0.00    +0.029 A 
BRANCH  14  20
ATOM     20  S   UNL     1      -1.227  -1.241   2.017  0.00  0.00    +0.075 S 
ATOM     21  O   UNL     1      -2.027  -2.407   1.879  0.00  0.00    -0.150 OA
ATOM     22  O   UNL     1      -0.036  -1.222   2.792  0.00  0.00    -0.150 OA
BRANCH  20  23
ATOM     23  N   UNL     1      -0.804  -0.773   0.486  0.00  0.00    -0.203 N 
BRANCH  23  24
ATOM     24  C   UNL     1      -1.625  -1.099  -0.596  0.00  0.00    +0.051 A 
ATOM     25  C   UNL     1      -2.984  -1.308  -0.400  0.00  0.00    +0.025 A 
ATOM     26  C   UNL     1      -3.793  -1.630  -1.472  0.00  0.00    +0.002 A 
ATOM     27  C   UNL     1      -3.251  -1.745  -2.739  0.00  0.00    +0.000 A 
ATOM     28  C   UNL     1      -1.898  -1.538  -2.938  0.00  0.00    +0.002 A 
ATOM     29  C   UNL     1      -1.084  -1.211  -1.871  0.00  0.00    +0.025 A 
ENDBRANCH  23  24
BRANCH  23  31
ATOM     30  C   UNL     1       0.117   1.479   0.243  0.00  0.00    +0.026 C 
ATOM     31  C   UNL     1       0.432  -0.018   0.267  0.00  0.00    +0.128 C 
ENDBRANCH  23  31
ENDBRANCH  20  23
ENDBRANCH  14  20
ENDBRANCH   1  17
BRANCH   3  32
ATOM     32  C   UNL     1      -6.525   2.358   2.674  0.00  0.00    +0.097 C 
BRANCH  32  33
ATOM     33  C   UNL     1      -7.508   1.367   3.300  0.00  0.00    -0.060 C 
BRANCH  33  34
ATOM     34  N   UNL     1      -8.127   0.557   2.242  0.00  0.00    +0.377 N 
ATOM     35  C   UNL     1      -7.103  -0.281   1.604  0.00  0.00    -0.097 C 
ATOM     36  C   UNL     1      -9.166  -0.300   2.827  0.00  0.00    -0.097 C 
ATOM     37  H   UNL     1      -8.542   1.166   1.552  0.00  0.00    -0.083 HD
ENDBRANCH  33  34
ENDBRANCH  32  33
ENDBRANCH   3  32
TORSDOF 8
