REMARK  Name = ZINC63374739
REMARK  8 active torsions:
REMARK  status: ('A' for Active; 'I' for Inactive)
REMARK    1  A    between atoms: C_1  and  C_2
REMARK    2  A    between atoms: C_2  and  C_3
REMARK    3  A    between atoms: C_6  and  C_9
REMARK    4  A    between atoms: N_16  and  C_31
REMARK    5  A    between atoms: C_19  and  C_30
REMARK    6  A    between atoms: C_31  and  C_32
REMARK    7  A    between atoms: C_32  and  C_33
REMARK    8  A    between atoms: C_33  and  C_34
REMARK                            x       y       z     vdW  Elec       q    Type
REMARK                         _______ _______ _______ _____ _____    ______ ____
ROOT
ATOM      1  C   UNL     1      -5.393  -2.052   0.039  0.00  0.00    +0.065 C 
ATOM      2  C   UNL     1      -6.332  -1.009  -0.572  0.00  0.00    +0.121 C 
ATOM      3  N   UNL     1      -6.324  -1.003  -2.025  0.00  0.00    -0.283 N 
ATOM      4  C   UNL     1      -6.887   0.086  -2.647  0.00  0.00    +0.234 C 
ATOM      5  O   UNL     1      -7.244   1.061  -2.020  0.00  0.00    -0.274 OA
ATOM      6  C   UNL     1      -7.039   0.011  -4.151  0.00  0.00    +0.203 C 
ATOM      7  N   UNL     1      -7.547  -1.328  -4.505  0.00  0.00    -0.291 N 
ATOM      8  C   UNL     1      -6.932  -2.392  -3.906  0.00  0.00    +0.242 C 
ATOM      9  O   UNL     1      -7.239  -3.540  -4.148  0.00  0.00    -0.273 OA
ATOM     10  C   UNL     1      -5.845  -2.038  -2.924  0.00  0.00    +0.135 C 
ATOM     11  C   UNL     1      -5.172  -3.224  -2.307  0.00  0.00    +0.139 C 
ATOM     12  C   UNL     1      -5.514  -3.283  -0.824  0.00  0.00    -0.027 C 
ATOM     13  C   UNL     1      -5.905  -4.523  -0.573  0.00  0.00    -0.000 A 
ATOM     14  C   UNL     1      -6.262  -5.209   0.680  0.00  0.00    +0.010 A 
ATOM     15  C   UNL     1      -6.648  -6.507   0.564  0.00  0.00    +0.001 A 
ATOM     16  C   UNL     1      -6.714  -7.185  -0.657  0.00  0.00    +0.002 A 
ATOM     17  C   UNL     1      -6.396  -6.636  -1.857  0.00  0.00    +0.026 A 
ATOM     18  C   UNL     1      -5.966  -5.277  -1.863  0.00  0.00    +0.043 A 
ATOM     19  N   UNL     1      -5.596  -4.516  -2.845  0.00  0.00    -0.375 N 
ATOM     20  C   UNL     1      -4.755  -1.368  -3.763  0.00  0.00    +0.044 C 
ATOM     21  H   UNL     1      -5.596  -4.770  -3.781  0.00  0.00    +0.160 HD
ENDROOT
BRANCH   1  25
ATOM     22  C   UNL     1      -1.370  -0.617  -0.007  0.00  0.00    -0.048 A 
ATOM     23  C   UNL     1      -1.790  -1.463   1.002  0.00  0.00    +0.004 A 
ATOM     24  C   UNL     1      -3.092  -1.927   1.017  0.00  0.00    +0.004 A 
ATOM     25  C   UNL     1      -3.974  -1.545   0.024  0.00  0.00    -0.039 A 
ATOM     26  C   UNL     1      -3.554  -0.698  -0.985  0.00  0.00    +0.004 A 
ATOM     27  C   UNL     1      -2.253  -0.230  -0.998  0.00  0.00    +0.004 A 
BRANCH  22  29
ATOM     28  C   UNL     1       0.134   1.197   0.767  0.00  0.00    +0.009 C 
ATOM     29  C   UNL     1       0.050  -0.110  -0.023  0.00  0.00    +0.032 C 
ENDBRANCH  22  29
ENDBRANCH   1  25
BRANCH   7  30
ATOM     30  C   UNL     1      -8.653  -1.508  -5.449  0.00  0.00    +0.108 C 
BRANCH  30  31
ATOM     31  C   UNL     1      -8.097  -1.640  -6.868  0.00  0.00    +0.024 C 
BRANCH  31  32
ATOM     32  C   UNL     1      -9.252  -1.828  -7.853  0.00  0.00    +0.036 C 
BRANCH  32  33
ATOM     33  C   UNL     1      -8.703  -1.958  -9.251  0.00  0.00    -0.047 A 
ATOM     34  C   UNL     1      -8.521  -0.831 -10.030  0.00  0.00    +0.003 A 
ATOM     35  C   UNL     1      -8.018  -0.950 -11.312  0.00  0.00    +0.000 A 
ATOM     36  C   UNL     1      -7.697  -2.197 -11.815  0.00  0.00    +0.000 A 
ATOM     37  C   UNL     1      -7.879  -3.324 -11.036  0.00  0.00    +0.000 A 
ATOM     38  C   UNL     1      -8.378  -3.204  -9.752  0.00  0.00    +0.003 A 
ENDBRANCH  32  33
ENDBRANCH  31  32
ENDBRANCH  30  31
ENDBRANCH   7  30
TORSDOF 6
