REMARK  Name = ZINC64085504
REMARK  9 active torsions:
REMARK  status: ('A' for Active; 'I' for Inactive)
REMARK    1  A    between atoms: C_4  and  C_7
REMARK    2  A    between atoms: C_10  and  C_12
REMARK    3  A    between atoms: N_14  and  C_15
REMARK    4  A    between atoms: C_15  and  C_16
REMARK    5  A    between atoms: C_16  and  C_17
REMARK    6  A    between atoms: C_17  and  C_18
REMARK    7  A    between atoms: N_20  and  C_28
REMARK    8  A    between atoms: C_21  and  N_27
REMARK    9  A    between atoms: C_23  and  C_25
REMARK                            x       y       z     vdW  Elec       q    Type
REMARK                         _______ _______ _______ _____ _____    ______ ____
ROOT
ATOM      1  C   UNL     1      10.784  -5.429  -0.136  0.00  0.00    +0.055 C 
ENDROOT
BRANCH   1   2
ATOM      2  C   UNL     1      12.239  -5.037  -0.142  0.00  0.00    +0.057 C 
ATOM      3  N   UNL     1      12.675  -3.845  -0.128  0.00  0.00    -0.186 NA
ATOM      4  N   UNL     1      14.064  -3.737  -0.138  0.00  0.00    -0.206 N 
ATOM      5  C   UNL     1      14.642  -5.090  -0.164  0.00  0.00    +0.185 C 
ATOM      6  C   UNL     1      13.400  -6.005  -0.161  0.00  0.00    +0.174 C 
BRANCH   4   7
ATOM      7  C   UNL     1      14.788  -2.542  -0.127  0.00  0.00    +0.053 A 
ATOM      8  C   UNL     1      16.177  -2.570  -0.145  0.00  0.00    +0.028 A 
ATOM      9  C   UNL     1      16.890  -1.387  -0.134  0.00  0.00    +0.040 A 
ATOM     10  C   UNL     1      16.223  -0.175  -0.104  0.00  0.00    +0.124 A 
ATOM     11  C   UNL     1      14.838  -0.144  -0.085  0.00  0.00    +0.040 A 
ATOM     12  C   UNL     1      14.120  -1.324  -0.102  0.00  0.00    +0.028 A 
ATOM     13  F   UNL     1      16.923   0.981  -0.092  0.00  0.00    -0.205 F 
ENDBRANCH   4   7
BRANCH   5  14
ATOM     14  N   UNL     1      15.461  -5.327   1.032  0.00  0.00    -0.310 NA
ATOM     15  H   UNL     1      16.233  -4.679   1.076  0.00  0.00    +0.120 HD
ATOM     16  H   UNL     1      14.901  -5.278   1.870  0.00  0.00    +0.120 HD
ENDBRANCH   5  14
BRANCH   6  17
ATOM     17  C   UNL     1      13.384  -6.855   1.041  0.00  0.00    +0.075 C 
ATOM     18  N   UNL     1      13.372  -7.511   1.969  0.00  0.00    -0.196 NA
ENDBRANCH   6  17
ENDBRANCH   1   2
BRANCH   1  19
ATOM     19  C   UNL     1       9.916  -4.169  -0.117  0.00  0.00    +0.025 C 
BRANCH  19  20
ATOM     20  C   UNL     1       8.439  -4.567  -0.110  0.00  0.00    +0.105 C 
BRANCH  20  23
ATOM     21  C   UNL     1       6.265  -3.467  -0.083  0.00  0.00    +0.260 C 
ATOM     22  O   UNL     1       5.742  -4.565  -0.090  0.00  0.00    -0.269 OA
ATOM     23  N   UNL     1       7.609  -3.360  -0.092  0.00  0.00    -0.310 N 
ATOM     24  H   UNL     1       8.026  -2.484  -0.086  0.00  0.00    +0.149 HD
BRANCH  21  28
ATOM     25  C   UNL     1       3.689  -0.676  -0.037  0.00  0.00    +0.077 C 
ATOM     26  N   UNL     1       4.894  -0.155  -0.041  0.00  0.00    -0.153 NA
ATOM     27  N   UNL     1       5.836  -1.015  -0.056  0.00  0.00    -0.148 NA
ATOM     28  C   UNL     1       5.433  -2.258  -0.065  0.00  0.00    +0.131 C 
ATOM     29  C   UNL     1       3.916  -2.179  -0.048  0.00  0.00    +0.120 C 
BRANCH  25  33
ATOM     30  C   UNL     1      -0.017   1.380   0.010  0.00  0.00    +0.000 A 
ATOM     31  C   UNL     1       1.168   2.097   0.002  0.00  0.00    +0.001 A 
ATOM     32  C   UNL     1       2.377   1.436  -0.013  0.00  0.00    +0.010 A 
ATOM     33  C   UNL     1       2.406   0.036  -0.021  0.00  0.00    -0.002 A 
ATOM     34  C   UNL     1       1.203  -0.681  -0.013  0.00  0.00    +0.010 A 
ATOM     35  C   UNL     1       0.002  -0.004   0.002  0.00  0.00    +0.001 A 
ENDBRANCH  25  33
ENDBRANCH  21  28
ENDBRANCH  20  23
ENDBRANCH  19  20
ENDBRANCH   1  19
TORSDOF 9
