REMARK  Name = ZINC08767948
REMARK  8 active torsions:
REMARK  status: ('A' for Active; 'I' for Inactive)
REMARK    1  A    between atoms: C_1  and  C_2
REMARK    2  A    between atoms: C_2  and  C_36
REMARK    3  A    between atoms: C_6  and  N_28
REMARK    4  A    between atoms: C_12  and  S_16
REMARK    5  A    between atoms: S_16  and  C_17
REMARK    6  A    between atoms: C_17  and  C_18
REMARK    7  A    between atoms: N_20  and  C_21
REMARK    8  A    between atoms: C_21  and  C_22
REMARK                            x       y       z     vdW  Elec       q    Type
REMARK                         _______ _______ _______ _____ _____    ______ ____
ROOT
ATOM      1  C   UNL     1       0.332  -6.847  11.986  0.00  0.00    +0.041 C 
ATOM      2  C   UNL     1      -0.015  -7.735  10.789  0.00  0.00    +0.068 C 
ATOM      3  C   UNL     1       0.316  -7.000   9.488  0.00  0.00    +0.070 C 
ATOM      4  C   UNL     1       0.249  -7.961   8.332  0.00  0.00    -0.024 A 
ATOM      5  C   UNL     1       0.268  -9.309   8.512  0.00  0.00    +0.020 A 
ATOM      6  C   UNL     1       0.212 -10.161   7.404  0.00  0.00    +0.105 A 
ATOM      7  C   UNL     1       0.114  -8.365   5.970  0.00  0.00    +0.089 A 
ATOM      8  C   UNL     1       0.168  -7.433   7.020  0.00  0.00    +0.035 A 
ATOM      9  C   UNL     1       0.135  -6.013   6.625  0.00  0.00    +0.092 A 
ATOM     10  C   UNL     1       0.051  -5.762   5.250  0.00  0.00    +0.072 A 
ATOM     11  S   UNL     1       0.019  -7.368   4.503  0.00  0.00    -0.066 S 
ATOM     12  C   UNL     1       0.013  -4.462   4.764  0.00  0.00    +0.115 A 
ATOM     13  N   UNL     1       0.065  -3.458   5.639  0.00  0.00    -0.228 NA
ATOM     14  C   UNL     1       0.137  -3.712   6.933  0.00  0.00    +0.223 A 
ATOM     15  N   UNL     1       0.176  -4.924   7.427  0.00  0.00    -0.234 NA
ATOM     16  C   UNL     1       0.345  -9.917   9.889  0.00  0.00    +0.199 C 
ATOM     17  O   UNL     1       0.762  -8.937  10.839  0.00  0.00    -0.369 OA
ATOM     18  C   UNL     1      -1.505  -8.084  10.819  0.00  0.00    +0.041 C 
ATOM     19  N   UNL     1       0.134  -9.712   6.119  0.00  0.00    -0.337 N 
ATOM     20  H   UNL     1       0.093 -10.352   5.318  0.00  0.00    +0.168 HD
ENDROOT
BRANCH   6  21
ATOM     21  N   UNL     1       0.236 -11.536   7.590  0.00  0.00    -0.312 N 
ATOM     22  C   UNL     1       1.413 -12.135   6.945  0.00  0.00    +0.134 C 
ATOM     23  C   UNL     1       1.432 -13.640   7.224  0.00  0.00    +0.178 C 
ATOM     24  O   UNL     1       0.209 -14.220   6.764  0.00  0.00    -0.377 OA
ATOM     25  C   UNL     1      -0.959 -13.661   7.373  0.00  0.00    +0.178 C 
ATOM     26  C   UNL     1      -1.002 -12.156   7.095  0.00  0.00    +0.134 C 
ENDBRANCH   6  21
BRANCH  12  27
ATOM     27  S   UNL     1      -0.093  -4.148   3.033  0.00  0.00    -0.095 S 
BRANCH  27  28
ATOM     28  C   UNL     1      -0.105  -2.338   3.042  0.00  0.00    +0.171 C 
BRANCH  28  29
ATOM     29  C   UNL     1      -0.194  -1.829   1.627  0.00  0.00    +0.224 C 
ATOM     30  O   UNL     1      -0.244  -2.613   0.703  0.00  0.00    -0.275 OA
ATOM     31  N   UNL     1      -0.217  -0.503   1.388  0.00  0.00    -0.311 N 
ATOM     32  H   UNL     1      -0.177   0.124   2.127  0.00  0.00    +0.149 HD
BRANCH  31  33
ATOM     33  C   UNL     1      -0.303  -0.008   0.011  0.00  0.00    +0.139 C 
BRANCH  33  34
ATOM     34  C   UNL     1      -0.313   1.499   0.019  0.00  0.00    -0.030 A 
ATOM     35  C   UNL     1      -1.513   2.182   0.089  0.00  0.00    +0.005 A 
ATOM     36  C   UNL     1      -1.521   3.564   0.101  0.00  0.00    +0.000 A 
ATOM     37  C   UNL     1      -0.331   4.263   0.033  0.00  0.00    +0.000 A 
ATOM     38  C   UNL     1       0.869   3.580  -0.043  0.00  0.00    +0.000 A 
ATOM     39  C   UNL     1       0.877   2.198  -0.049  0.00  0.00    +0.005 A 
ENDBRANCH  33  34
ENDBRANCH  31  33
ENDBRANCH  28  29
ENDBRANCH  27  28
ENDBRANCH  12  27
TORSDOF 6
