REMARK  Name = ZINC67459780
REMARK  7 active torsions:
REMARK  status: ('A' for Active; 'I' for Inactive)
REMARK    1  A    between atoms: C_3  and  N_26
REMARK    2  A    between atoms: C_6  and  C_7
REMARK    3  A    between atoms: C_7  and  N_8
REMARK    4  A    between atoms: N_11  and  C_12
REMARK    5  A    between atoms: C_12  and  C_13
REMARK    6  A    between atoms: N_18  and  C_19
REMARK    7  A    between atoms: C_19  and  C_20
REMARK                            x       y       z     vdW  Elec       q    Type
REMARK                         _______ _______ _______ _____ _____    ______ ____
ROOT
ATOM      1  N   UNL     1      -1.719  -1.028  -1.368  0.00  0.00    -0.295 N 
ATOM      2  C   UNL     1      -2.856  -1.712  -1.607  0.00  0.00    +0.300 C 
ATOM      3  O   UNL     1      -3.523  -2.126  -0.679  0.00  0.00    -0.253 OA
ATOM      4  N   UNL     1      -3.252  -1.938  -2.876  0.00  0.00    -0.301 N 
ATOM      5  H   UNL     1      -1.187  -0.699  -2.109  0.00  0.00    +0.151 HD
ATOM      6  H   UNL     1      -2.720  -1.608  -3.616  0.00  0.00    +0.150 HD
ENDROOT
BRANCH   1   7
ATOM      7  C   UNL     1      -1.288  -0.783   0.010  0.00  0.00    +0.142 C 
BRANCH   7  13
ATOM      8  C   UNL     1      -0.017   1.383   0.010  0.00  0.00    +0.010 A 
ATOM      9  C   UNL     1       1.191   2.060   0.002  0.00  0.00    +0.048 A 
ATOM     10  C   UNL     1       2.374   1.332  -0.013  0.00  0.00    +0.156 A 
ATOM     11  N   UNL     1       2.350   0.009  -0.020  0.00  0.00    -0.236 NA
ATOM     12  C   UNL     1       1.216  -0.664  -0.013  0.00  0.00    +0.118 A 
ATOM     13  C   UNL     1       0.002  -0.004   0.002  0.00  0.00    -0.012 A 
BRANCH  10  14
ATOM     14  N   UNL     1       3.601   2.003  -0.022  0.00  0.00    -0.202 N 
ATOM     15  C   UNL     1       4.827   1.445  -0.042  0.00  0.00    +0.226 A 
ATOM     16  N   UNL     1       5.711   2.409  -0.044  0.00  0.00    -0.222 NA
ATOM     17  C   UNL     1       5.092   3.590  -0.025  0.00  0.00    +0.245 A 
ATOM     18  N   UNL     1       3.800   3.393  -0.017  0.00  0.00    -0.152 NA
ENDBRANCH  10  14
ENDBRANCH   7  13
ENDBRANCH   1   7
BRANCH   4  19
ATOM     19  C   UNL     1      -4.488  -2.681  -3.136  0.00  0.00    +0.090 C 
BRANCH  19  20
ATOM     20  C   UNL     1      -4.706  -2.796  -4.646  0.00  0.00    -0.051 C 
ATOM     21  C   UNL     1      -5.909  -3.718  -4.934  0.00  0.00    -0.016 C 
ATOM     22  C   UNL     1      -5.453  -4.505  -6.190  0.00  0.00    -0.020 C 
ATOM     23  C   UNL     1      -3.937  -4.676  -5.920  0.00  0.00    -0.078 C 
ATOM     24  N   UNL     1      -3.522  -3.406  -5.278  0.00  0.00    +0.383 N 
ATOM     25  H   UNL     1      -2.820  -3.592  -4.577  0.00  0.00    -0.081 HD
BRANCH  24  26
ATOM     26  C   UNL     1      -2.976  -2.492  -6.291  0.00  0.00    -0.075 C 
BRANCH  26  27
ATOM     27  C   UNL     1      -1.679  -3.073  -6.856  0.00  0.00    -0.028 C 
ATOM     28  C   UNL     1      -0.622  -3.131  -5.752  0.00  0.00    +0.002 C 
ATOM     29  C   UNL     1       0.676  -3.712  -6.317  0.00  0.00    +0.000 C 
ATOM     30  C   UNL     1       1.178  -2.824  -7.457  0.00  0.00    +0.000 C 
ATOM     31  C   UNL     1       0.121  -2.767  -8.562  0.00  0.00    +0.000 C 
ATOM     32  C   UNL     1      -1.177  -2.186  -7.997  0.00  0.00    +0.002 C 
ENDBRANCH  26  27
ENDBRANCH  24  26
ENDBRANCH  19  20
ENDBRANCH   4  19
TORSDOF 7
