REMARK  Name = ZINC03287706
REMARK  9 active torsions:
REMARK  status: ('A' for Active; 'I' for Inactive)
REMARK    1  A    between atoms: C_1  and  O_2
REMARK    2  A    between atoms: O_2  and  C_3
REMARK    3  A    between atoms: C_3  and  C_5
REMARK    4  A    between atoms: C_9  and  N_10
REMARK    5  A    between atoms: C_11  and  C_13
REMARK    6  A    between atoms: C_14  and  N_33
REMARK    7  A    between atoms: C_15  and  C_25
REMARK    8  A    between atoms: C_16  and  N_18
REMARK    9  A    between atoms: N_18  and  C_19
REMARK                            x       y       z     vdW  Elec       q    Type
REMARK                         _______ _______ _______ _____ _____    ______ ____
ROOT
ATOM      1  C   UNL     1       1.677   2.028  -0.598  0.00  0.00    +0.097 A 
ATOM      2  C   UNL     1       2.234   0.767  -0.426  0.00  0.00    +0.058 A 
ATOM      3  C   UNL     1       1.353  -0.290  -0.211  0.00  0.00    +0.087 A 
ATOM      4  C   UNL     1      -0.015  -0.004  -0.185  0.00  0.00    +0.084 A 
ATOM      5  S   UNL     1      -0.070   1.706  -0.455  0.00  0.00    -0.066 S 
ENDROOT
BRANCH   3   6
ATOM      6  C   UNL     1       1.844  -1.658  -0.018  0.00  0.00    +0.251 C 
ATOM      7  O   UNL     1       1.994  -2.391  -0.978  0.00  0.00    -0.270 OA
ATOM      8  N   UNL     1       2.130  -2.102   1.221  0.00  0.00    -0.297 N 
ATOM      9  C   UNL     1       1.960  -1.226   2.389  0.00  0.00    +0.108 C 
ATOM     10  C   UNL     1       1.071  -1.946   3.414  0.00  0.00    +0.019 C 
ATOM     11  C   UNL     1       1.678  -3.313   3.737  0.00  0.00    +0.003 C 
ATOM     12  C   UNL     1       1.731  -4.163   2.466  0.00  0.00    +0.019 C 
ATOM     13  C   UNL     1       2.623  -3.471   1.431  0.00  0.00    +0.108 C 
ENDBRANCH   3   6
BRANCH   1  15
ATOM     14  N   UNL     1       1.611   4.387  -0.970  0.00  0.00    -0.275 N 
ATOM     15  C   UNL     1       2.331   3.256  -0.828  0.00  0.00    +0.257 C 
ATOM     16  O   UNL     1       3.547   3.296  -0.898  0.00  0.00    -0.269 OA
ATOM     17  H   UNL     1       0.643   4.356  -0.914  0.00  0.00    +0.156 HD
BRANCH  14  22
ATOM     18  C   UNL     1       1.692   6.848  -1.371  0.00  0.00    +0.091 A 
ATOM     19  C   UNL     1       2.603   7.971  -1.592  0.00  0.00    -0.021 A 
ATOM     20  C   UNL     1       3.909   7.652  -1.610  0.00  0.00    -0.004 A 
ATOM     21  S   UNL     1       3.951   5.898  -1.334  0.00  0.00    -0.077 S 
ATOM     22  C   UNL     1       2.253   5.593  -1.195  0.00  0.00    +0.087 A 
ATOM     23  C   UNL     1       4.780   8.856  -1.845  0.00  0.00    +0.043 C 
ATOM     24  C   UNL     1       3.865  10.063  -1.544  0.00  0.00    +0.010 C 
ATOM     25  C   UNL     1       2.468   9.476  -1.827  0.00  0.00    +0.037 C 
BRANCH  18  26
ATOM     26  C   UNL     1       0.241   7.043  -1.333  0.00  0.00    +0.342 C 
ATOM     27  O   UNL     1      -0.311   7.292  -0.278  0.00  0.00    -0.245 OA
BRANCH  26  29
ATOM     28  C   UNL     1      -1.915   7.151  -2.354  0.00  0.00    +0.280 C 
ATOM     29  O   UNL     1      -0.483   6.946  -2.467  0.00  0.00    -0.464 OA
ENDBRANCH  26  29
ENDBRANCH  18  26
ENDBRANCH  14  22
ENDBRANCH   1  15
BRANCH   2  30
ATOM     30  N   UNL     1       3.607   0.570  -0.465  0.00  0.00    -0.356 N 
ATOM     31  H   UNL     1       3.972  -0.320  -0.342  0.00  0.00    +0.142 HD
ATOM     32  H   UNL     1       4.200   1.321  -0.616  0.00  0.00    +0.142 HD
ENDBRANCH   2  30
BRANCH   4  33
ATOM     33  N   UNL     1      -1.065  -0.872   0.007  0.00  0.00    -0.308 N 
ATOM     34  H   UNL     1      -0.902  -1.827   0.059  0.00  0.00    +0.153 HD
BRANCH  33  35
ATOM     35  C   UNL     1      -2.367  -0.378   0.128  0.00  0.00    +0.032 A 
ATOM     36  C   UNL     1      -2.594   0.844   0.748  0.00  0.00    +0.023 A 
ATOM     37  C   UNL     1      -3.881   1.331   0.862  0.00  0.00    +0.002 A 
ATOM     38  C   UNL     1      -4.945   0.599   0.368  0.00  0.00    +0.000 A 
ATOM     39  C   UNL     1      -4.724  -0.620  -0.246  0.00  0.00    +0.002 A 
ATOM     40  C   UNL     1      -3.439  -1.111  -0.367  0.00  0.00    +0.023 A 
ENDBRANCH  33  35
ENDBRANCH   4  33
TORSDOF 8
