REMARK  Name = ZINC35379844
REMARK  5 active torsions:
REMARK  status: ('A' for Active; 'I' for Inactive)
REMARK    1  A    between atoms: C_1  and  O_2
REMARK    2  A    between atoms: O_2  and  C_3
REMARK    3  A    between atoms: C_4  and  C_11
REMARK    4  A    between atoms: C_11  and  C_13
REMARK    5  A    between atoms: C_11  and  N_22
REMARK                            x       y       z     vdW  Elec       q    Type
REMARK                         _______ _______ _______ _____ _____    ______ ____
ROOT
ATOM      1  C   UNL     1       2.716  -0.544  -0.515  0.00  0.00    +0.122 C 
ENDROOT
BRANCH   1   2
ATOM      2  C   UNL     1       3.273   0.856  -0.480  0.00  0.00    +0.012 A 
ATOM      3  C   UNL     1       2.808   1.973  -1.084  0.00  0.00    +0.017 A 
ATOM      4  C   UNL     1       3.478   3.186  -0.923  0.00  0.00    -0.037 A 
ATOM      5  C   UNL     1       4.593   3.164  -0.143  0.00  0.00    -0.007 A 
ATOM      6  S   UNL     1       4.714   1.474   0.376  0.00  0.00    -0.096 S 
ATOM      7  C   UNL     1       5.492   4.309   0.192  0.00  0.00    +0.043 C 
ATOM      8  C   UNL     1       5.185   5.464  -0.774  0.00  0.00    +0.005 C 
ATOM      9  C   UNL     1       3.668   5.661  -0.836  0.00  0.00    +0.005 C 
ATOM     10  C   UNL     1       3.017   4.488  -1.570  0.00  0.00    +0.036 C 
ENDBRANCH   1   2
BRANCH   1  12
ATOM     11  C   UNL     1       0.971  -1.841   0.733  0.00  0.00    +0.139 A 
ATOM     12  C   UNL     1       1.855  -0.773   0.700  0.00  0.00    +0.018 A 
ATOM     13  C   UNL     1       1.946   0.082   1.782  0.00  0.00    +0.029 A 
ATOM     14  C   UNL     1       1.156  -0.128   2.899  0.00  0.00    +0.043 A 
ATOM     15  C   UNL     1       0.274  -1.193   2.934  0.00  0.00    +0.039 A 
ATOM     16  C   UNL     1       0.175  -2.047   1.852  0.00  0.00    +0.061 A 
ATOM     17 BR   UNL     1      -1.036  -3.498   1.897  0.00  0.00    -0.046 Br
ATOM     18 CL   UNL     1       1.273   0.947   4.257  0.00  0.00    -0.083 Cl
BRANCH  11  20
ATOM     19  C   UNL     1      -0.091  -2.363  -1.329  0.00  0.00    +0.277 C 
ATOM     20  O   UNL     1       0.880  -2.682  -0.331  0.00  0.00    -0.494 OA
ENDBRANCH  11  20
ENDBRANCH   1  12
BRANCH   1  21
ATOM     21  N   UNL     1       3.822  -1.511  -0.520  0.00  0.00    -0.319 NA
ATOM     22  H   UNL     1       4.394  -1.410   0.305  0.00  0.00    +0.119 HD
ATOM     23  H   UNL     1       3.477  -2.455  -0.608  0.00  0.00    +0.119 HD
ENDBRANCH   1  21
TORSDOF 4
