REMARK  Name = ZINC02341557
REMARK  8 active torsions:
REMARK  status: ('A' for Active; 'I' for Inactive)
REMARK    1  A    between atoms: C_1  and  C_2
REMARK    2  A    between atoms: C_4  and  C_29
REMARK    3  A    between atoms: N_15  and  C_25
REMARK    4  A    between atoms: C_16  and  C_18
REMARK    5  A    between atoms: C_22  and  O_24
REMARK    6  A    between atoms: C_25  and  C_26
REMARK    7  A    between atoms: C_26  and  C_27
REMARK    8  A    between atoms: C_27  and  O_28
REMARK                            x       y       z     vdW  Elec       q    Type
REMARK                         _______ _______ _______ _____ _____    ______ ____
ROOT
ATOM      1  C   UNL     1      -7.434  -3.337   4.103  0.00  0.00    +0.044 C 
ATOM      2  C   UNL     1      -6.061  -3.900   3.841  0.00  0.00    -0.049 A 
ATOM      3  C   UNL     1      -5.862  -5.273   3.870  0.00  0.00    +0.010 A 
ATOM      4  C   UNL     1      -4.615  -5.811   3.634  0.00  0.00    -0.007 A 
ATOM      5  C   UNL     1      -3.538  -4.971   3.362  0.00  0.00    +0.142 A 
ATOM      6  C   UNL     1      -3.750  -3.582   3.335  0.00  0.00    +0.065 A 
ATOM      7  C   UNL     1      -5.019  -3.056   3.576  0.00  0.00    +0.018 A 
ATOM      8  C   UNL     1      -2.597  -2.708   3.044  0.00  0.00    +0.199 A 
ATOM      9  O   UNL     1      -2.707  -1.495   3.004  0.00  0.00    -0.287 OA
ATOM     10  C   UNL     1      -1.312  -3.372   2.807  0.00  0.00    +0.072 A 
ATOM     11  C   UNL     1      -1.231  -4.724   2.861  0.00  0.00    +0.199 A 
ATOM     12  O   UNL     1      -2.315  -5.479   3.130  0.00  0.00    -0.449 OA
ATOM     13  C   UNL     1       0.173  -5.120   2.584  0.00  0.00    +0.283 C 
ATOM     14  O   UNL     1       0.580  -6.264   2.558  0.00  0.00    -0.267 OA
ATOM     15  N   UNL     1       0.928  -4.029   2.367  0.00  0.00    -0.284 N 
ATOM     16  C   UNL     1       0.064  -2.849   2.489  0.00  0.00    +0.145 C 
ATOM     17  C   UNL     1      -4.417  -7.304   3.670  0.00  0.00    +0.047 C 
ENDROOT
BRANCH  16  18
ATOM     18  C   UNL     1       0.042  -2.086   1.189  0.00  0.00    -0.019 A 
ATOM     19  C   UNL     1       0.039  -2.770  -0.013  0.00  0.00    +0.006 A 
ATOM     20  C   UNL     1       0.018  -2.074  -1.207  0.00  0.00    +0.004 A 
ATOM     21  C   UNL     1      -0.006  -0.692  -1.202  0.00  0.00    +0.045 A 
ATOM     22  C   UNL     1       0.002  -0.004   0.002  0.00  0.00    +0.117 A 
ATOM     23  C   UNL     1       0.023  -0.705   1.199  0.00  0.00    +0.051 A 
BRANCH  22  24
ATOM     24  O   UNL     1      -0.016   1.355   0.009  0.00  0.00    -0.507 OA
ATOM     25  H   UNL     1       0.862   1.760   0.003  0.00  0.00    +0.292 HD
ENDBRANCH  22  24
ENDBRANCH  16  18
BRANCH  15  26
ATOM     26  C   UNL     1       2.361  -4.021   2.063  0.00  0.00    +0.111 C 
BRANCH  26  27
ATOM     27  C   UNL     1       3.159  -3.944   3.366  0.00  0.00    +0.047 C 
BRANCH  27  28
ATOM     28  C   UNL     1       4.656  -3.935   3.049  0.00  0.00    +0.157 C 
BRANCH  28  29
ATOM     29  O   UNL     1       5.401  -3.864   4.266  0.00  0.00    -0.395 OA
ATOM     30  H   UNL     1       6.359  -3.854   4.141  0.00  0.00    +0.209 HD
ENDBRANCH  28  29
ENDBRANCH  27  28
ENDBRANCH  26  27
ENDBRANCH  15  26
TORSDOF 6
