REMARK  Name = ZINC41701759
REMARK  2 active torsions:
REMARK  status: ('A' for Active; 'I' for Inactive)
REMARK    1  A    between atoms: C_7  and  C_11
REMARK    2  A    between atoms: C_11  and  N_12
REMARK                            x       y       z     vdW  Elec       q    Type
REMARK                         _______ _______ _______ _____ _____    ______ ____
ROOT
ATOM      1  C   UNL     1       3.483  -2.292  -0.045  0.00  0.00    +0.155 C 
ENDROOT
BRANCH   1   2
ATOM      2  N   UNL     1       3.220  -2.767  -1.406  0.00  0.00    -0.220 N 
ATOM      3  C   UNL     1       1.986  -2.988  -1.908  0.00  0.00    +0.247 C 
ATOM      4  O   UNL     1       0.924  -2.838  -1.343  0.00  0.00    -0.273 OA
ATOM      5  C   UNL     1       2.212  -3.461  -3.321  0.00  0.00    +0.113 C 
ATOM      6  C   UNL     1       1.635  -4.868  -3.530  0.00  0.00    +0.035 C 
ATOM      7  C   UNL     1       0.263  -4.613  -4.207  0.00  0.00    +0.003 C 
ATOM      8  C   UNL     1       0.557  -3.413  -5.142  0.00  0.00    +0.003 C 
ATOM      9  C   UNL     1       1.535  -2.532  -4.332  0.00  0.00    +0.035 C 
ATOM     10  N   UNL     1       3.667  -3.457  -3.482  0.00  0.00    -0.285 N 
ATOM     11  C   UNL     1       4.174  -3.031  -2.308  0.00  0.00    +0.310 C 
ATOM     12  O   UNL     1       5.364  -2.903  -2.092  0.00  0.00    -0.252 OA
ATOM     13  H   UNL     1       4.166  -3.707  -4.275  0.00  0.00    +0.151 HD
ENDBRANCH   1   2
BRANCH   1  20
ATOM     14  C   UNL     1      -0.017   1.388   0.010  0.00  0.00    +0.020 A 
ATOM     15  C   UNL     1       1.158   2.086   0.002  0.00  0.00    +0.014 A 
ATOM     16  C   UNL     1       2.362   1.359  -0.013  0.00  0.00    +0.036 A 
ATOM     17  C   UNL     1       3.610   2.008  -0.021  0.00  0.00    +0.133 A 
ATOM     18  C   UNL     1       4.754   1.266  -0.036  0.00  0.00    +0.039 A 
ATOM     19  C   UNL     1       4.702  -0.126  -0.043  0.00  0.00    +0.010 A 
ATOM     20  C   UNL     1       3.512  -0.785  -0.036  0.00  0.00    -0.003 A 
ATOM     21  C   UNL     1       2.310  -0.057  -0.020  0.00  0.00    +0.078 A 
ATOM     22  N   UNL     1       1.126  -0.679  -0.012  0.00  0.00    -0.255 NA
ATOM     23  C   UNL     1       0.002  -0.004   0.002  0.00  0.00    +0.111 A 
ATOM     24  F   UNL     1       3.674   3.358  -0.015  0.00  0.00    -0.205 F 
ENDBRANCH   1  20
TORSDOF 2
