REMARK  Name = ZINC36500547
REMARK  11 active torsions:
REMARK  status: ('A' for Active; 'I' for Inactive)
REMARK    1  A    between atoms: C_1  and  O_2
REMARK    2  A    between atoms: O_2  and  C_3
REMARK    3  A    between atoms: C_12  and  C_13
REMARK    4  A    between atoms: C_13  and  C_15
REMARK    5  A    between atoms: C_13  and  N_24
REMARK    6  A    between atoms: N_17  and  C_18
REMARK    7  A    between atoms: N_24  and  C_25
REMARK    8  A    between atoms: C_25  and  C_26
REMARK    9  A    between atoms: C_31  and  C_33
REMARK   10  A    between atoms: C_34  and  O_40
REMARK   11  A    between atoms: C_38  and  O_39
REMARK                            x       y       z     vdW  Elec       q    Type
REMARK                         _______ _______ _______ _____ _____    ______ ____
ROOT
ATOM      1  C   UNL     1       0.048  -2.494   0.317  0.00  0.00    +0.197 C 
ENDROOT
BRANCH   1  11
ATOM      2  C   UNL     1      -0.193  -0.189  -0.595  0.00  0.00    +0.126 A 
ATOM      3  C   UNL     1      -0.034   0.769  -1.601  0.00  0.00    +0.046 A 
ATOM      4  C   UNL     1       0.534   0.443  -2.793  0.00  0.00    +0.012 A 
ATOM      5  C   UNL     1       0.969  -0.875  -3.020  0.00  0.00    -0.017 A 
ATOM      6  C   UNL     1       1.561  -1.246  -4.240  0.00  0.00    +0.008 A 
ATOM      7  C   UNL     1       1.971  -2.530  -4.426  0.00  0.00    +0.001 A 
ATOM      8  C   UNL     1       1.813  -3.487  -3.425  0.00  0.00    +0.001 A 
ATOM      9  C   UNL     1       1.244  -3.164  -2.231  0.00  0.00    +0.009 A 
ATOM     10  C   UNL     1       0.809  -1.847  -2.002  0.00  0.00    -0.009 A 
ATOM     11  C   UNL     1       0.222  -1.476  -0.780  0.00  0.00    +0.031 A 
BRANCH   2  13
ATOM     12  C   UNL     1      -1.101   1.547   0.753  0.00  0.00    +0.277 C 
ATOM     13  O   UNL     1      -0.765   0.168   0.586  0.00  0.00    -0.495 OA
ENDBRANCH   2  13
ENDBRANCH   1  11
BRANCH   1  14
ATOM     14  C   UNL     1      -1.407  -2.868   0.430  0.00  0.00    +0.238 C 
ATOM     15  O   UNL     1      -2.036  -2.566   1.422  0.00  0.00    -0.273 OA
ATOM     16  N   UNL     1      -2.011  -3.537  -0.573  0.00  0.00    -0.311 N 
ATOM     17  H   UNL     1      -1.509  -3.778  -1.366  0.00  0.00    +0.149 HD
BRANCH  16  18
ATOM     18  C   UNL     1      -3.426  -3.899  -0.463  0.00  0.00    +0.073 C 
ATOM     19  C   UNL     1      -3.557  -5.219   0.300  0.00  0.00    +0.022 C 
ATOM     20  C   UNL     1      -5.035  -5.598   0.415  0.00  0.00    +0.002 C 
ATOM     21  C   UNL     1      -5.631  -5.757  -0.985  0.00  0.00    +0.000 C 
ATOM     22  C   UNL     1      -5.500  -4.438  -1.748  0.00  0.00    +0.002 C 
ATOM     23  C   UNL     1      -4.022  -4.059  -1.863  0.00  0.00    +0.022 C 
ENDBRANCH  16  18
ENDBRANCH   1  14
BRANCH   1  24
ATOM     24  N   UNL     1       0.507  -1.927   1.587  0.00  0.00    -0.274 N 
ATOM     25  C   UNL     1       1.819  -1.932   1.893  0.00  0.00    +0.255 C 
ATOM     26  O   UNL     1       2.623  -2.408   1.114  0.00  0.00    -0.270 OA
BRANCH  25  27
ATOM     27  C   UNL     1       2.280  -1.361   3.169  0.00  0.00    +0.119 A 
ATOM     28  C   UNL     1       2.379  -2.171   4.310  0.00  0.00    +0.133 A 
ATOM     29  C   UNL     1       2.815  -1.624   5.506  0.00  0.00    +0.046 A 
ATOM     30  C   UNL     1       3.151  -0.285   5.578  0.00  0.00    +0.007 A 
ATOM     31  C   UNL     1       3.056   0.523   4.460  0.00  0.00    +0.046 A 
ATOM     32  C   UNL     1       2.629  -0.005   3.252  0.00  0.00    +0.133 A 
BRANCH  32  33
ATOM     33  O   UNL     1       2.543   0.788   2.155  0.00  0.00    -0.506 OA
ATOM     34  H   UNL     1       1.684   1.219   2.048  0.00  0.00    +0.292 HD
ENDBRANCH  32  33
BRANCH  28  35
ATOM     35  O   UNL     1       2.050  -3.485   4.243  0.00  0.00    -0.506 OA
ATOM     36  H   UNL     1       2.789  -4.064   4.010  0.00  0.00    +0.292 HD
ENDBRANCH  28  35
ENDBRANCH  25  27
BRANCH  24  37
ATOM     37  C   UNL     1      -0.462  -1.354   2.525  0.00  0.00    +0.183 C 
BRANCH  37  38
ATOM     38  C   UNL     1      -0.802  -2.373   3.581  0.00  0.00    +0.122 A 
ATOM     39  C   UNL     1      -0.279  -2.429   4.819  0.00  0.00    +0.046 A 
ATOM     40  C   UNL     1      -0.876  -3.534   5.467  0.00  0.00    +0.041 A 
ATOM     41  C   UNL     1      -1.728  -4.089   4.586  0.00  0.00    +0.195 A 
ATOM     42  O   UNL     1      -1.684  -3.378   3.448  0.00  0.00    -0.466 OA
ENDBRANCH  37  38
ENDBRANCH  24  37
ENDBRANCH   1  24
TORSDOF 10
