REMARK  Name = ZINC65261678
REMARK  8 active torsions:
REMARK  status: ('A' for Active; 'I' for Inactive)
REMARK    1  A    between atoms: C_1  and  C_2
REMARK    2  A    between atoms: C_5  and  C_7
REMARK    3  A    between atoms: N_9  and  C_10
REMARK    4  A    between atoms: N_13  and  C_16
REMARK    5  A    between atoms: C_16  and  C_17
REMARK    6  A    between atoms: C_16  and  C_18
REMARK    7  A    between atoms: N_20  and  C_21
REMARK    8  A    between atoms: C_26  and  C_27
REMARK                            x       y       z     vdW  Elec       q    Type
REMARK                         _______ _______ _______ _____ _____    ______ ____
ROOT
ATOM      1  C   UNL     1       3.325  -6.160  -0.306  0.00  0.00    +0.070 C 
ATOM      2  C   UNL     1       3.675  -6.589   1.122  0.00  0.00    +0.004 C 
ATOM      3  C   UNL     1       5.130  -7.059   1.166  0.00  0.00    -0.076 C 
ATOM      4  N   UNL     1       6.015  -5.964   0.753  0.00  0.00    +0.387 N 
ATOM      5  C   UNL     1       5.734  -5.595  -0.640  0.00  0.00    -0.076 C 
ATOM      6  C   UNL     1       4.302  -5.068  -0.754  0.00  0.00    +0.004 C 
ATOM      7  H   UNL     1       5.860  -5.165   1.349  0.00  0.00    -0.081 HD
ENDROOT
BRANCH   1  10
ATOM      8  C   UNL     1       0.917  -6.481  -0.486  0.00  0.00    +0.280 C 
ATOM      9  O   UNL     1       1.114  -7.677  -0.590  0.00  0.00    -0.267 OA
ATOM     10  N   UNL     1       1.957  -5.637  -0.340  0.00  0.00    -0.306 N 
ATOM     11  H   UNL     1       1.800  -4.683  -0.257  0.00  0.00    +0.149 HD
BRANCH   8  16
ATOM     12  C   UNL     1      -2.929  -3.275  -0.411  0.00  0.00    +0.086 C 
ATOM     13  C   UNL     1      -2.142  -4.558  -0.487  0.00  0.00    +0.103 A 
ATOM     14  C   UNL     1      -2.665  -5.795  -0.640  0.00  0.00    +0.045 A 
ATOM     15  C   UNL     1      -1.591  -6.698  -0.662  0.00  0.00    +0.055 A 
ATOM     16  C   UNL     1      -0.453  -5.958  -0.520  0.00  0.00    +0.189 A 
ATOM     17  O   UNL     1      -0.808  -4.660  -0.420  0.00  0.00    -0.455 OA
ENDBRANCH   8  16
ENDBRANCH   1  10
BRANCH   4  18
ATOM     18  C   UNL     1       7.414  -6.395   0.871  0.00  0.00    +0.016 C 
ATOM     19  C   UNL     1       8.336  -5.274   0.386  0.00  0.00    -0.004 C 
BRANCH  18  20
ATOM     20  C   UNL     1       7.722  -6.711   2.312  0.00  0.00    +0.199 C 
ATOM     21  O   UNL     1       7.103  -6.163   3.199  0.00  0.00    -0.278 OA
ATOM     22  N   UNL     1       8.686  -7.603   2.615  0.00  0.00    -0.314 N 
ATOM     23  H   UNL     1       9.181  -8.042   1.905  0.00  0.00    +0.149 HD
BRANCH  22  24
ATOM     24  C   UNL     1       8.986  -7.911   4.015  0.00  0.00    +0.076 C 
ATOM     25  C   UNL     1       9.973  -6.879   4.564  0.00  0.00    +0.022 C 
ATOM     26  C   UNL     1      10.285  -7.200   6.027  0.00  0.00    +0.002 C 
ATOM     27  C   UNL     1      10.903  -8.597   6.122  0.00  0.00    +0.000 C 
ATOM     28  C   UNL     1       9.915  -9.629   5.573  0.00  0.00    +0.005 C 
ATOM     29  C   UNL     1       9.603  -9.308   4.110  0.00  0.00    +0.006 C 
ATOM     30  C   UNL     1       8.616 -10.340   3.561  0.00  0.00    +0.009 C 
ENDBRANCH  22  24
ENDBRANCH  18  20
ENDBRANCH   4  18
TORSDOF 5
