REMARK  Name = ZINC31575886
REMARK  10 active torsions:
REMARK  status: ('A' for Active; 'I' for Inactive)
REMARK    1  A    between atoms: C_1  and  C_2
REMARK    2  A    between atoms: C_2  and  C_3
REMARK    3  A    between atoms: C_2  and  C_4
REMARK    4  A    between atoms: C_7  and  N_10
REMARK    5  A    between atoms: N_10  and  C_11
REMARK    6  A    between atoms: C_11  and  N_13
REMARK    7  A    between atoms: N_13  and  N_14
REMARK    8  A    between atoms: C_15  and  C_17
REMARK    9  A    between atoms: C_17  and  C_18
REMARK   10  A    between atoms: C_18  and  N_19
REMARK                            x       y       z     vdW  Elec       q    Type
REMARK                         _______ _______ _______ _____ _____    ______ ____
ROOT
ATOM      1  N   UNL     1       2.403  -0.284   0.160  0.00  0.00    -0.235 N 
ATOM      2  C   UNL     1       3.608  -0.884   0.228  0.00  0.00    +0.231 C 
ATOM      3  O   UNL     1       4.601  -0.292  -0.137  0.00  0.00    -0.274 OA
ATOM      4  H   UNL     1       1.502  -0.821   0.491  0.00  0.00    +0.173 HD
ENDROOT
BRANCH   1   5
ATOM      5  N   UNL     1       2.298   1.024  -0.331  0.00  0.00    -0.246 N 
ATOM      6  H   UNL     1       3.199   1.561  -0.661  0.00  0.00    +0.172 HD
BRANCH   5   7
ATOM      7  C   UNL     1       1.093   1.624  -0.398  0.00  0.00    +0.151 C 
ATOM      8  S   UNL     1       0.965   3.222  -0.998  0.00  0.00    -0.017 S 
BRANCH   7   9
ATOM      9  N   UNL     1      -0.011   0.966   0.007  0.00  0.00    -0.296 N 
ATOM     10  H   UNL     1       0.061  -0.083   0.331  0.00  0.00    +0.154 HD
BRANCH   9  14
ATOM     11  C   UNL     1      -3.698   2.904   0.035  0.00  0.00    -0.045 A 
ATOM     12  C   UNL     1      -2.864   3.024  -1.061  0.00  0.00    +0.006 A 
ATOM     13  C   UNL     1      -1.641   2.383  -1.074  0.00  0.00    +0.023 A 
ATOM     14  C   UNL     1      -1.249   1.617   0.017  0.00  0.00    +0.033 A 
ATOM     15  C   UNL     1      -2.092   1.493   1.114  0.00  0.00    +0.023 A 
ATOM     16  C   UNL     1      -3.311   2.142   1.122  0.00  0.00    +0.006 A 
BRANCH  11  18
ATOM     17  C   UNL     1      -6.151   2.572   0.190  0.00  0.00    +0.012 C 
ATOM     18  C   UNL     1      -5.032   3.606   0.045  0.00  0.00    +0.013 C 
ATOM     19  C   UNL     1      -5.085   4.583   1.221  0.00  0.00    +0.012 C 
ENDBRANCH  11  18
ENDBRANCH   9  14
ENDBRANCH   7   9
ENDBRANCH   5   7
ENDBRANCH   1   5
BRANCH   2  20
ATOM     20  C   UNL     1       3.720  -2.291   0.756  0.00  0.00    +0.117 C 
BRANCH  20  21
ATOM     21  C   UNL     1       5.186  -2.731   0.726  0.00  0.00    +0.126 C 
BRANCH  21  22
ATOM     22  N   UNL     1       5.295  -4.099   1.240  0.00  0.00    -0.234 N 
ATOM     23  C   UNL     1       5.498  -4.412   2.532  0.00  0.00    +0.254 C 
ATOM     24  O   UNL     1       5.618  -3.619   3.443  0.00  0.00    -0.270 OA
ATOM     25  C   UNL     1       5.549  -5.884   2.657  0.00  0.00    +0.049 A 
ATOM     26  C   UNL     1       5.727  -6.759   3.717  0.00  0.00    +0.015 A 
ATOM     27  C   UNL     1       5.727  -8.126   3.487  0.00  0.00    +0.016 A 
ATOM     28  C   UNL     1       5.552  -8.621   2.208  0.00  0.00    +0.019 A 
ATOM     29  C   UNL     1       5.373  -7.757   1.137  0.00  0.00    +0.029 A 
ATOM     30  C   UNL     1       5.370  -6.388   1.353  0.00  0.00    +0.050 A 
ATOM     31  C   UNL     1       5.212  -5.206   0.480  0.00  0.00    +0.254 C 
ATOM     32  O   UNL     1       5.036  -5.230  -0.721  0.00  0.00    -0.270 OA
ATOM     33 BR   UNL     1       5.557 -10.489   1.915  0.00  0.00    -0.050 Br
ENDBRANCH  21  22
ENDBRANCH  20  21
ENDBRANCH   2  20
TORSDOF 8
