REMARK  Name = ZINC57847440
REMARK  8 active torsions:
REMARK  status: ('A' for Active; 'I' for Inactive)
REMARK    1  A    between atoms: C_1  and  C_2
REMARK    2  A    between atoms: C_2  and  C_18
REMARK    3  A    between atoms: N_5  and  C_9
REMARK    4  A    between atoms: C_9  and  C_10
REMARK    5  A    between atoms: C_15  and  C_16
REMARK    6  A    between atoms: C_18  and  C_19
REMARK    7  A    between atoms: C_18  and  C_20
REMARK    8  A    between atoms: C_18  and  C_21
REMARK                            x       y       z     vdW  Elec       q    Type
REMARK                         _______ _______ _______ _____ _____    ______ ____
ROOT
ATOM      1  C   UNL     1      -0.019   1.526   0.010  0.00  0.00    +0.042 C 
ATOM      2  C   UNL     1       0.002  -0.004   0.002  0.00  0.00    +0.115 C 
ATOM      3  C   UNL     1      -1.403  -0.557   0.139  0.00  0.00    +0.247 C 
ATOM      4  O   UNL     1      -2.332  -0.392  -0.621  0.00  0.00    -0.273 OA
ATOM      5  N   UNL     1      -1.403  -1.272   1.282  0.00  0.00    -0.220 N 
ATOM      6  C   UNL     1      -0.206  -1.247   1.879  0.00  0.00    +0.310 C 
ATOM      7  O   UNL     1       0.040  -1.819   2.924  0.00  0.00    -0.252 OA
ATOM      8  N   UNL     1       0.695  -0.520   1.195  0.00  0.00    -0.285 N 
ATOM      9  H   UNL     1       1.621  -0.365   1.440  0.00  0.00    +0.151 HD
ENDROOT
BRANCH   2  10
ATOM     10  C   UNL     1       0.667  -0.525  -1.274  0.00  0.00    -0.008 C 
ATOM     11  C   UNL     1       2.100   0.006  -1.355  0.00  0.00    +0.013 C 
ATOM     12  C   UNL     1       0.690  -2.054  -1.249  0.00  0.00    +0.013 C 
ATOM     13  C   UNL     1      -0.124  -0.047  -2.493  0.00  0.00    +0.013 C 
ENDBRANCH   2  10
BRANCH   5  14
ATOM     14  C   UNL     1      -2.569  -1.986   1.805  0.00  0.00    +0.154 C 
BRANCH  14  15
ATOM     15  C   UNL     1      -2.585  -3.391   1.260  0.00  0.00    -0.012 A 
ATOM     16  C   UNL     1      -3.397  -3.709   0.191  0.00  0.00    +0.006 A 
ATOM     17  C   UNL     1      -3.413  -4.998  -0.311  0.00  0.00    +0.000 A 
ATOM     18  C   UNL     1      -2.614  -5.977   0.254  0.00  0.00    +0.001 A 
ATOM     19  C   UNL     1      -1.797  -5.673   1.323  0.00  0.00    +0.019 A 
ATOM     20  C   UNL     1      -1.772  -4.372   1.831  0.00  0.00    +0.056 A 
BRANCH  20  21
ATOM     21  C   UNL     1      -0.921  -4.048   2.936  0.00  0.00    +0.099 C 
ATOM     22  N   UNL     1      -0.247  -3.791   3.813  0.00  0.00    -0.191 NA
ENDBRANCH  20  21
ENDBRANCH  14  15
ENDBRANCH   5  14
TORSDOF 4
