REMARK  Name = ZINC34772255
REMARK  7 active torsions:
REMARK  status: ('A' for Active; 'I' for Inactive)
REMARK    1  A    between atoms: C_3  and  C_6
REMARK    2  A    between atoms: C_6  and  C_8
REMARK    3  A    between atoms: C_10  and  C_22
REMARK    4  A    between atoms: C_16  and  C_17
REMARK    5  A    between atoms: C_16  and  O_21
REMARK    6  A    between atoms: C_25  and  O_28
REMARK    7  A    between atoms: O_28  and  C_29
REMARK                            x       y       z     vdW  Elec       q    Type
REMARK                         _______ _______ _______ _____ _____    ______ ____
ROOT
ATOM      1  C   UNL     1       4.969   0.788  -0.393  0.00  0.00    +0.145 C 
ATOM      2  C   UNL     1       6.012   1.166   0.665  0.00  0.00    +0.120 C 
ATOM      3  N   UNL     1       6.632   2.439   0.293  0.00  0.00    -0.292 N 
ATOM      4  C   UNL     1       6.744   2.812  -0.991  0.00  0.00    +0.302 C 
ATOM      5  O   UNL     1       7.278   3.874  -1.246  0.00  0.00    -0.253 OA
ATOM      6  N   UNL     1       6.292   2.059  -2.004  0.00  0.00    -0.264 N 
ATOM      7  C   UNL     1       5.648   0.761  -1.766  0.00  0.00    +0.243 C 
ATOM      8  H   UNL     1       6.969   3.025   0.989  0.00  0.00    +0.151 HD
ATOM      9  H   UNL     1       6.390   2.379  -2.915  0.00  0.00    +0.153 HD
ENDROOT
BRANCH   2  10
ATOM     10  C   UNL     1       7.066   0.093   0.739  0.00  0.00    -0.026 A 
ATOM     11  C   UNL     1       8.260   0.250   0.059  0.00  0.00    +0.009 A 
ATOM     12  C   UNL     1       9.229  -0.733   0.125  0.00  0.00    +0.046 A 
ATOM     13  C   UNL     1       9.003  -1.878   0.875  0.00  0.00    +0.127 A 
ATOM     14  C   UNL     1       7.804  -2.033   1.556  0.00  0.00    +0.046 A 
ATOM     15  C   UNL     1       6.841  -1.045   1.491  0.00  0.00    +0.009 A 
BRANCH  13  16
ATOM     16  O   UNL     1       9.954  -2.847   0.941  0.00  0.00    -0.434 OA
BRANCH  16  17
ATOM     17  C   UNL     1       9.653  -3.998   1.731  0.00  0.00    +0.541 C 
ATOM     18  F   UNL     1       9.421  -3.608   3.055  0.00  0.00    -0.166 F 
ATOM     19  F   UNL     1       8.511  -4.627   1.224  0.00  0.00    -0.166 F 
ENDBRANCH  16  17
ENDBRANCH  13  16
ENDBRANCH   2  10
BRANCH   7  20
ATOM     20  C   UNL     1       4.601   0.496  -2.849  0.00  0.00    +0.436 C 
ATOM     21  F   UNL     1       3.638   1.510  -2.826  0.00  0.00    -0.166 F 
ATOM     22  F   UNL     1       5.223   0.472  -4.103  0.00  0.00    -0.166 F 
ATOM     23  F   UNL     1       3.985  -0.738  -2.611  0.00  0.00    -0.166 F 
ENDBRANCH   7  20
BRANCH   1  24
ATOM     24  C   UNL     1       3.859   1.807  -0.397  0.00  0.00    +0.179 C 
ATOM     25  O   UNL     1       4.090   2.958  -0.084  0.00  0.00    -0.291 OA
BRANCH  24  28
ATOM     26  C   UNL     1       0.260   1.540  -1.227  0.00  0.00    +0.008 A 
ATOM     27  C   UNL     1       1.396   2.200  -0.833  0.00  0.00    +0.019 A 
ATOM     28  C   UNL     1       2.550   1.424  -0.764  0.00  0.00    +0.055 A 
ATOM     29  S   UNL     1       1.945  -0.177  -1.260  0.00  0.00    -0.094 S 
ATOM     30  C   UNL     1       0.331   0.214  -1.515  0.00  0.00    +0.046 A 
ENDBRANCH  24  28
ENDBRANCH   1  24
BRANCH   7  31
ATOM     31  O   UNL     1       6.635  -0.272  -1.791  0.00  0.00    -0.364 OA
ATOM     32  H   UNL     1       7.106  -0.346  -2.632  0.00  0.00    +0.212 HD
ENDBRANCH   7  31
TORSDOF 7
