REMARK  Name = ZINC28727997
REMARK  11 active torsions:
REMARK  status: ('A' for Active; 'I' for Inactive)
REMARK    1  A    between atoms: C_1  and  C_2
REMARK    2  A    between atoms: C_2  and  C_4
REMARK    3  A    between atoms: C_2  and  N_14
REMARK    4  A    between atoms: C_7  and  S_10
REMARK    5  A    between atoms: S_10  and  N_13
REMARK    6  A    between atoms: N_14  and  C_15
REMARK    7  A    between atoms: N_14  and  C_16
REMARK    8  A    between atoms: C_16  and  C_17
REMARK    9  A    between atoms: N_19  and  C_20
REMARK   10  A    between atoms: C_20  and  C_22
REMARK   11  A    between atoms: C_20  and  C_23
REMARK                            x       y       z     vdW  Elec       q    Type
REMARK                         _______ _______ _______ _____ _____    ______ ____
ROOT
ATOM      1  N   UNL     1      -1.669  -2.496   2.636  0.00  0.00    +0.388 N 
ATOM      2  C   UNL     1      -2.600  -2.966   3.670  0.00  0.00    -0.095 C 
ATOM      3  H   UNL     1      -0.920  -3.164   2.529  0.00  0.00    -0.081 HD
ENDROOT
BRANCH   1   5
ATOM      4  C   UNL     1      -1.414  -1.864   0.283  0.00  0.00    -0.008 C 
ATOM      5  C   UNL     1      -2.384  -2.354   1.361  0.00  0.00    -0.041 C 
BRANCH   5   6
ATOM      6  C   UNL     1      -2.955  -3.687   0.954  0.00  0.00    -0.061 A 
ATOM      7  C   UNL     1      -2.221  -4.842   1.147  0.00  0.00    +0.004 A 
ATOM      8  C   UNL     1      -2.745  -6.066   0.774  0.00  0.00    +0.029 A 
ATOM      9  C   UNL     1      -4.004  -6.134   0.207  0.00  0.00    +0.105 A 
ATOM     10  C   UNL     1      -4.739  -4.980   0.015  0.00  0.00    +0.029 A 
ATOM     11  C   UNL     1      -4.217  -3.757   0.392  0.00  0.00    +0.004 A 
BRANCH   9  12
ATOM     12  S   UNL     1      -4.671  -7.694  -0.270  0.00  0.00    +0.056 S 
ATOM     13  O   UNL     1      -5.641  -7.430  -1.275  0.00  0.00    -0.153 OA
ATOM     14  O   UNL     1      -3.566  -8.560  -0.486  0.00  0.00    -0.153 OA
BRANCH  12  15
ATOM     15  N   UNL     1      -5.495  -8.294   1.036  0.00  0.00    -0.204 NA
ATOM     16  H   UNL     1      -5.532  -7.785   1.861  0.00  0.00    +0.144 HD
ATOM     17  H   UNL     1      -5.940  -9.153   0.975  0.00  0.00    +0.144 HD
ENDBRANCH  12  15
ENDBRANCH   9  12
ENDBRANCH   5   6
ENDBRANCH   1   5
BRANCH   1  18
ATOM     18  C   UNL     1      -1.112  -1.196   3.032  0.00  0.00    +0.019 C 
BRANCH  18  19
ATOM     19  C   UNL     1      -0.275  -1.366   4.275  0.00  0.00    +0.197 C 
ATOM     20  O   UNL     1      -0.155  -2.462   4.780  0.00  0.00    -0.278 OA
ATOM     21  N   UNL     1       0.339  -0.299   4.824  0.00  0.00    -0.310 N 
ATOM     22  H   UNL     1       0.243   0.577   4.420  0.00  0.00    +0.149 HD
BRANCH  21  23
ATOM     23  C   UNL     1       1.152  -0.464   6.032  0.00  0.00    +0.101 C 
ATOM     24  C   UNL     1       2.171   0.673   6.120  0.00  0.00    +0.033 C 
BRANCH  23  25
ATOM     25  C   UNL     1       0.260  -0.434   7.246  0.00  0.00    -0.020 A 
ATOM     26  C   UNL     1      -0.946   0.195   7.193  0.00  0.00    +0.006 A 
ATOM     27  C   UNL     1      -1.785   0.233   8.306  0.00  0.00    +0.001 A 
ATOM     28  C   UNL     1      -1.422  -0.357   9.477  0.00  0.00    +0.008 A 
ATOM     29  C   UNL     1      -0.184  -1.016   9.570  0.00  0.00    -0.018 A 
ATOM     30  C   UNL     1       0.666  -1.061   8.436  0.00  0.00    -0.013 A 
ATOM     31  C   UNL     1       1.901  -1.725   8.527  0.00  0.00    +0.009 A 
ATOM     32  C   UNL     1       2.261  -2.320   9.697  0.00  0.00    +0.001 A 
ATOM     33  C   UNL     1       1.422  -2.283  10.809  0.00  0.00    +0.001 A 
ATOM     34  C   UNL     1       0.225  -1.637  10.762  0.00  0.00    +0.008 A 
ENDBRANCH  23  25
ENDBRANCH  21  23
ENDBRANCH  18  19
ENDBRANCH   1  18
TORSDOF 8
