REMARK  Name = ZINC07236728
REMARK  9 active torsions:
REMARK  status: ('A' for Active; 'I' for Inactive)
REMARK    1  A    between atoms: C_1  and  C_2
REMARK    2  A    between atoms: C_3  and  C_7
REMARK    3  A    between atoms: C_10  and  S_13
REMARK    4  A    between atoms: N_11  and  C_12
REMARK    5  A    between atoms: S_13  and  C_14
REMARK    6  A    between atoms: C_14  and  C_15
REMARK    7  A    between atoms: C_18  and  C_21
REMARK    8  A    between atoms: C_21  and  C_22
REMARK    9  A    between atoms: C_21  and  C_23
REMARK                            x       y       z     vdW  Elec       q    Type
REMARK                         _______ _______ _______ _____ _____    ______ ____
ROOT
ATOM      1  C   UNL     1       1.465  -6.671  -1.713  0.00  0.00    +0.168 A 
ATOM      2  N   UNL     1       1.329  -6.389  -0.438  0.00  0.00    -0.128 NA
ATOM      3  N   UNL     1       1.117  -5.131  -0.287  0.00  0.00    -0.122 NA
ATOM      4  C   UNL     1       1.095  -4.533  -1.456  0.00  0.00    +0.192 A 
ATOM      5  N   UNL     1       1.320  -5.492  -2.405  0.00  0.00    -0.305 N 
ATOM      6  C   UNL     1       1.392  -5.302  -3.856  0.00  0.00    +0.153 C 
ENDROOT
BRANCH   1   9
ATOM      7  C   UNL     1       0.004  -9.343  -0.967  0.00  0.00    +0.087 C 
ATOM      8  C   UNL     1       1.104  -9.174  -1.984  0.00  0.00    +0.112 A 
ATOM      9  C   UNL     1       1.727  -8.006  -2.295  0.00  0.00    +0.060 A 
ATOM     10  C   UNL     1       2.718  -8.345  -3.324  0.00  0.00    +0.053 A 
ATOM     11  C   UNL     1       2.595  -9.666  -3.535  0.00  0.00    +0.196 A 
ATOM     12  O   UNL     1       1.632 -10.150  -2.737  0.00  0.00    -0.467 OA
ENDBRANCH   1   9
BRANCH   4  13
ATOM     13  S   UNL     1       0.833  -2.815  -1.747  0.00  0.00    -0.081 S 
BRANCH  13  14
ATOM     14  C   UNL     1       0.617  -2.238  -0.045  0.00  0.00    +0.112 C 
BRANCH  14  15
ATOM     15  C   UNL     1       0.373  -0.751  -0.047  0.00  0.00    -0.037 A 
ATOM     16  C   UNL     1      -0.918  -0.263  -0.131  0.00  0.00    +0.005 A 
ATOM     17  C   UNL     1      -1.142   1.101  -0.132  0.00  0.00    +0.004 A 
ATOM     18  C   UNL     1      -0.076   1.977  -0.049  0.00  0.00    -0.045 A 
ATOM     19  C   UNL     1       1.214   1.489   0.034  0.00  0.00    +0.004 A 
ATOM     20  C   UNL     1       1.439   0.125   0.035  0.00  0.00    +0.005 A 
BRANCH  18  21
ATOM     21  C   UNL     1      -0.321   3.464  -0.051  0.00  0.00    +0.013 C 
ATOM     22  C   UNL     1       0.220   4.072   1.246  0.00  0.00    +0.012 C 
ATOM     23  C   UNL     1       0.393   4.097  -1.247  0.00  0.00    +0.012 C 
ENDBRANCH  18  21
ENDBRANCH  14  15
ENDBRANCH  13  14
ENDBRANCH   4  13
TORSDOF 5
