REMARK  Name = ZINC01750681
REMARK  10 active torsions:
REMARK  status: ('A' for Active; 'I' for Inactive)
REMARK    1  A    between atoms: C_1  and  C_2
REMARK    2  A    between atoms: C_2  and  O_3
REMARK    3  A    between atoms: O_3  and  C_4
REMARK    4  A    between atoms: C_4  and  C_6
REMARK    5  A    between atoms: C_9  and  N_12
REMARK    6  A    between atoms: N_12  and  C_13
REMARK    7  A    between atoms: N_12  and  S_16
REMARK    8  A    between atoms: C_13  and  N_44
REMARK    9  A    between atoms: S_16  and  C_19
REMARK   10  A    between atoms: C_22  and  C_25
REMARK                            x       y       z     vdW  Elec       q    Type
REMARK                         _______ _______ _______ _____ _____    ______ ____
ROOT
ATOM      1  N   UNL     1       0.001   1.034  -2.258  0.00  0.00    -0.220 N 
ENDROOT
BRANCH   1   5
ATOM      2  C   UNL     1      -0.350  -1.979  -5.099  0.00  0.00    +0.059 A 
ATOM      3  C   UNL     1      -1.491  -1.478  -4.464  0.00  0.00    +0.017 A 
ATOM      4  C   UNL     1      -1.371  -0.484  -3.527  0.00  0.00    +0.025 A 
ATOM      5  C   UNL     1      -0.116   0.026  -3.208  0.00  0.00    +0.049 A 
ATOM      6  C   UNL     1       1.022  -0.466  -3.842  0.00  0.00    +0.025 A 
ATOM      7  C   UNL     1       0.910  -1.464  -4.776  0.00  0.00    +0.017 A 
BRANCH   2   8
ATOM      8  C   UNL     1      -0.474  -3.048  -6.106  0.00  0.00    +0.339 C 
ATOM      9  O   UNL     1      -1.569  -3.495  -6.386  0.00  0.00    -0.245 OA
BRANCH   8  10
ATOM     10  O   UNL     1       0.626  -3.529  -6.717  0.00  0.00    -0.461 OA
BRANCH  10  12
ATOM     11  C   UNL     1       1.781  -4.996  -8.280  0.00  0.00    +0.048 C 
ATOM     12  C   UNL     1       0.429  -4.581  -7.698  0.00  0.00    +0.229 C 
ENDBRANCH  10  12
ENDBRANCH   8  10
ENDBRANCH   2   8
ENDBRANCH   1   5
BRANCH   1  13
ATOM     13  S   UNL     1       0.988   2.333  -2.545  0.00  0.00    +0.073 S 
ATOM     14  O   UNL     1       1.233   2.354  -3.945  0.00  0.00    -0.150 OA
ATOM     15  O   UNL     1       0.420   3.436  -1.854  0.00  0.00    -0.150 OA
BRANCH  13  16
ATOM     16  C   UNL     1       2.534   1.994  -1.769  0.00  0.00    +0.109 A 
ATOM     17  C   UNL     1       2.708   2.271  -0.426  0.00  0.00    +0.029 A 
ATOM     18  C   UNL     1       3.919   2.002   0.184  0.00  0.00    +0.005 A 
ATOM     19  C   UNL     1       4.958   1.464  -0.552  0.00  0.00    -0.050 A 
ATOM     20  C   UNL     1       4.786   1.192  -1.896  0.00  0.00    +0.005 A 
ATOM     21  C   UNL     1       3.574   1.457  -2.505  0.00  0.00    +0.029 A 
ATOM     22  C   UNL     1       6.280   1.175   0.112  0.00  0.00    +0.044 C 
ENDBRANCH  13  16
ENDBRANCH   1  13
BRANCH   1  23
ATOM     23  C   UNL     1      -0.748   0.948  -1.002  0.00  0.00    +0.049 C 
BRANCH  23  26
ATOM     24  H   UNL     1       0.551  -0.341  -0.058  0.00  0.00    -0.088 HD
ATOM     25  H   UNL     1       0.896   1.266   0.195  0.00  0.00    -0.088 HD
ATOM     26  N   UNL     1       0.148   0.580   0.108  0.00  0.00    +0.390 N 
ATOM     27  H   UNL     1      -0.389   0.558   0.983  0.00  0.00    -0.088 HD
ENDBRANCH  23  26
ENDBRANCH   1  23
TORSDOF 8
