REMARK  Name = ZINC60392180
REMARK  9 active torsions:
REMARK  status: ('A' for Active; 'I' for Inactive)
REMARK    1  A    between atoms: C_1  and  C_2
REMARK    2  A    between atoms: C_2  and  N_3
REMARK    3  A    between atoms: N_3  and  C_4
REMARK    4  A    between atoms: N_3  and  C_6
REMARK    5  A    between atoms: C_4  and  C_5
REMARK    6  A    between atoms: C_6  and  C_7
REMARK    7  A    between atoms: C_7  and  N_8
REMARK    8  A    between atoms: N_17  and  C_18
REMARK    9  A    between atoms: C_18  and  C_20
REMARK                            x       y       z     vdW  Elec       q    Type
REMARK                         _______ _______ _______ _____ _____    ______ ____
ROOT
ATOM      1  N   UNL     1       2.222  -3.723  -0.506  0.00  0.00    -0.314 N 
ATOM      2  C   UNL     1       3.340  -4.399  -0.030  0.00  0.00    +0.068 A 
ATOM      3  C   UNL     1       4.449  -3.998   0.703  0.00  0.00    +0.028 A 
ATOM      4  C   UNL     1       5.422  -4.918   1.036  0.00  0.00    +0.002 A 
ATOM      5  C   UNL     1       5.298  -6.240   0.643  0.00  0.00    +0.002 A 
ATOM      6  C   UNL     1       4.199  -6.649  -0.086  0.00  0.00    +0.028 A 
ATOM      7  C   UNL     1       3.215  -5.732  -0.426  0.00  0.00    +0.066 A 
ATOM      8  N   UNL     1       2.023  -5.839  -1.135  0.00  0.00    -0.326 N 
ATOM      9  C   UNL     1       1.435  -4.613  -1.166  0.00  0.00    +0.201 A 
ATOM     10  N   UNL     1       0.276  -4.330  -1.752  0.00  0.00    -0.141 NA
ATOM     11  H   UNL     1       1.670  -6.649  -1.534  0.00  0.00    +0.169 HD
ENDROOT
BRANCH  10  12
ATOM     12  C   UNL     1      -0.469  -5.311  -2.269  0.00  0.00    +0.288 C 
ATOM     13  O   UNL     1      -0.133  -6.473  -2.121  0.00  0.00    -0.266 OA
BRANCH  12  14
ATOM     14  C   UNL     1      -1.706  -4.986  -3.022  0.00  0.00    +0.128 A 
ATOM     15  C   UNL     1      -2.478  -6.030  -3.553  0.00  0.00    +0.034 A 
ATOM     16  C   UNL     1      -3.618  -5.745  -4.248  0.00  0.00    +0.012 A 
ATOM     17  C   UNL     1      -3.980  -4.394  -4.409  0.00  0.00    +0.000 A 
ATOM     18  C   UNL     1      -5.139  -4.028  -5.111  0.00  0.00    +0.010 A 
ATOM     19  C   UNL     1      -5.458  -2.711  -5.246  0.00  0.00    +0.001 A 
ATOM     20  C   UNL     1      -4.649  -1.719  -4.696  0.00  0.00    +0.002 A 
ATOM     21  C   UNL     1      -3.518  -2.035  -4.009  0.00  0.00    +0.028 A 
ATOM     22  C   UNL     1      -3.155  -3.385  -3.847  0.00  0.00    +0.072 A 
ATOM     23  N   UNL     1      -2.055  -3.724  -3.173  0.00  0.00    -0.242 NA
ENDBRANCH  12  14
ENDBRANCH  10  12
BRANCH   1  24
ATOM     24  C   UNL     1       1.938  -2.297  -0.322  0.00  0.00    +0.106 C 
BRANCH  24  25
ATOM     25  C   UNL     1       1.143  -2.098   0.971  0.00  0.00    -0.057 C 
BRANCH  25  26
ATOM     26  N   UNL     1       0.859  -0.669   1.156  0.00  0.00    +0.380 N 
ATOM     27  H   UNL     1       1.722  -0.148   1.130  0.00  0.00    -0.082 HD
BRANCH  26  29
ATOM     28  C   UNL     1      -0.210   1.312   0.190  0.00  0.00    -0.017 C 
ATOM     29  C   UNL     1      -0.027  -0.203   0.080  0.00  0.00    -0.082 C 
ENDBRANCH  26  29
BRANCH  26  30
ATOM     30  C   UNL     1       0.202  -0.465   2.454  0.00  0.00    -0.082 C 
ATOM     31  C   UNL     1       1.177  -0.815   3.579  0.00  0.00    -0.017 C 
ENDBRANCH  26  30
ENDBRANCH  25  26
ENDBRANCH  24  25
ENDBRANCH   1  24
TORSDOF 7
