REMARK  Name = ZINC08800961
REMARK  7 active torsions:
REMARK  status: ('A' for Active; 'I' for Inactive)
REMARK    1  A    between atoms: C_1  and  C_2
REMARK    2  A    between atoms: C_3  and  C_8
REMARK    3  A    between atoms: N_10  and  N_11
REMARK    4  A    between atoms: C_12  and  C_13
REMARK    5  A    between atoms: C_16  and  N_19
REMARK    6  A    between atoms: C_20  and  C_31
REMARK    7  A    between atoms: C_23  and  C_25
REMARK                            x       y       z     vdW  Elec       q    Type
REMARK                         _______ _______ _______ _____ _____    ______ ____
ROOT
ATOM      1  C   UNL     1       4.319  -3.593  -0.858  0.00  0.00    -0.005 A 
ATOM      2  C   UNL     1       4.287  -2.208  -0.666  0.00  0.00    +0.011 A 
ATOM      3  C   UNL     1       3.086  -1.574  -0.441  0.00  0.00    +0.025 A 
ATOM      4  C   UNL     1       1.905  -2.309  -0.404  0.00  0.00    +0.052 A 
ATOM      5  C   UNL     1       1.934  -3.688  -0.590  0.00  0.00    +0.025 A 
ATOM      6  C   UNL     1       3.131  -4.328  -0.820  0.00  0.00    +0.011 A 
ENDROOT
BRANCH   4   7
ATOM      7  N   UNL     1       0.691  -1.664  -0.176  0.00  0.00    -0.220 N 
ATOM      8  C   UNL     1      -0.638  -2.291  -0.247  0.00  0.00    +0.111 C 
ATOM      9  C   UNL     1      -1.602  -1.136   0.089  0.00  0.00    +0.082 C 
ATOM     10  C   UNL     1      -0.687   0.046   0.319  0.00  0.00    +0.068 C 
ATOM     11  N   UNL     1       0.538  -0.318   0.151  0.00  0.00    -0.183 NA
BRANCH  10  12
ATOM     12  C   UNL     1      -1.129   1.408   0.673  0.00  0.00    -0.002 A 
ATOM     13  C   UNL     1      -2.490   1.689   0.817  0.00  0.00    +0.010 A 
ATOM     14  C   UNL     1      -2.895   2.963   1.154  0.00  0.00    +0.001 A 
ATOM     15  C   UNL     1      -1.959   3.965   1.338  0.00  0.00    +0.000 A 
ATOM     16  C   UNL     1      -0.609   3.695   1.192  0.00  0.00    +0.001 A 
ATOM     17  C   UNL     1      -0.189   2.424   0.861  0.00  0.00    +0.010 A 
ENDBRANCH  10  12
BRANCH   8  18
ATOM     18  C   UNL     1      -0.907  -2.824  -1.655  0.00  0.00    +0.038 C 
ATOM     19  C   UNL     1      -0.344  -1.846  -2.685  0.00  0.00    +0.036 C 
ATOM     20  C   UNL     1      -1.170  -0.587  -2.701  0.00  0.00    -0.026 C 
ATOM     21  C   UNL     1      -2.481  -0.646  -2.497  0.00  0.00    -0.005 C 
ATOM     22  C   UNL     1      -3.125  -1.946  -2.251  0.00  0.00    -0.004 C 
ATOM     23  C   UNL     1      -2.392  -2.981  -1.855  0.00  0.00    -0.021 C 
ENDBRANCH   8  18
ENDBRANCH   4   7
BRANCH   1  25
ATOM     24  N   UNL     1       5.631  -5.561  -1.277  0.00  0.00    -0.187 NA
ATOM     25  C   UNL     1       5.603  -4.275  -1.100  0.00  0.00    +0.138 C 
BRANCH  24  28
ATOM     26  C   UNL     1       6.881  -7.544  -1.692  0.00  0.00    +0.272 C 
ATOM     27  O   UNL     1       5.847  -8.186  -1.659  0.00  0.00    -0.268 OA
ATOM     28  N   UNL     1       6.852  -6.209  -1.507  0.00  0.00    -0.202 N 
ATOM     29  H   UNL     1       7.676  -5.698  -1.533  0.00  0.00    +0.178 HD
BRANCH  26  32
ATOM     30  C   UNL     1       7.307 -10.587  -2.140  0.00  0.00    +0.067 C 
ATOM     31  C   UNL     1       8.417  -9.568  -2.139  0.00  0.00    +0.060 A 
ATOM     32  C   UNL     1       8.155  -8.221  -1.931  0.00  0.00    +0.100 A 
ATOM     33  S   UNL     1       9.806  -7.545  -2.031  0.00  0.00    -0.048 S 
ATOM     34  C   UNL     1      10.644  -9.036  -2.331  0.00  0.00    +0.156 A 
ATOM     35  N   UNL     1       9.660  -9.923  -2.337  0.00  0.00    -0.230 NA
ATOM     36  N   UNL     1      11.994  -9.244  -2.515  0.00  0.00    -0.337 N 
ATOM     37  H   UNL     1      12.609  -8.494  -2.485  0.00  0.00    +0.144 HD
ATOM     38  H   UNL     1      12.329 -10.140  -2.676  0.00  0.00    +0.144 HD
ENDBRANCH  26  32
ENDBRANCH  24  28
ENDBRANCH   1  25
TORSDOF 6
