REMARK  Name = ZINC08620724
REMARK  7 active torsions:
REMARK  status: ('A' for Active; 'I' for Inactive)
REMARK    1  A    between atoms: C_7  and  C_20
REMARK    2  A    between atoms: C_12  and  C_13
REMARK    3  A    between atoms: C_20  and  O_22
REMARK    4  A    between atoms: O_22  and  C_23
REMARK    5  A    between atoms: C_23  and  C_24
REMARK    6  A    between atoms: N_26  and  C_27
REMARK    7  A    between atoms: C_28  and  C_32
REMARK                            x       y       z     vdW  Elec       q    Type
REMARK                         _______ _______ _______ _____ _____    ______ ____
ROOT
ATOM      1  C   UNL     1       3.794  -2.672   3.588  0.00  0.00    +0.001 A 
ATOM      2  C   UNL     1       5.086  -3.186   3.513  0.00  0.00    +0.002 A 
ATOM      3  C   UNL     1       5.674  -3.437   2.312  0.00  0.00    +0.028 A 
ATOM      4  C   UNL     1       4.977  -3.159   1.120  0.00  0.00    +0.072 A 
ATOM      5  C   UNL     1       3.664  -2.630   1.204  0.00  0.00    +0.015 A 
ATOM      6  C   UNL     1       3.086  -2.395   2.455  0.00  0.00    +0.011 A 
ATOM      7  C   UNL     1       2.945  -2.349  -0.039  0.00  0.00    +0.073 A 
ATOM      8  C   UNL     1       3.602  -2.608  -1.233  0.00  0.00    -0.007 A 
ATOM      9  C   UNL     1       4.908  -3.127  -1.216  0.00  0.00    +0.072 A 
ATOM     10  N   UNL     1       5.533  -3.377  -0.069  0.00  0.00    -0.247 NA
ATOM     11  C   UNL     1       5.395  -3.319  -2.594  0.00  0.00    -0.018 C 
ATOM     12  C   UNL     1       6.607  -3.800  -2.943  0.00  0.00    +0.052 C 
ATOM     13  C   UNL     1       4.308  -2.886  -3.546  0.00  0.00    +0.042 C 
ATOM     14  C   UNL     1       3.144  -2.424  -2.659  0.00  0.00    +0.043 C 
ENDROOT
BRANCH  12  15
ATOM     15  C   UNL     1       6.959  -3.938  -4.357  0.00  0.00    +0.128 A 
ATOM     16  C   UNL     1       8.147  -4.404  -4.847  0.00  0.00    +0.049 A 
ATOM     17  C   UNL     1       8.047  -4.368  -6.248  0.00  0.00    +0.042 A 
ATOM     18  C   UNL     1       6.824  -3.882  -6.548  0.00  0.00    +0.195 A 
ATOM     19  O   UNL     1       6.170  -3.623  -5.404  0.00  0.00    -0.464 OA
ENDBRANCH  12  15
BRANCH   7  20
ATOM     20  C   UNL     1       1.572  -1.802  -0.023  0.00  0.00    +0.341 C 
ATOM     21  O   UNL     1       0.619  -2.555  -0.018  0.00  0.00    -0.245 OA
BRANCH  20  22
ATOM     22  O   UNL     1       1.377  -0.469  -0.014  0.00  0.00    -0.452 OA
BRANCH  22  23
ATOM     23  C   UNL     1       0.002  -0.004   0.002  0.00  0.00    +0.328 C 
BRANCH  23  24
ATOM     24  C   UNL     1      -0.018   1.503   0.010  0.00  0.00    +0.255 C 
ATOM     25  O   UNL     1       1.024   2.123   0.004  0.00  0.00    -0.272 OA
ATOM     26  N   UNL     1      -1.195   2.161   0.019  0.00  0.00    -0.277 N 
ATOM     27  H   UNL     1      -2.028   1.664   0.021  0.00  0.00    +0.155 HD
BRANCH  26  28
ATOM     28  C   UNL     1      -1.213   3.547   0.027  0.00  0.00    +0.084 A 
ATOM     29  C   UNL     1      -2.314   4.396   0.031  0.00  0.00    +0.065 A 
ATOM     30  C   UNL     1      -2.041   5.813   0.043  0.00  0.00    +0.022 A 
ATOM     31  C   UNL     1      -0.750   6.190   0.038  0.00  0.00    +0.048 A 
ATOM     32  S   UNL     1       0.129   4.641   0.026  0.00  0.00    -0.081 S 
BRANCH  29  33
ATOM     33  C   UNL     1      -3.685   3.877   0.028  0.00  0.00    +0.244 C 
ATOM     34  O   UNL     1      -3.881   2.675   0.021  0.00  0.00    -0.270 OA
ATOM     35  N   UNL     1      -4.729   4.729   0.032  0.00  0.00    -0.325 N 
ATOM     36  H   UNL     1      -4.573   5.687   0.037  0.00  0.00    +0.145 HD
ATOM     37  H   UNL     1      -5.636   4.386   0.030  0.00  0.00    +0.145 HD
ENDBRANCH  29  33
ENDBRANCH  26  28
ENDBRANCH  23  24
ENDBRANCH  22  23
ENDBRANCH  20  22
ENDBRANCH   7  20
TORSDOF 7
