REMARK  Name = ZINC39672864
REMARK  8 active torsions:
REMARK  status: ('A' for Active; 'I' for Inactive)
REMARK    1  A    between atoms: C_1  and  C_2
REMARK    2  A    between atoms: C_2  and  C_4
REMARK    3  A    between atoms: C_2  and  O_33
REMARK    4  A    between atoms: C_8  and  C_17
REMARK    5  A    between atoms: N_19  and  C_20
REMARK    6  A    between atoms: C_20  and  C_21
REMARK    7  A    between atoms: C_21  and  N_27
REMARK    8  A    between atoms: O_33  and  C_34
REMARK                            x       y       z     vdW  Elec       q    Type
REMARK                         _______ _______ _______ _____ _____    ______ ____
ROOT
ATOM      1  C   UNL     1       2.383  -0.714  -1.295  0.00  0.00    +0.256 C 
ATOM      2  O   UNL     1       3.563  -0.942  -1.131  0.00  0.00    -0.272 OA
ATOM      3  N   UNL     1       1.848  -0.786  -2.530  0.00  0.00    -0.297 N 
ATOM      4  C   UNL     1       0.425  -0.629  -2.913  0.00  0.00    +0.121 C 
ATOM      5  C   UNL     1       0.463   0.171  -4.235  0.00  0.00    +0.100 C 
ATOM      6  C   UNL     1       1.859  -0.105  -4.820  0.00  0.00    -0.004 C 
ATOM      7  C   UNL     1       2.550  -1.034  -3.812  0.00  0.00    +0.115 C 
ATOM      8  C   UNL     1       2.643   1.197  -4.952  0.00  0.00    -0.010 C 
ATOM      9  C   UNL     1       4.005   0.905  -5.589  0.00  0.00    -0.082 C 
ATOM     10  N   UNL     1       3.809   0.292  -6.908  0.00  0.00    +0.379 N 
ATOM     11  C   UNL     1       3.136  -1.005  -6.763  0.00  0.00    -0.082 C 
ATOM     12  C   UNL     1       1.737  -0.793  -6.176  0.00  0.00    -0.010 C 
ATOM     13  H   UNL     1       3.243   0.901  -7.480  0.00  0.00    -0.086 HD
ATOM     14  H   UNL     1       4.705   0.156  -7.351  0.00  0.00    -0.086 HD
ENDROOT
BRANCH   5  15
ATOM     15  C   UNL     1      -0.608  -0.319  -5.175  0.00  0.00    +0.218 C 
ATOM     16  O   UNL     1      -0.993  -1.467  -5.112  0.00  0.00    -0.275 OA
ATOM     17  N   UNL     1      -1.139   0.520  -6.087  0.00  0.00    -0.313 N 
ATOM     18  H   UNL     1      -0.832   1.439  -6.138  0.00  0.00    +0.149 HD
BRANCH  17  19
ATOM     19  C   UNL     1      -2.181   0.045  -7.001  0.00  0.00    +0.126 C 
BRANCH  19  20
ATOM     20  C   UNL     1      -2.522   1.149  -8.004  0.00  0.00    +0.038 C 
ATOM     21  C   UNL     1      -3.711   0.710  -8.861  0.00  0.00    +0.024 C 
ATOM     22  C   UNL     1      -3.351  -0.572  -9.615  0.00  0.00    +0.002 C 
ATOM     23  C   UNL     1      -2.142  -0.311 -10.516  0.00  0.00    +0.000 C 
ATOM     24  C   UNL     1      -0.953   0.128  -9.659  0.00  0.00    +0.002 C 
ATOM     25  C   UNL     1      -1.313   1.410  -8.905  0.00  0.00    +0.024 C 
BRANCH  20  26
ATOM     26  N   UNL     1      -2.867   2.379  -7.280  0.00  0.00    -0.291 NA
ATOM     27  C   UNL     1      -3.988   2.150  -6.357  0.00  0.00    +0.113 C 
ATOM     28  C   UNL     1      -4.276   3.438  -5.582  0.00  0.00    +0.175 C 
ATOM     29  O   UNL     1      -4.543   4.496  -6.507  0.00  0.00    -0.377 OA
ATOM     30  C   UNL     1      -3.472   4.747  -7.421  0.00  0.00    +0.175 C 
ATOM     31  C   UNL     1      -3.176   3.471  -8.214  0.00  0.00    +0.113 C 
ENDBRANCH  20  26
ENDBRANCH  19  20
ENDBRANCH  17  19
ENDBRANCH   5  15
BRANCH   1  33
ATOM     32  C   UNL     1       1.086   1.113  -0.232  0.00  0.00    +0.062 C 
ATOM     33  C   UNL     1       1.515  -0.352  -0.117  0.00  0.00    +0.256 C 
BRANCH  33  34
ATOM     34  O   UNL     1       2.252  -0.539   1.093  0.00  0.00    -0.480 OA
BRANCH  34  35
ATOM     35  C   UNL     1       1.533  -0.774   2.222  0.00  0.00    +0.122 A 
ATOM     36  C   UNL     1       0.148  -0.716   2.189  0.00  0.00    +0.045 A 
ATOM     37  C   UNL     1      -0.580  -0.956   3.338  0.00  0.00    +0.004 A 
ATOM     38  C   UNL     1       0.071  -1.252   4.521  0.00  0.00    +0.000 A 
ATOM     39  C   UNL     1       1.452  -1.309   4.557  0.00  0.00    +0.004 A 
ATOM     40  C   UNL     1       2.184  -1.077   3.409  0.00  0.00    +0.045 A 
ENDBRANCH  34  35
ENDBRANCH  33  34
ENDBRANCH   1  33
TORSDOF 7
