REMARK  Name = ZINC29393883
REMARK  5 active torsions:
REMARK  status: ('A' for Active; 'I' for Inactive)
REMARK    1  A    between atoms: C_6  and  C_7
REMARK    2  A    between atoms: C_9  and  C_12
REMARK    3  A    between atoms: C_12  and  O_13
REMARK    4  A    between atoms: O_13  and  C_14
REMARK    5  A    between atoms: C_17  and  C_21
REMARK                            x       y       z     vdW  Elec       q    Type
REMARK                         _______ _______ _______ _____ _____    ______ ____
ROOT
ATOM      1  C   UNL     1      -5.535  -1.777   0.638  0.00  0.00    +0.259 A 
ATOM      2  N   UNL     1      -4.396  -1.294   1.101  0.00  0.00    -0.188 NA
ATOM      3  C   UNL     1      -3.676  -0.969   0.015  0.00  0.00    +0.209 A 
ATOM      4  N   UNL     1      -4.386  -1.269  -1.032  0.00  0.00    -0.057 NA
ATOM      5  O   UNL     1      -5.456  -1.734  -0.701  0.00  0.00    -0.333 OA
ENDROOT
BRANCH   1  11
ATOM      6  C   UNL     1      -6.607  -2.263   2.833  0.00  0.00    +0.015 A 
ATOM      7  C   UNL     1      -7.674  -2.723   3.576  0.00  0.00    +0.021 A 
ATOM      8  C   UNL     1      -8.805  -3.208   2.940  0.00  0.00    +0.041 A 
ATOM      9  C   UNL     1      -8.874  -3.228   1.557  0.00  0.00    +0.021 A 
ATOM     10  C   UNL     1      -7.816  -2.765   0.804  0.00  0.00    +0.015 A 
ATOM     11  C   UNL     1      -6.673  -2.275   1.439  0.00  0.00    +0.040 A 
ATOM     12 CL   UNL     1     -10.142  -3.792   3.881  0.00  0.00    -0.084 Cl
ENDBRANCH   1  11
BRANCH   3  13
ATOM     13  C   UNL     1      -2.293  -0.370   0.012  0.00  0.00    +0.308 C 
BRANCH  13  14
ATOM     14  O   UNL     1      -2.391   1.055   0.019  0.00  0.00    -0.483 OA
BRANCH  14  15
ATOM     15  C   UNL     1      -1.226   1.753   0.017  0.00  0.00    +0.139 A 
ATOM     16  C   UNL     1      -0.013   1.076   0.008  0.00  0.00    +0.048 A 
ATOM     17  C   UNL     1       1.171   1.780   0.000  0.00  0.00    +0.022 A 
ATOM     18  C   UNL     1       1.152   3.177   0.008  0.00  0.00    +0.053 A 
ATOM     19  C   UNL     1      -0.070   3.855   0.022  0.00  0.00    +0.042 A 
ATOM     20  C   UNL     1      -1.250   3.143   0.030  0.00  0.00    +0.084 A 
ATOM     21 CL   UNL     1      -2.769   3.983   0.048  0.00  0.00    -0.080 Cl
BRANCH  18  22
ATOM     22  C   UNL     1       2.381   3.912  -0.001  0.00  0.00    +0.099 C 
ATOM     23  N   UNL     1       3.356   4.495  -0.007  0.00  0.00    -0.191 NA
ENDBRANCH  18  22
ENDBRANCH  14  15
ENDBRANCH  13  14
ENDBRANCH   3  13
TORSDOF 5
