REMARK  Name = ZINC14382950
REMARK  10 active torsions:
REMARK  status: ('A' for Active; 'I' for Inactive)
REMARK    1  A    between atoms: C_1  and  O_2
REMARK    2  A    between atoms: O_2  and  C_3
REMARK    3  A    between atoms: C_8  and  C_9
REMARK    4  A    between atoms: C_9  and  C_10
REMARK    5  A    between atoms: N_12  and  C_13
REMARK    6  A    between atoms: N_12  and  C_20
REMARK    7  A    between atoms: C_13  and  C_14
REMARK    8  A    between atoms: C_21  and  N_36
REMARK    9  A    between atoms: N_22  and  C_29
REMARK   10  A    between atoms: C_29  and  C_30
REMARK                            x       y       z     vdW  Elec       q    Type
REMARK                         _______ _______ _______ _____ _____    ______ ____
ROOT
ATOM      1  C   UNL     1       0.623   2.324  -0.013  0.00  0.00    +0.225 C 
ATOM      2  O   UNL     1       0.492   3.517   0.162  0.00  0.00    -0.275 OA
ATOM      3  N   UNL     1      -0.441   1.503   0.111  0.00  0.00    -0.260 N 
ENDROOT
BRANCH   3   4
ATOM      4  C   UNL     1      -1.724   2.041   0.341  0.00  0.00    +0.140 A 
ATOM      5  C   UNL     1      -2.381   1.807   1.532  0.00  0.00    +0.128 A 
ATOM      6  N   UNL     1      -3.629   2.349   1.728  0.00  0.00    -0.276 N 
ATOM      7  C   UNL     1      -4.208   3.091   0.767  0.00  0.00    +0.331 A 
ATOM      8  O   UNL     1      -5.314   3.558   0.959  0.00  0.00    -0.246 OA
ATOM      9  N   UNL     1      -3.586   3.326  -0.402  0.00  0.00    -0.273 N 
ATOM     10  H   UNL     1      -4.038   3.881  -1.099  0.00  0.00    +0.173 HD
ATOM     11  C   UNL     1      -2.360   2.822  -0.643  0.00  0.00    +0.277 A 
ATOM     12  O   UNL     1      -1.804   3.041  -1.706  0.00  0.00    -0.266 OA
BRANCH   5  13
ATOM     13  N   UNL     1      -1.792   1.044   2.511  0.00  0.00    -0.343 N 
ATOM     14  H   UNL     1      -0.882   0.726   2.398  0.00  0.00    +0.144 HD
ATOM     15  H   UNL     1      -2.285   0.823   3.317  0.00  0.00    +0.144 HD
ENDBRANCH   5  13
BRANCH   6  16
ATOM     16  C   UNL     1      -4.335   2.112   2.990  0.00  0.00    +0.163 C 
BRANCH  16  17
ATOM     17  C   UNL     1      -5.166   0.860   2.873  0.00  0.00    -0.028 A 
ATOM     18  C   UNL     1      -6.473   0.937   2.429  0.00  0.00    +0.005 A 
ATOM     19  C   UNL     1      -7.234  -0.212   2.317  0.00  0.00    +0.000 A 
ATOM     20  C   UNL     1      -6.691  -1.436   2.659  0.00  0.00    +0.000 A 
ATOM     21  C   UNL     1      -5.385  -1.512   3.107  0.00  0.00    +0.000 A 
ATOM     22  C   UNL     1      -4.623  -0.364   3.214  0.00  0.00    +0.005 A 
ENDBRANCH  16  17
ENDBRANCH   6  16
ENDBRANCH   3   4
BRANCH   1  23
ATOM     23  C   UNL     1       1.974   1.758  -0.368  0.00  0.00    +0.135 C 
BRANCH  23  29
ATOM     24  C   UNL     1       3.609   3.180   0.893  0.00  0.00    +0.124 A 
ATOM     25  C   UNL     1       4.561   4.189   0.941  0.00  0.00    +0.046 A 
ATOM     26  C   UNL     1       4.907   4.865  -0.213  0.00  0.00    +0.004 A 
ATOM     27  C   UNL     1       4.305   4.538  -1.415  0.00  0.00    +0.001 A 
ATOM     28  C   UNL     1       3.361   3.529  -1.465  0.00  0.00    +0.008 A 
ATOM     29  C   UNL     1       3.008   2.853  -0.313  0.00  0.00    +0.003 A 
BRANCH  24  31
ATOM     30  C   UNL     1       3.928   2.902   3.233  0.00  0.00    +0.277 C 
ATOM     31  O   UNL     1       3.268   2.513   2.027  0.00  0.00    -0.495 OA
ENDBRANCH  24  31
ENDBRANCH  23  29
ENDBRANCH   1  23
BRANCH   3  32
ATOM     32  C   UNL     1      -0.264   0.052  -0.000  0.00  0.00    +0.149 C 
BRANCH  32  33
ATOM     33  C   UNL     1      -0.527  -0.379  -1.420  0.00  0.00    -0.030 A 
ATOM     34  C   UNL     1      -1.821  -0.621  -1.841  0.00  0.00    +0.005 A 
ATOM     35  C   UNL     1      -2.063  -1.011  -3.145  0.00  0.00    +0.000 A 
ATOM     36  C   UNL     1      -1.009  -1.169  -4.025  0.00  0.00    +0.000 A 
ATOM     37  C   UNL     1       0.286  -0.933  -3.603  0.00  0.00    +0.000 A 
ATOM     38  C   UNL     1       0.527  -0.537  -2.301  0.00  0.00    +0.005 A 
ENDBRANCH  32  33
ENDBRANCH   3  32
TORSDOF 9
