REMARK  Name = ZINC59305494
REMARK  7 active torsions:
REMARK  status: ('A' for Active; 'I' for Inactive)
REMARK    1  A    between atoms: C_1  and  C_2
REMARK    2  A    between atoms: C_2  and  O_3
REMARK    3  A    between atoms: O_3  and  C_4
REMARK    4  A    between atoms: C_6  and  C_13
REMARK    5  A    between atoms: C_9  and  O_10
REMARK    6  A    between atoms: N_14  and  N_15
REMARK    7  A    between atoms: C_16  and  C_18
REMARK                            x       y       z     vdW  Elec       q    Type
REMARK                         _______ _______ _______ _____ _____    ______ ____
ROOT
ATOM      1  C   UNL     1      -0.212  -4.963   0.449  0.00  0.00    +0.139 C 
ATOM      2  N   UNL     1      -0.108  -6.247   0.290  0.00  0.00    -0.187 NA
ENDROOT
BRANCH   1   5
ATOM      3  C   UNL     1       0.777  -1.811  -1.336  0.00  0.00    +0.164 A 
ATOM      4  C   UNL     1       0.244  -2.665  -0.389  0.00  0.00    +0.060 A 
ATOM      5  C   UNL     1       0.354  -4.048  -0.558  0.00  0.00    +0.014 A 
ATOM      6  C   UNL     1       1.003  -4.561  -1.685  0.00  0.00    +0.049 A 
ATOM      7  C   UNL     1       1.532  -3.701  -2.627  0.00  0.00    +0.100 A 
ATOM      8  C   UNL     1       1.417  -2.328  -2.460  0.00  0.00    +0.178 A 
ATOM      9 CL   UNL     1       2.338  -4.339  -4.026  0.00  0.00    -0.078 Cl
ATOM     10 BR   UNL     1       1.156  -6.431  -1.920  0.00  0.00    -0.048 Br
BRANCH   8  11
ATOM     11  O   UNL     1       1.935  -1.486  -3.393  0.00  0.00    -0.502 OA
ATOM     12  H   UNL     1       2.854  -1.234  -3.228  0.00  0.00    +0.292 HD
ENDBRANCH   8  11
BRANCH   3  13
ATOM     13  O   UNL     1       0.671  -0.465  -1.174  0.00  0.00    -0.489 OA
BRANCH  13  15
ATOM     14  C   UNL     1      -0.019   1.526   0.010  0.00  0.00    +0.048 C 
ATOM     15  C   UNL     1       0.002  -0.004   0.002  0.00  0.00    +0.226 C 
ENDBRANCH  13  15
ENDBRANCH   3  13
ENDBRANCH   1   5
BRANCH   2  16
ATOM     16  N   UNL     1      -0.646  -7.117   1.248  0.00  0.00    -0.200 N 
ATOM     17  C   UNL     1      -0.539  -8.451   1.083  0.00  0.00    +0.299 C 
ATOM     18  O   UNL     1       0.025  -8.899   0.102  0.00  0.00    -0.265 OA
ATOM     19  H   UNL     1      -1.096  -6.760   2.030  0.00  0.00    +0.178 HD
BRANCH  17  20
ATOM     20  C   UNL     1      -1.103  -9.363   2.087  0.00  0.00    +0.192 A 
ATOM     21  C   UNL     1      -1.050 -10.719   2.028  0.00  0.00    +0.063 A 
ATOM     22  C   UNL     1      -1.732 -11.203   3.228  0.00  0.00    +0.021 A 
ATOM     23  C   UNL     1      -2.011 -12.470   3.745  0.00  0.00    +0.011 A 
ATOM     24  C   UNL     1      -2.687 -12.586   4.927  0.00  0.00    +0.001 A 
ATOM     25  C   UNL     1      -3.099 -11.453   5.615  0.00  0.00    +0.004 A 
ATOM     26  C   UNL     1      -2.834 -10.194   5.122  0.00  0.00    +0.047 A 
ATOM     27  C   UNL     1      -2.146 -10.051   3.922  0.00  0.00    +0.136 A 
ATOM     28  O   UNL     1      -1.747  -8.980   3.209  0.00  0.00    -0.450 OA
ENDBRANCH  17  20
ENDBRANCH   2  16
TORSDOF 6
