REMARK  Name = ZINC63699139
REMARK  9 active torsions:
REMARK  status: ('A' for Active; 'I' for Inactive)
REMARK    1  A    between atoms: C_1  and  C_2
REMARK    2  A    between atoms: N_5  and  C_8
REMARK    3  A    between atoms: C_8  and  C_9
REMARK    4  A    between atoms: C_8  and  C_10
REMARK    5  A    between atoms: C_10  and  N_11
REMARK    6  A    between atoms: C_12  and  C_14
REMARK    7  A    between atoms: C_17  and  C_20
REMARK    8  A    between atoms: C_20  and  S_21
REMARK    9  A    between atoms: S_21  and  C_22
REMARK                            x       y       z     vdW  Elec       q    Type
REMARK                         _______ _______ _______ _____ _____    ______ ____
ROOT
ATOM      1  N   UNL     1       1.651  -3.736  -2.468  0.00  0.00    -0.313 N 
ATOM      2  C   UNL     1       1.989  -4.060  -3.732  0.00  0.00    +0.244 C 
ATOM      3  O   UNL     1       2.880  -4.860  -3.937  0.00  0.00    -0.270 OA
ATOM      4  H   UNL     1       0.939  -3.098  -2.305  0.00  0.00    +0.149 HD
ENDROOT
BRANCH   2   5
ATOM      5  C   UNL     1       1.275  -3.441  -4.870  0.00  0.00    +0.037 A 
ATOM      6  C   UNL     1       0.255  -2.518  -4.638  0.00  0.00    +0.013 A 
ATOM      7  C   UNL     1      -0.407  -1.944  -5.704  0.00  0.00    +0.005 A 
ATOM      8  C   UNL     1      -0.062  -2.283  -7.000  0.00  0.00    -0.037 A 
ATOM      9  C   UNL     1       0.949  -3.198  -7.237  0.00  0.00    +0.005 A 
ATOM     10  C   UNL     1       1.623  -3.774  -6.180  0.00  0.00    +0.013 A 
BRANCH   8  11
ATOM     11  C   UNL     1      -0.789  -1.652  -8.160  0.00  0.00    +0.112 C 
BRANCH  11  12
ATOM     12  S   UNL     1       0.063  -0.128  -8.652  0.00  0.00    -0.082 S 
BRANCH  12  13
ATOM     13  C   UNL     1      -0.896   0.481  -9.999  0.00  0.00    +0.184 A 
ATOM     14  N   UNL     1      -1.978  -0.081 -10.496  0.00  0.00    -0.209 NA
ATOM     15  H   UNL     1       0.072   2.236 -10.563  0.00  0.00    +0.191 HD
ATOM     16  C   UNL     1      -2.441   0.655 -11.508  0.00  0.00    +0.245 A 
ATOM     17  N   UNL     1      -1.666   1.693 -11.672  0.00  0.00    -0.160 NA
ATOM     18  N   UNL     1      -0.656   1.609 -10.701  0.00  0.00    -0.254 N 
ENDBRANCH  12  13
ENDBRANCH  11  12
ENDBRANCH   8  11
ENDBRANCH   2   5
BRANCH   1  19
ATOM     19  C   UNL     1       2.358  -4.349  -1.341  0.00  0.00    +0.089 C 
BRANCH  19  20
ATOM     20  C   UNL     1       1.709  -3.904  -0.029  0.00  0.00    -0.054 C 
ATOM     21  C   UNL     1       2.499  -4.475   1.150  0.00  0.00    -0.012 C 
BRANCH  20  26
ATOM     22  C   UNL     1       2.260   1.619   1.282  0.00  0.00    +0.007 C 
ATOM     23  C   UNL     1       2.320   0.091   1.323  0.00  0.00    -0.018 C 
ATOM     24  C   UNL     1       0.899  -0.479   1.276  0.00  0.00    -0.016 C 
ATOM     25  C   UNL     1       0.970  -2.007   1.237  0.00  0.00    -0.078 C 
ATOM     26  N   UNL     1       1.711  -2.437   0.045  0.00  0.00    +0.382 N 
ATOM     27  C   UNL     1       3.095  -1.954   0.119  0.00  0.00    -0.078 C 
ATOM     28  C   UNL     1       3.107  -0.424   0.115  0.00  0.00    -0.016 C 
ATOM     29  H   UNL     1       1.268  -2.060  -0.779  0.00  0.00    -0.081 HD
ENDBRANCH  20  26
ENDBRANCH  19  20
ENDBRANCH   1  19
TORSDOF 7
