REMARK  Name = ZINC34835759
REMARK  17 active torsions:
REMARK  status: ('A' for Active; 'I' for Inactive)
REMARK    1  A    between atoms: C_1  and  C_2
REMARK    2  A    between atoms: C_2  and  C_3
REMARK    3  A    between atoms: C_3  and  C_4
REMARK    4  A    between atoms: C_4  and  N_5
REMARK    5  A    between atoms: N_8  and  C_9
REMARK    6  A    between atoms: N_8  and  C_33
REMARK    7  A    between atoms: C_9  and  C_10
REMARK    8  A    between atoms: C_11  and  C_31
REMARK    9  A    between atoms: N_13  and  C_24
REMARK   10  A    between atoms: C_14  and  N_15
REMARK   11  A    between atoms: N_18  and  C_21
REMARK   12  A    between atoms: C_21  and  C_22
REMARK   13  A    between atoms: C_21  and  C_23
REMARK   14  A    between atoms: C_31  and  C_32
REMARK   15  A    between atoms: C_33  and  C_34
REMARK   16  A    between atoms: C_34  and  C_35
REMARK   17  A    between atoms: C_34  and  C_36
REMARK                            x       y       z     vdW  Elec       q    Type
REMARK                         _______ _______ _______ _____ _____    ______ ____
ROOT
ATOM      1  C   UNL     1      -4.715  -6.937   1.555  0.00  0.00    +0.033 A 
ATOM      2  C   UNL     1      -3.522  -7.125   2.259  0.00  0.00    +0.070 A 
ATOM      3  N   UNL     1      -3.674  -6.645   3.467  0.00  0.00    -0.169 NA
ATOM      4  N   UNL     1      -4.972  -6.132   3.580  0.00  0.00    -0.218 N 
ATOM      5  C   UNL     1      -5.598  -6.317   2.386  0.00  0.00    +0.130 A 
ENDROOT
BRANCH   5   6
ATOM      6  N   UNL     1      -6.902  -5.944   2.073  0.00  0.00    -0.318 N 
ATOM      7  C   UNL     1      -8.051  -6.677   2.626  0.00  0.00    +0.088 C 
ATOM      8  C   UNL     1      -9.023  -5.663   3.239  0.00  0.00    -0.059 C 
ATOM      9  N   UNL     1      -9.375  -4.653   2.233  0.00  0.00    +0.383 N 
ATOM     10  C   UNL     1      -8.183  -3.882   1.860  0.00  0.00    -0.059 C 
ATOM     11  C   UNL     1      -7.169  -4.804   1.183  0.00  0.00    +0.088 C 
ATOM     12  H   UNL     1      -9.747  -5.111   1.415  0.00  0.00    -0.081 HD
BRANCH   9  13
ATOM     13  C   UNL     1     -10.390  -3.746   2.786  0.00  0.00    -0.075 C 
ATOM     14  C   UNL     1     -10.758  -2.693   1.739  0.00  0.00    -0.014 C 
ATOM     15  C   UNL     1     -11.637  -4.547   3.164  0.00  0.00    -0.014 C 
ENDBRANCH   9  13
ENDBRANCH   5   6
BRANCH   4  16
ATOM     16  C   UNL     1      -5.527  -5.529   4.719  0.00  0.00    +0.068 A 
ATOM     17  C   UNL     1      -6.379  -4.441   4.585  0.00  0.00    +0.030 A 
ATOM     18  C   UNL     1      -6.924  -3.850   5.707  0.00  0.00    +0.040 A 
ATOM     19  C   UNL     1      -6.621  -4.341   6.966  0.00  0.00    +0.124 A 
ATOM     20  C   UNL     1      -5.772  -5.426   7.102  0.00  0.00    +0.040 A 
ATOM     21  C   UNL     1      -5.230  -6.024   5.981  0.00  0.00    +0.030 A 
ATOM     22  F   UNL     1      -7.156  -3.761   8.063  0.00  0.00    -0.205 F 
ENDBRANCH   4  16
BRANCH   2  23
ATOM     23  C   UNL     1      -2.272  -7.771   1.719  0.00  0.00    +0.054 C 
ATOM     24  C   UNL     1      -1.313  -6.688   1.221  0.00  0.00    +0.010 C 
ENDBRANCH   2  23
BRANCH   1  25
ATOM     25  C   UNL     1      -4.975  -7.343   0.127  0.00  0.00    +0.149 C 
BRANCH  25  29
ATOM     26  N   UNL     1      -7.697  -9.798  -0.148  0.00  0.00    -0.299 N 
ATOM     27  C   UNL     1      -7.040  -8.626  -0.033  0.00  0.00    +0.303 C 
ATOM     28  O   UNL     1      -7.657  -7.579  -0.055  0.00  0.00    -0.253 OA
ATOM     29  N   UNL     1      -5.700  -8.616   0.106  0.00  0.00    -0.281 N 
ATOM     30  H   UNL     1      -7.205 -10.633  -0.130  0.00  0.00    +0.150 HD
BRANCH  26  31
ATOM     31  C   UNL     1      -9.155  -9.809  -0.299  0.00  0.00    +0.106 C 
BRANCH  31  32
ATOM     32  C   UNL     1      -9.645 -11.254  -0.407  0.00  0.00    +0.018 C 
BRANCH  32  34
ATOM     33  C   UNL     1     -11.658 -12.710  -0.673  0.00  0.00    +0.004 C 
ATOM     34  C   UNL     1     -11.167 -11.265  -0.565  0.00  0.00    -0.002 C 
ENDBRANCH  32  34
ENDBRANCH  31  32
ENDBRANCH  26  31
BRANCH  29  35
ATOM     35  C   UNL     1      -4.968  -9.878   0.236  0.00  0.00    +0.112 C 
BRANCH  35  36
ATOM     36  C   UNL     1      -4.545 -10.368  -1.150  0.00  0.00    +0.000 C 
ATOM     37  C   UNL     1      -3.675 -11.618  -1.006  0.00  0.00    +0.009 C 
ATOM     38  C   UNL     1      -5.790 -10.706  -1.973  0.00  0.00    +0.009 C 
ENDBRANCH  35  36
ENDBRANCH  29  35
ENDBRANCH  25  29
ENDBRANCH   1  25
TORSDOF 11
