REMARK  Name = ZINC15900564
REMARK  7 active torsions:
REMARK  status: ('A' for Active; 'I' for Inactive)
REMARK    1  A    between atoms: C_1  and  C_2
REMARK    2  A    between atoms: C_5  and  S_24
REMARK    3  A    between atoms: C_7  and  C_8
REMARK    4  A    between atoms: N_10  and  N_11
REMARK    5  A    between atoms: C_12  and  C_14
REMARK    6  A    between atoms: S_24  and  N_27
REMARK    7  A    between atoms: C_32  and  C_34
REMARK                            x       y       z     vdW  Elec       q    Type
REMARK                         _______ _______ _______ _____ _____    ______ ____
ROOT
ATOM      1  C   UNL     1      -4.886   9.585  -3.620  0.00  0.00    +0.260 C 
ATOM      2  O   UNL     1      -5.462   9.530  -4.689  0.00  0.00    -0.269 OA
ATOM      3  N   UNL     1      -4.909   8.526  -2.788  0.00  0.00    -0.230 N 
ATOM      4  H   UNL     1      -4.449   8.570  -1.935  0.00  0.00    +0.173 HD
ENDROOT
BRANCH   1  11
ATOM      5  C   UNL     1      -4.657  11.765  -5.509  0.00  0.00    +0.044 C 
ATOM      6  C   UNL     1      -4.044  11.872  -4.137  0.00  0.00    -0.038 A 
ATOM      7  C   UNL     1      -3.366  13.016  -3.769  0.00  0.00    +0.006 A 
ATOM      8  C   UNL     1      -2.803  13.117  -2.510  0.00  0.00    +0.029 A 
ATOM      9  C   UNL     1      -2.916  12.071  -1.610  0.00  0.00    +0.106 A 
ATOM     10  C   UNL     1      -3.596  10.924  -1.962  0.00  0.00    +0.042 A 
ATOM     11  C   UNL     1      -4.161  10.814  -3.234  0.00  0.00    +0.043 A 
BRANCH   9  12
ATOM     12  S   UNL     1      -2.195  12.209  -0.008  0.00  0.00    +0.061 S 
ATOM     13  O   UNL     1      -1.817  10.896   0.381  0.00  0.00    -0.153 OA
ATOM     14  O   UNL     1      -1.265  13.282  -0.072  0.00  0.00    -0.153 OA
BRANCH  12  15
ATOM     15  N   UNL     1      -3.394  12.683   1.030  0.00  0.00    -0.174 NA
ATOM     16  C   UNL     1      -4.087  11.700   1.873  0.00  0.00    +0.110 C 
ATOM     17  C   UNL     1      -4.008  12.166   3.334  0.00  0.00    +0.017 C 
ATOM     18  C   UNL     1      -4.565  13.588   3.441  0.00  0.00    +0.003 C 
ATOM     19  C   UNL     1      -3.718  14.534   2.586  0.00  0.00    +0.020 C 
ATOM     20  C   UNL     1      -3.791  14.095   1.121  0.00  0.00    +0.077 C 
ATOM     21  C   UNL     1      -2.839  14.950   0.281  0.00  0.00    +0.026 C 
ENDBRANCH  12  15
ENDBRANCH   9  12
ENDBRANCH   1  11
BRANCH   3  22
ATOM     22  N   UNL     1      -5.596   7.361  -3.154  0.00  0.00    -0.234 N 
ATOM     23  C   UNL     1      -5.618   6.301  -2.321  0.00  0.00    +0.235 C 
ATOM     24  O   UNL     1      -5.043   6.356  -1.254  0.00  0.00    -0.274 OA
ATOM     25  H   UNL     1      -6.055   7.317  -4.007  0.00  0.00    +0.173 HD
BRANCH  23  26
ATOM     26  C   UNL     1      -6.357   5.049  -2.715  0.00  0.00    +0.049 C 
ATOM     27  C   UNL     1      -5.760   4.490  -4.008  0.00  0.00    +0.019 C 
ATOM     28  C   UNL     1      -6.510   3.218  -4.408  0.00  0.00    -0.009 C 
ATOM     29  C   UNL     1      -6.379   2.177  -3.295  0.00  0.00    +0.007 C 
ATOM     30  C   UNL     1      -6.976   2.736  -2.002  0.00  0.00    -0.009 C 
ATOM     31  C   UNL     1      -6.226   4.008  -1.601  0.00  0.00    +0.019 C 
ATOM     32  C   UNL     1      -8.454   3.063  -2.222  0.00  0.00    +0.007 C 
ATOM     33  C   UNL     1      -8.585   4.104  -3.336  0.00  0.00    -0.009 C 
ATOM     34  C   UNL     1      -7.988   3.546  -4.629  0.00  0.00    +0.007 C 
ATOM     35  C   UNL     1      -7.835   5.376  -2.936  0.00  0.00    +0.019 C 
ENDBRANCH  23  26
ENDBRANCH   3  22
TORSDOF 5
