REMARK  Name = ZINC35668898
REMARK  5 active torsions:
REMARK  status: ('A' for Active; 'I' for Inactive)
REMARK    1  A    between atoms: C_3  and  O_22
REMARK    2  A    between atoms: C_6  and  C_7
REMARK    3  A    between atoms: C_19  and  O_21
REMARK    4  A    between atoms: O_22  and  C_23
REMARK    5  A    between atoms: C_23  and  C_25
REMARK                            x       y       z     vdW  Elec       q    Type
REMARK                         _______ _______ _______ _____ _____    ______ ____
ROOT
ATOM      1  C   UNL     1      -0.023   1.413  -0.104  0.00  0.00    +0.011 A 
ATOM      2  C   UNL     1       1.171   2.109  -0.105  0.00  0.00    +0.047 A 
ATOM      3  C   UNL     1       2.373   1.421  -0.020  0.00  0.00    +0.132 A 
ATOM      4  C   UNL     1       2.373   0.037   0.067  0.00  0.00    +0.047 A 
ATOM      5  C   UNL     1       1.177  -0.654   0.067  0.00  0.00    +0.011 A 
ATOM      6  C   UNL     1      -0.020   0.033  -0.018  0.00  0.00    -0.005 A 
ENDROOT
BRANCH   6   7
ATOM      7  C   UNL     1      -1.323  -0.723  -0.016  0.00  0.00    +0.224 C 
ATOM      8  N   UNL     1      -1.153  -1.974   0.744  0.00  0.00    -0.313 N 
ATOM      9  C   UNL     1      -1.280  -1.879   2.112  0.00  0.00    +0.080 A 
ATOM     10  C   UNL     1      -2.026  -0.860   2.716  0.00  0.00    +0.068 A 
ATOM     11  C   UNL     1      -2.059  -0.881   4.167  0.00  0.00    -0.023 A 
ATOM     12  C   UNL     1      -1.365  -1.896   4.730  0.00  0.00    -0.005 A 
ATOM     13  S   UNL     1      -0.687  -2.794   3.361  0.00  0.00    -0.078 S 
ATOM     14  C   UNL     1      -1.212  -2.182   6.191  0.00  0.00    +0.043 C 
ATOM     15  C   UNL     1      -1.652  -0.937   6.975  0.00  0.00    +0.005 C 
ATOM     16  C   UNL     1      -2.996  -0.453   6.424  0.00  0.00    +0.005 C 
ATOM     17  C   UNL     1      -2.804   0.133   5.024  0.00  0.00    +0.037 C 
ATOM     18  C   UNL     1      -2.701   0.117   1.823  0.00  0.00    +0.220 C 
ATOM     19  N   UNL     1      -2.361   0.119   0.564  0.00  0.00    -0.223 NA
ATOM     20  H   UNL     1      -0.961  -2.818   0.306  0.00  0.00    +0.149 HD
BRANCH  18  21
ATOM     21  O   UNL     1      -3.634   0.973   2.299  0.00  0.00    -0.492 OA
ATOM     22  H   UNL     1      -4.005   1.563   1.629  0.00  0.00    +0.294 HD
ENDBRANCH  18  21
ENDBRANCH   6   7
BRANCH   3  23
ATOM     23  O   UNL     1       3.549   2.104  -0.021  0.00  0.00    -0.422 OA
BRANCH  23  24
ATOM     24  C   UNL     1       3.846   2.853   1.058  0.00  0.00    +0.344 C 
ATOM     25  O   UNL     1       3.126   2.824   2.036  0.00  0.00    -0.245 OA
BRANCH  24  26
ATOM     26  C   UNL     1       5.048   3.712   1.052  0.00  0.00    +0.059 A 
ATOM     27  C   UNL     1       5.875   3.752  -0.072  0.00  0.00    +0.016 A 
ATOM     28  C   UNL     1       6.995   4.556  -0.071  0.00  0.00    +0.021 A 
ATOM     29  C   UNL     1       7.302   5.321   1.042  0.00  0.00    +0.041 A 
ATOM     30  C   UNL     1       6.486   5.284   2.161  0.00  0.00    +0.021 A 
ATOM     31  C   UNL     1       5.359   4.490   2.170  0.00  0.00    +0.016 A 
ATOM     32 CL   UNL     1       8.715   6.329   1.036  0.00  0.00    -0.084 Cl
ENDBRANCH  24  26
ENDBRANCH  23  24
ENDBRANCH   3  23
TORSDOF 5
