REMARK  Name = ZINC08623655
REMARK  6 active torsions:
REMARK  status: ('A' for Active; 'I' for Inactive)
REMARK    1  A    between atoms: C_4  and  C_7
REMARK    2  A    between atoms: C_9  and  C_12
REMARK    3  A    between atoms: C_12  and  C_13
REMARK    4  A    between atoms: C_18  and  C_20
REMARK    5  A    between atoms: C_20  and  C_21
REMARK    6  A    between atoms: C_26  and  N_29
REMARK                            x       y       z     vdW  Elec       q    Type
REMARK                         _______ _______ _______ _____ _____    ______ ____
ROOT
ATOM      1  C   UNL     1      -6.034  -1.184  -3.149  0.00  0.00    -0.019 C 
ATOM      2  C   UNL     1      -6.463  -1.880  -4.443  0.00  0.00    -0.079 C 
ATOM      3  C   UNL     1      -5.018  -0.448  -5.761  0.00  0.00    -0.082 C 
ATOM      4  C   UNL     1      -4.547   0.292  -4.507  0.00  0.00    -0.015 C 
ATOM      5  C   UNL     1      -4.604  -0.659  -3.308  0.00  0.00    -0.002 C 
ATOM      6  N   UNL     1      -6.401  -0.926  -5.567  0.00  0.00    +0.379 N 
ATOM      7  H   UNL     1      -7.010  -0.124  -5.364  0.00  0.00    -0.086 HD
ATOM      8  H   UNL     1      -6.721  -1.391  -6.424  0.00  0.00    -0.086 HD
ENDROOT
BRANCH   1   9
ATOM      9  C   UNL     1      -6.979  -0.015  -2.862  0.00  0.00    +0.061 C 
BRANCH   9  12
ATOM     10  C   UNL     1     -10.300  -0.992  -1.673  0.00  0.00    +0.167 A 
ATOM     11  C   UNL     1      -9.148  -0.292  -1.441  0.00  0.00    +0.076 A 
ATOM     12  C   UNL     1      -8.362  -0.544  -2.585  0.00  0.00    +0.084 A 
ATOM     13  N   UNL     1      -9.069  -1.319  -3.358  0.00  0.00    -0.083 NA
ATOM     14  O   UNL     1     -10.143  -1.585  -2.871  0.00  0.00    -0.354 OA
BRANCH  10  18
ATOM     15  C   UNL     1     -13.690  -1.245   0.874  0.00  0.00    +0.000 A 
ATOM     16  C   UNL     1     -13.685  -1.918  -0.335  0.00  0.00    +0.001 A 
ATOM     17  C   UNL     1     -12.587  -1.840  -1.167  0.00  0.00    +0.011 A 
ATOM     18  C   UNL     1     -11.480  -1.080  -0.787  0.00  0.00    +0.020 A 
ATOM     19  C   UNL     1     -11.489  -0.408   0.436  0.00  0.00    +0.011 A 
ATOM     20  C   UNL     1     -12.596  -0.490   1.256  0.00  0.00    +0.001 A 
ENDBRANCH  10  18
ENDBRANCH   9  12
ENDBRANCH   1   9
BRANCH   5  21
ATOM     21  C   UNL     1      -4.192   0.092  -2.040  0.00  0.00    +0.099 C 
BRANCH  21  22
ATOM     22  C   UNL     1      -2.747   0.505  -2.148  0.00  0.00    +0.216 C 
ATOM     23  O   UNL     1      -2.109   0.226  -3.141  0.00  0.00    -0.276 OA
ATOM     24  N   UNL     1      -2.163   1.185  -1.141  0.00  0.00    -0.301 N 
ATOM     25  C   UNL     1      -0.755   1.594  -1.232  0.00  0.00    +0.110 C 
ATOM     26  C   UNL     1      -0.013   1.086   0.008  0.00  0.00    +0.044 C 
ATOM     27  C   UNL     1      -0.730   1.580   1.266  0.00  0.00    +0.095 C 
ATOM     28  C   UNL     1      -2.156   1.023   1.294  0.00  0.00    +0.044 C 
ATOM     29  C   UNL     1      -2.923   1.530   0.068  0.00  0.00    +0.110 C 
BRANCH  27  30
ATOM     30  N   UNL     1      -0.004   1.124   2.454  0.00  0.00    -0.289 N 
ATOM     31  C   UNL     1       0.563   1.942   3.427  0.00  0.00    +0.070 A 
ATOM     32  C   UNL     1       0.618   3.317   3.600  0.00  0.00    +0.028 A 
ATOM     33  C   UNL     1       1.262   3.846   4.701  0.00  0.00    +0.002 A 
ATOM     34  C   UNL     1       1.849   3.010   5.635  0.00  0.00    +0.002 A 
ATOM     35  C   UNL     1       1.794   1.640   5.475  0.00  0.00    +0.028 A 
ATOM     36  C   UNL     1       1.149   1.099   4.373  0.00  0.00    +0.067 A 
ATOM     37  N   UNL     1       0.929  -0.206   3.939  0.00  0.00    -0.306 N 
ATOM     38  H   UNL     1       1.224  -1.012   4.392  0.00  0.00    +0.170 HD
ATOM     39  C   UNL     1       0.235  -0.159   2.786  0.00  0.00    +0.328 A 
ATOM     40  O   UNL     1      -0.121  -1.128   2.143  0.00  0.00    -0.247 OA
ENDBRANCH  27  30
ENDBRANCH  21  22
ENDBRANCH   5  21
TORSDOF 6
