REMARK  Name = ZINC34890882
REMARK  18 active torsions:
REMARK  status: ('A' for Active; 'I' for Inactive)
REMARK    1  A    between atoms: C_1  and  C_2
REMARK    2  A    between atoms: C_6  and  C_7
REMARK    3  A    between atoms: C_7  and  N_8
REMARK    4  A    between atoms: N_8  and  C_9
REMARK    5  A    between atoms: C_9  and  C_10
REMARK    6  A    between atoms: C_10  and  C_11
REMARK    7  A    between atoms: C_14  and  O_19
REMARK    8  A    between atoms: C_15  and  O_17
REMARK    9  A    between atoms: O_17  and  C_18
REMARK   10  A    between atoms: O_19  and  C_20
REMARK   11  A    between atoms: C_21  and  C_23
REMARK   12  A    between atoms: C_23  and  N_24
REMARK   13  A    between atoms: N_24  and  C_25
REMARK   14  A    between atoms: C_25  and  C_26
REMARK   15  A    between atoms: C_26  and  C_27
REMARK   16  A    between atoms: C_26  and  C_28
REMARK   17  A    between atoms: N_31  and  C_32
REMARK   18  A    between atoms: C_32  and  C_33
REMARK                            x       y       z     vdW  Elec       q    Type
REMARK                         _______ _______ _______ _____ _____    ______ ____
ROOT
ATOM      1  N   UNL     1      -1.597  -0.230   2.998  0.00  0.00    -0.295 N 
ATOM      2  C   UNL     1      -2.423   0.791   2.695  0.00  0.00    +0.233 C 
ATOM      3  O   UNL     1      -3.604   0.717   2.963  0.00  0.00    -0.274 OA
ENDROOT
BRANCH   1   4
ATOM      4  C   UNL     1      -0.196  -0.190   2.572  0.00  0.00    +0.150 C 
BRANCH   4  10
ATOM      5  C   UNL     1       0.062  -3.129   1.717  0.00  0.00    +0.044 C 
ATOM      6  C   UNL     1       0.031  -1.990   0.731  0.00  0.00    -0.039 A 
ATOM      7  C   UNL     1       0.114  -2.234  -0.627  0.00  0.00    +0.011 A 
ATOM      8  C   UNL     1       0.084  -1.187  -1.487  0.00  0.00    +0.046 A 
ATOM      9  S   UNL     1      -0.066   0.201  -0.373  0.00  0.00    -0.100 S 
ATOM     10  C   UNL     1      -0.084  -0.710   1.162  0.00  0.00    +0.010 A 
ENDBRANCH   4  10
ENDBRANCH   1   4
BRANCH   1  11
ATOM     11  C   UNL     1      -2.101  -1.380   3.752  0.00  0.00    +0.113 C 
BRANCH  11  12
ATOM     12  C   UNL     1      -1.921  -1.126   5.250  0.00  0.00    +0.054 C 
BRANCH  12  13
ATOM     13  C   UNL     1      -2.439  -2.309   6.026  0.00  0.00    -0.042 A 
ATOM     14  C   UNL     1      -3.763  -2.348   6.422  0.00  0.00    +0.007 A 
ATOM     15  C   UNL     1      -4.243  -3.432   7.134  0.00  0.00    +0.049 A 
ATOM     16  C   UNL     1      -3.397  -4.481   7.453  0.00  0.00    +0.161 A 
ATOM     17  C   UNL     1      -2.064  -4.442   7.054  0.00  0.00    +0.162 A 
ATOM     18  C   UNL     1      -1.591  -3.356   6.336  0.00  0.00    +0.053 A 
BRANCH  17  19
ATOM     19  O   UNL     1      -1.230  -5.471   7.364  0.00  0.00    -0.491 OA
ATOM     20  C   UNL     1       0.125  -5.362   6.923  0.00  0.00    +0.277 C 
ENDBRANCH  17  19
BRANCH  16  21
ATOM     21  O   UNL     1      -3.868  -5.548   8.154  0.00  0.00    -0.491 OA
ATOM     22  C   UNL     1      -5.246  -5.519   8.530  0.00  0.00    +0.277 C 
ENDBRANCH  16  21
ENDBRANCH  12  13
ENDBRANCH  11  12
ENDBRANCH   1  11
BRANCH   2  23
ATOM     23  C   UNL     1      -1.880   2.026   2.023  0.00  0.00    +0.205 C 
BRANCH  23  24
ATOM     24  N   UNL     1      -2.942   3.028   1.910  0.00  0.00    -0.277 N 
ATOM     25  C   UNL     1      -3.730   3.055   0.818  0.00  0.00    +0.303 C 
ATOM     26  O   UNL     1      -3.560   2.247  -0.075  0.00  0.00    -0.253 OA
ATOM     27  N   UNL     1      -4.708   3.978   0.714  0.00  0.00    -0.295 N 
ATOM     28  H   UNL     1      -4.843   4.622   1.426  0.00  0.00    +0.151 HD
BRANCH  24  29
ATOM     29  C   UNL     1      -3.147   4.002   2.986  0.00  0.00    +0.113 C 
BRANCH  29  30
ATOM     30  C   UNL     1      -2.297   5.245   2.717  0.00  0.00    +0.000 C 
ATOM     31  C   UNL     1      -2.604   6.311   3.771  0.00  0.00    +0.009 C 
ATOM     32  C   UNL     1      -0.814   4.874   2.785  0.00  0.00    +0.009 C 
ENDBRANCH  29  30
ENDBRANCH  24  29
BRANCH  27  33
ATOM     33  C   UNL     1      -5.565   4.007  -0.473  0.00  0.00    +0.141 C 
BRANCH  33  34
ATOM     34  C   UNL     1      -6.568   5.123  -0.342  0.00  0.00    -0.030 A 
ATOM     35  C   UNL     1      -7.791   4.886   0.258  0.00  0.00    +0.005 A 
ATOM     36  C   UNL     1      -8.712   5.910   0.379  0.00  0.00    +0.000 A 
ATOM     37  C   UNL     1      -8.409   7.171  -0.099  0.00  0.00    +0.000 A 
ATOM     38  C   UNL     1      -7.186   7.409  -0.698  0.00  0.00    +0.000 A 
ATOM     39  C   UNL     1      -6.264   6.386  -0.815  0.00  0.00    +0.005 A 
ENDBRANCH  33  34
ENDBRANCH  27  33
ENDBRANCH  23  24
ENDBRANCH   2  23
TORSDOF 13
