REMARK  Name = ZINC60372432
REMARK  6 active torsions:
REMARK  status: ('A' for Active; 'I' for Inactive)
REMARK    1  A    between atoms: C_6  and  S_7
REMARK    2  A    between atoms: S_7  and  N_10
REMARK    3  A    between atoms: C_16  and  C_18
REMARK    4  A    between atoms: C_18  and  N_19
REMARK    5  A    between atoms: C_24  and  C_26
REMARK    6  A    between atoms: C_26  and  C_27
REMARK                            x       y       z     vdW  Elec       q    Type
REMARK                         _______ _______ _______ _____ _____    ______ ____
ROOT
ATOM      1  N   UNL     1      -2.568  -1.236  -1.653  0.00  0.00    -0.174 NA
ATOM      2  C   UNL     1      -3.516  -0.397  -2.398  0.00  0.00    +0.128 C 
ATOM      3  C   UNL     1      -2.803   0.171  -3.632  0.00  0.00    +0.125 C 
ATOM      4  N   UNL     1      -2.129  -0.930  -4.333  0.00  0.00    -0.300 N 
ATOM      5  C   UNL     1      -1.181  -1.770  -3.588  0.00  0.00    +0.125 C 
ATOM      6  C   UNL     1      -1.889  -2.334  -2.356  0.00  0.00    +0.128 C 
ATOM      7  C   UNL     1      -2.377  -1.167  -5.637  0.00  0.00    +0.199 C 
ATOM      8  O   UNL     1      -3.162  -0.467  -6.242  0.00  0.00    -0.278 OA
ENDROOT
BRANCH   1   9
ATOM      9  S   UNL     1      -2.264  -0.946  -0.051  0.00  0.00    +0.061 S 
ATOM     10  O   UNL     1      -1.795  -2.168   0.501  0.00  0.00    -0.153 OA
ATOM     11  O   UNL     1      -3.401  -0.265   0.461  0.00  0.00    -0.153 OA
BRANCH   9  17
ATOM     12  C   UNL     1      -1.161   1.551   0.037  0.00  0.00    +0.029 A 
ATOM     13  C   UNL     1      -0.103   2.434   0.096  0.00  0.00    +0.006 A 
ATOM     14  C   UNL     1       1.204   1.968   0.145  0.00  0.00    -0.044 A 
ATOM     15  C   UNL     1       1.445   0.612   0.140  0.00  0.00    -0.042 A 
ATOM     16  C   UNL     1       0.379  -0.276   0.077  0.00  0.00    +0.032 A 
ATOM     17  C   UNL     1      -0.919   0.190   0.026  0.00  0.00    +0.106 A 
ATOM     18  C   UNL     1       2.835   0.035   0.207  0.00  0.00    +0.035 C 
ATOM     19  C   UNL     1       3.874   1.092  -0.160  0.00  0.00    +0.005 C 
ATOM     20  C   UNL     1       3.610   2.345   0.684  0.00  0.00    +0.005 C 
ATOM     21  C   UNL     1       2.312   2.987   0.200  0.00  0.00    +0.035 C 
ENDBRANCH   9  17
ENDBRANCH   1   9
BRANCH   7  22
ATOM     22  C   UNL     1      -1.678  -2.300  -6.343  0.00  0.00    +0.019 C 
BRANCH  22  23
ATOM     23  N   UNL     1      -2.115  -2.347  -7.745  0.00  0.00    +0.388 N 
ATOM     24  C   UNL     1      -1.644  -1.145  -8.444  0.00  0.00    -0.078 C 
ATOM     25  C   UNL     1      -2.166  -1.150  -9.882  0.00  0.00    -0.019 C 
ATOM     26  C   UNL     1      -1.647  -2.397 -10.603  0.00  0.00    -0.003 C 
ATOM     27  C   UNL     1      -2.081  -3.643  -9.825  0.00  0.00    -0.015 C 
ATOM     28  C   UNL     1      -1.563  -3.545  -8.388  0.00  0.00    -0.059 C 
ATOM     29  H   UNL     1      -3.123  -2.381  -7.781  0.00  0.00    -0.081 HD
BRANCH  28  30
ATOM     30  C   UNL     1      -1.994  -4.788  -7.606  0.00  0.00    +0.080 C 
BRANCH  30  31
ATOM     31  C   UNL     1      -1.324  -6.005  -8.188  0.00  0.00    +0.209 C 
ATOM     32  O   UNL     1      -0.494  -5.881  -9.064  0.00  0.00    -0.276 OA
ATOM     33  N   UNL     1      -1.647  -7.233  -7.736  0.00  0.00    -0.329 N 
ATOM     34  H   UNL     1      -2.311  -7.333  -7.036  0.00  0.00    +0.145 HD
ATOM     35  H   UNL     1      -1.216  -8.017  -8.111  0.00  0.00    +0.145 HD
ENDBRANCH  30  31
ENDBRANCH  28  30
ENDBRANCH  22  23
ENDBRANCH   7  22
TORSDOF 6
