REMARK  Name = ZINC09044172
REMARK  9 active torsions:
REMARK  status: ('A' for Active; 'I' for Inactive)
REMARK    1  A    between atoms: C_1  and  C_2
REMARK    2  A    between atoms: N_6  and  C_7
REMARK    3  A    between atoms: C_7  and  C_9
REMARK    4  A    between atoms: C_10  and  N_28
REMARK    5  A    between atoms: C_14  and  C_18
REMARK    6  A    between atoms: C_21  and  O_26
REMARK    7  A    between atoms: C_22  and  O_24
REMARK    8  A    between atoms: O_24  and  C_25
REMARK    9  A    between atoms: O_26  and  C_27
REMARK                            x       y       z     vdW  Elec       q    Type
REMARK                         _______ _______ _______ _____ _____    ______ ____
ROOT
ATOM      1  C   UNL     1      -1.170  -0.724   0.015  0.00  0.00    +0.099 A 
ATOM      2  C   UNL     1       0.002  -0.004   0.002  0.00  0.00    +0.053 A 
ATOM      3  C   UNL     1       1.261  -0.731  -0.014  0.00  0.00    +0.029 A 
ATOM      4  C   UNL     1       2.582  -0.213  -0.025  0.00  0.00    +0.014 A 
ATOM      5  C   UNL     1       3.635  -1.075  -0.040  0.00  0.00    +0.029 A 
ATOM      6  C   UNL     1       3.420  -2.457  -0.044  0.00  0.00    +0.072 A 
ATOM      7  N   UNL     1       2.183  -2.940  -0.034  0.00  0.00    -0.239 NA
ATOM      8  C   UNL     1       1.140  -2.140  -0.020  0.00  0.00    +0.111 A 
ATOM      9  S   UNL     1      -0.614  -2.417  -0.004  0.00  0.00    -0.062 S 
ENDROOT
BRANCH   6  10
ATOM     10  C   UNL     1       4.574  -3.385  -0.061  0.00  0.00    +0.004 A 
ATOM     11  C   UNL     1       5.875  -2.881  -0.077  0.00  0.00    +0.014 A 
ATOM     12  C   UNL     1       6.950  -3.746  -0.087  0.00  0.00    +0.050 A 
ATOM     13  C   UNL     1       6.740  -5.117  -0.092  0.00  0.00    +0.162 A 
ATOM     14  C   UNL     1       5.444  -5.626  -0.081  0.00  0.00    +0.162 A 
ATOM     15  C   UNL     1       4.363  -4.764  -0.066  0.00  0.00    +0.059 A 
BRANCH  14  16
ATOM     16  O   UNL     1       5.240  -6.971  -0.086  0.00  0.00    -0.491 OA
ATOM     17  C   UNL     1       3.885  -7.422  -0.073  0.00  0.00    +0.277 C 
ENDBRANCH  14  16
BRANCH  13  18
ATOM     18  O   UNL     1       7.802  -5.966  -0.108  0.00  0.00    -0.491 OA
ATOM     19  C   UNL     1       9.104  -5.376  -0.119  0.00  0.00    +0.277 C 
ENDBRANCH  13  18
ENDBRANCH   6  10
BRANCH   2  20
ATOM     20  N   UNL     1      -0.017   1.387   0.010  0.00  0.00    -0.356 N 
ATOM     21  H   UNL     1       0.817   1.883   0.004  0.00  0.00    +0.142 HD
ATOM     22  H   UNL     1      -0.863   1.861   0.016  0.00  0.00    +0.142 HD
ENDBRANCH   2  20
BRANCH   1  23
ATOM     23  C   UNL     1      -2.546  -0.220   0.037  0.00  0.00    +0.278 C 
ATOM     24  O   UNL     1      -2.755   0.983   0.046  0.00  0.00    -0.267 OA
BRANCH  23  30
ATOM     25  C   UNL     1      -8.484  -1.375   0.116  0.00  0.00    +0.064 C 
ATOM     26  C   UNL     1      -7.168  -0.640   0.101  0.00  0.00    +0.021 A 
ATOM     27  C   UNL     1      -7.134   0.696   0.107  0.00  0.00    +0.069 A 
ATOM     28  S   UNL     1      -5.380   1.022   0.092  0.00  0.00    -0.060 S 
ATOM     29  C   UNL     1      -4.822  -0.621   0.068  0.00  0.00    +0.163 A 
ATOM     30  N   UNL     1      -3.574  -1.079   0.048  0.00  0.00    -0.152 NA
ATOM     31  N   UNL     1      -5.993  -1.324   0.081  0.00  0.00    -0.339 N 
ATOM     32  H   UNL     1      -5.987  -2.294   0.076  0.00  0.00    +0.167 HD
ENDBRANCH  23  30
ENDBRANCH   1  23
TORSDOF 6
