REMARK  Name = ZINC08962126
REMARK  7 active torsions:
REMARK  status: ('A' for Active; 'I' for Inactive)
REMARK    1  A    between atoms: C_1  and  C_2
REMARK    2  A    between atoms: C_2  and  C_3
REMARK    3  A    between atoms: C_10  and  N_16
REMARK    4  A    between atoms: N_16  and  S_17
REMARK    5  A    between atoms: S_17  and  C_20
REMARK    6  A    between atoms: C_23  and  C_27
REMARK    7  A    between atoms: C_24  and  C_26
REMARK                            x       y       z     vdW  Elec       q    Type
REMARK                         _______ _______ _______ _____ _____    ______ ____
ROOT
ATOM      1  C   UNL     1       3.750   3.156  -6.973  0.00  0.00    +0.110 C 
ATOM      2  C   UNL     1       3.655   4.487  -6.238  0.00  0.00    +0.251 C 
ATOM      3  O   UNL     1       4.331   4.443  -4.988  0.00  0.00    -0.489 OA
ATOM      4  C   UNL     1       4.130   3.347  -4.212  0.00  0.00    +0.133 A 
ATOM      5  C   UNL     1       3.337   3.413  -3.079  0.00  0.00    +0.048 A 
ATOM      6  C   UNL     1       3.134   2.283  -2.312  0.00  0.00    +0.028 A 
ATOM      7  C   UNL     1       3.732   1.076  -2.662  0.00  0.00    +0.049 A 
ATOM      8  C   UNL     1       4.529   0.996  -3.792  0.00  0.00    +0.041 A 
ATOM      9  C   UNL     1       4.734   2.133  -4.572  0.00  0.00    +0.080 A 
ATOM     10  C   UNL     1       5.583   2.086  -5.778  0.00  0.00    +0.248 C 
ATOM     11  O   UNL     1       6.681   1.566  -5.742  0.00  0.00    -0.270 OA
ATOM     12  N   UNL     1       5.116   2.633  -6.926  0.00  0.00    -0.305 N 
ATOM     13  H   UNL     1       5.684   2.678  -7.711  0.00  0.00    +0.149 HD
ENDROOT
BRANCH   1  15
ATOM     14  C   UNL     1       2.944   0.792  -7.007  0.00  0.00    +0.006 C 
ATOM     15  C   UNL     1       2.803   2.150  -6.317  0.00  0.00    +0.022 C 
ENDBRANCH   1  15
BRANCH   7  16
ATOM     16  N   UNL     1       3.522  -0.061  -1.874  0.00  0.00    -0.216 N 
ATOM     17  H   UNL     1       2.673  -0.530  -1.914  0.00  0.00    +0.174 HD
BRANCH  16  18
ATOM     18  S   UNL     1       4.722  -0.608  -0.872  0.00  0.00    +0.072 S 
ATOM     19  O   UNL     1       5.898  -0.707  -1.664  0.00  0.00    -0.150 OA
ATOM     20  O   UNL     1       4.186  -1.716  -0.163  0.00  0.00    -0.150 OA
BRANCH  18  21
ATOM     21  C   UNL     1       5.022   0.656   0.319  0.00  0.00    +0.109 A 
ATOM     22  C   UNL     1       4.243   0.730   1.459  0.00  0.00    +0.029 A 
ATOM     23  C   UNL     1       4.475   1.724   2.391  0.00  0.00    +0.005 A 
ATOM     24  C   UNL     1       5.492   2.638   2.188  0.00  0.00    -0.047 A 
ATOM     25  C   UNL     1       6.270   2.564   1.048  0.00  0.00    -0.046 A 
ATOM     26  C   UNL     1       6.035   1.573   0.113  0.00  0.00    +0.032 A 
ATOM     27  C   UNL     1       7.376   3.564   0.824  0.00  0.00    +0.044 C 
ATOM     28  C   UNL     1       5.749   3.719   3.207  0.00  0.00    +0.044 C 
ENDBRANCH  18  21
ENDBRANCH  16  18
ENDBRANCH   7  16
TORSDOF 4
