REMARK  Name = ZINC13400008
REMARK  5 active torsions:
REMARK  status: ('A' for Active; 'I' for Inactive)
REMARK    1  A    between atoms: C_1  and  C_2
REMARK    2  A    between atoms: C_5  and  O_34
REMARK    3  A    between atoms: C_24  and  C_25
REMARK    4  A    between atoms: C_24  and  O_33
REMARK    5  A    between atoms: C_26  and  C_27
REMARK                            x       y       z     vdW  Elec       q    Type
REMARK                         _______ _______ _______ _____ _____    ______ ____
ROOT
ATOM      1  C   UNL     1       8.704  -1.068  -1.401  0.00  0.00    +0.012 C 
ATOM      2  C   UNL     1       8.564  -1.651  -2.801  0.00  0.00    -0.026 C 
ATOM      3  C   UNL     1       8.995  -3.126  -2.764  0.00  0.00    +0.010 C 
ATOM      4  C   UNL     1      10.457  -3.251  -2.346  0.00  0.00    +0.032 C 
ATOM      5  C   UNL     1      11.357  -2.476  -3.306  0.00  0.00    +0.115 C 
ATOM      6  C   UNL     1      10.932  -1.007  -3.350  0.00  0.00    +0.035 C 
ATOM      7  C   UNL     1       9.473  -0.906  -3.783  0.00  0.00    -0.002 C 
ATOM      8  C   UNL     1       9.047   0.558  -3.863  0.00  0.00    +0.004 C 
ATOM      9  C   UNL     1       7.630   0.668  -4.405  0.00  0.00    +0.004 C 
ATOM     10  C   UNL     1       6.628  -0.202  -3.657  0.00  0.00    -0.004 C 
ATOM     11  C   UNL     1       7.134  -1.576  -3.318  0.00  0.00    -0.001 C 
ATOM     12  C   UNL     1       6.160  -2.370  -2.464  0.00  0.00    +0.005 C 
ATOM     13  C   UNL     1       5.631  -1.591  -1.277  0.00  0.00    +0.008 C 
ATOM     14  C   UNL     1       5.000  -0.263  -1.672  0.00  0.00    +0.036 C 
ATOM     15  C   UNL     1       5.882   0.564  -2.606  0.00  0.00    -0.001 C 
ATOM     16  C   UNL     1       6.723   1.516  -1.759  0.00  0.00    +0.008 C 
ATOM     17  C   UNL     1       6.238   1.354  -0.303  0.00  0.00    +0.048 C 
ATOM     18  C   UNL     1       4.902   0.594  -0.381  0.00  0.00    +0.130 C 
ENDROOT
BRANCH  18  19
ATOM     19  C   UNL     1       3.781   1.541  -0.480  0.00  0.00    -0.062 C 
ATOM     20  C   UNL     1       2.886   2.297  -0.559  0.00  0.00    -0.063 C 
BRANCH  20  21
ATOM     21  C   UNL     1       1.795   3.219  -0.655  0.00  0.00    +0.025 A 
ATOM     22  C   UNL     1       0.484   2.747  -0.738  0.00  0.00    +0.017 A 
ATOM     23  C   UNL     1      -0.562   3.641  -0.836  0.00  0.00    +0.001 A 
ATOM     24  C   UNL     1      -0.316   5.002  -0.841  0.00  0.00    +0.000 A 
ATOM     25  C   UNL     1       0.982   5.476  -0.759  0.00  0.00    +0.001 A 
ATOM     26  C   UNL     1       2.038   4.593  -0.667  0.00  0.00    +0.017 A 
ENDBRANCH  20  21
ENDBRANCH  18  19
BRANCH  18  27
ATOM     27  O   UNL     1       4.740  -0.243   0.764  0.00  0.00    -0.376 OA
ATOM     28  H   UNL     1       4.697   0.239   1.601  0.00  0.00    +0.211 HD
ENDBRANCH  18  27
BRANCH   5  29
ATOM     29  O   UNL     1      12.713  -2.563  -2.859  0.00  0.00    -0.392 OA
ATOM     30  H   UNL     1      13.052  -3.467  -2.806  0.00  0.00    +0.210 HD
ENDBRANCH   5  29
TORSDOF 4
