REMARK  Name = ZINC35746057
REMARK  10 active torsions:
REMARK  status: ('A' for Active; 'I' for Inactive)
REMARK    1  A    between atoms: C_1  and  C_2
REMARK    2  A    between atoms: C_2  and  C_3
REMARK    3  A    between atoms: C_2  and  C_4
REMARK    4  A    between atoms: C_4  and  C_6
REMARK    5  A    between atoms: C_4  and  O_33
REMARK    6  A    between atoms: C_6  and  N_7
REMARK    7  A    between atoms: N_7  and  C_8
REMARK    8  A    between atoms: N_7  and  C_27
REMARK    9  A    between atoms: C_8  and  C_9
REMARK   10  A    between atoms: C_15  and  C_20
REMARK                            x       y       z     vdW  Elec       q    Type
REMARK                         _______ _______ _______ _____ _____    ______ ____
ROOT
ATOM      1  C   UNL     1      -4.720   1.365  -0.125  0.00  0.00    +0.094 A 
ATOM      2  N   UNL     1      -5.383   1.962   0.898  0.00  0.00    -0.312 N 
ATOM      3  H   UNL     1      -5.645   1.433   1.668  0.00  0.00    +0.170 HD
ATOM      4  C   UNL     1      -5.684   3.273   0.866  0.00  0.00    +0.260 A 
ATOM      5  O   UNL     1      -6.279   3.795   1.793  0.00  0.00    -0.267 OA
ATOM      6  C   UNL     1      -5.293   4.046  -0.274  0.00  0.00    +0.080 A 
ATOM      7  C   UNL     1      -5.500   5.465  -0.541  0.00  0.00    +0.006 A 
ATOM      8  C   UNL     1      -5.035   5.983  -1.704  0.00  0.00    +0.056 A 
ATOM      9  S   UNL     1      -4.288   4.581  -2.511  0.00  0.00    -0.076 S 
ATOM     10  C   UNL     1      -4.612   3.344  -1.282  0.00  0.00    +0.116 A 
ATOM     11  N   UNL     1      -4.346   2.045  -1.176  0.00  0.00    -0.229 NA
ENDROOT
BRANCH   7  12
ATOM     12  C   UNL     1      -6.205   6.323   0.440  0.00  0.00    +0.019 A 
ATOM     13  C   UNL     1      -7.434   6.895   0.114  0.00  0.00    +0.011 A 
ATOM     14  C   UNL     1      -8.086   7.693   1.032  0.00  0.00    +0.001 A 
ATOM     15  C   UNL     1      -7.524   7.927   2.274  0.00  0.00    +0.003 A 
ATOM     16  C   UNL     1      -6.305   7.364   2.605  0.00  0.00    +0.039 A 
ATOM     17  C   UNL     1      -5.644   6.558   1.697  0.00  0.00    +0.131 A 
ATOM     18  F   UNL     1      -4.456   6.003   2.023  0.00  0.00    -0.205 F 
ENDBRANCH   7  12
BRANCH   1  19
ATOM     19  C   UNL     1      -4.404  -0.107  -0.044  0.00  0.00    -0.003 C 
BRANCH  19  20
ATOM     20  N   UNL     1      -3.548  -0.487  -1.176  0.00  0.00    +0.388 N 
ATOM     21  H   UNL     1      -3.309  -1.464  -1.104  0.00  0.00    -0.081 HD
BRANCH  20  22
ATOM     22  C   UNL     1      -4.267  -0.250  -2.435  0.00  0.00    -0.068 C 
ATOM     23  C   UNL     1      -3.433  -0.776  -3.605  0.00  0.00    -0.015 C 
ATOM     24  C   UNL     1      -4.182  -0.530  -4.917  0.00  0.00    -0.002 C 
ATOM     25  C   UNL     1      -5.527  -1.258  -4.880  0.00  0.00    -0.000 C 
ATOM     26  C   UNL     1      -6.361  -0.732  -3.710  0.00  0.00    -0.002 C 
ATOM     27  C   UNL     1      -5.612  -0.978  -2.399  0.00  0.00    -0.015 C 
ENDBRANCH  20  22
BRANCH  20  28
ATOM     28  C   UNL     1      -2.320   0.320  -1.154  0.00  0.00    -0.046 C 
BRANCH  28  29
ATOM     29  C   UNL     1      -1.512  -0.015   0.101  0.00  0.00    +0.101 C 
BRANCH  29  31
ATOM     30  C   UNL     1      -0.529   2.282   0.081  0.00  0.00    +0.010 C 
ATOM     31  C   UNL     1      -0.209   0.786   0.097  0.00  0.00    +0.010 C 
ATOM     32  C   UNL     1       0.599   0.451   1.352  0.00  0.00    +0.010 C 
ENDBRANCH  29  31
BRANCH  29  33
ATOM     33  O   UNL     1      -1.213  -1.412   0.117  0.00  0.00    -0.393 OA
ATOM     34  H   UNL     1      -0.697  -1.712  -0.644  0.00  0.00    +0.210 HD
ENDBRANCH  29  33
ENDBRANCH  28  29
ENDBRANCH  20  28
ENDBRANCH  19  20
ENDBRANCH   1  19
TORSDOF 8
