REMARK  Name = ZINC33803336
REMARK  13 active torsions:
REMARK  status: ('A' for Active; 'I' for Inactive)
REMARK    1  A    between atoms: C_1  and  C_2
REMARK    2  A    between atoms: C_7  and  C_8
REMARK    3  A    between atoms: C_8  and  C_10
REMARK    4  A    between atoms: C_8  and  O_28
REMARK    5  A    between atoms: C_10  and  C_11
REMARK    6  A    between atoms: C_18  and  O_19
REMARK    7  A    between atoms: O_19  and  C_20
REMARK    8  A    between atoms: N_26  and  C_27
REMARK    9  A    between atoms: C_29  and  C_37
REMARK   10  A    between atoms: C_29  and  C_38
REMARK   11  A    between atoms: C_31  and  C_36
REMARK   12  A    between atoms: C_33  and  C_34
REMARK   13  A    between atoms: C_33  and  C_35
REMARK                            x       y       z     vdW  Elec       q    Type
REMARK                         _______ _______ _______ _____ _____    ______ ____
ROOT
ATOM      1  C   UNL     1      -2.462   4.226  -0.918  0.00  0.00    +0.144 C 
ENDROOT
BRANCH   1   8
ATOM      2  C   UNL     1      -0.685   6.477  -0.491  0.00  0.00    +0.044 C 
ATOM      3  C   UNL     1      -1.507   6.386  -1.750  0.00  0.00    -0.045 A 
ATOM      4  C   UNL     1      -1.413   7.375  -2.711  0.00  0.00    +0.008 A 
ATOM      5  C   UNL     1      -2.152   7.298  -3.882  0.00  0.00    -0.038 A 
ATOM      6  C   UNL     1      -3.027   6.249  -4.071  0.00  0.00    -0.038 A 
ATOM      7  C   UNL     1      -3.116   5.255  -3.103  0.00  0.00    +0.011 A 
ATOM      8  C   UNL     1      -2.357   5.317  -1.952  0.00  0.00    -0.016 A 
ATOM      9  C   UNL     1      -3.911   6.118  -5.278  0.00  0.00    -0.009 C 
ATOM     10  C   UNL     1      -3.733   7.222  -6.303  0.00  0.00    +0.015 C 
ATOM     11  C   UNL     1      -2.350   7.848  -6.307  0.00  0.00    -0.003 C 
ATOM     12  C   UNL     1      -1.965   8.365  -4.925  0.00  0.00    -0.007 C 
ATOM     13  C   UNL     1      -2.820   9.583  -4.572  0.00  0.00    +0.016 C 
ATOM     14  C   UNL     1      -0.492   8.791  -4.972  0.00  0.00    +0.016 C 
ATOM     15  C   UNL     1      -1.287   6.875  -6.818  0.00  0.00    +0.008 C 
ATOM     16  C   UNL     1      -3.677   4.754  -5.941  0.00  0.00    +0.016 C 
ATOM     17  C   UNL     1      -5.376   6.154  -4.797  0.00  0.00    +0.016 C 
ENDBRANCH   1   8
BRANCH   1  18
ATOM     18  O   UNL     1      -3.735   3.587  -1.027  0.00  0.00    -0.387 OA
ATOM     19  H   UNL     1      -3.995   2.760  -0.350  0.00  0.00    +0.210 HD
ENDBRANCH   1  18
BRANCH   1  20
ATOM     20  C   UNL     1      -1.353   3.197  -1.148  0.00  0.00    +0.025 C 
BRANCH  20  21
ATOM     21  C   UNL     1      -1.359   2.177  -0.007  0.00  0.00    -0.031 C 
ATOM     22  C   UNL     1      -2.682   1.456   0.008  0.00  0.00    -0.012 A 
ATOM     23  C   UNL     1      -3.348   1.183   1.184  0.00  0.00    -0.040 A 
ATOM     24  C   UNL     1      -4.558   0.507   1.155  0.00  0.00    +0.053 A 
ATOM     25  C   UNL     1      -5.109   0.104  -0.050  0.00  0.00    +0.170 A 
ATOM     26  C   UNL     1      -4.442   0.381  -1.239  0.00  0.00    +0.208 A 
ATOM     27  C   UNL     1      -3.231   1.057  -1.206  0.00  0.00    +0.167 A 
ATOM     28  O   UNL     1      -5.180  -0.112  -2.278  0.00  0.00    -0.449 OA
ATOM     29  C   UNL     1      -6.098  -1.050  -1.686  0.00  0.00    +0.467 C 
ATOM     30  O   UNL     1      -6.263  -0.564  -0.342  0.00  0.00    -0.452 OA
ATOM     31  C   UNL     1      -2.796   1.608   2.522  0.00  0.00    +0.017 C 
ATOM     32  C   UNL     1      -1.310   1.941   2.391  0.00  0.00    -0.074 C 
ATOM     33  N   UNL     1      -1.137   2.872   1.264  0.00  0.00    +0.383 N 
ATOM     34  C   UNL     1       0.191   3.498   1.298  0.00  0.00    -0.095 C 
ATOM     35  H   UNL     1      -1.886   3.673   1.354  0.00  0.00    -0.081 HD
BRANCH  27  36
ATOM     36  O   UNL     1      -2.577   1.330  -2.367  0.00  0.00    -0.491 OA
ATOM     37  C   UNL     1      -1.648   0.351  -2.834  0.00  0.00    +0.277 C 
ENDBRANCH  27  36
ENDBRANCH  20  21
ENDBRANCH   1  20
TORSDOF 5
