REMARK  Name = ZINC20692967
REMARK  5 active torsions:
REMARK  status: ('A' for Active; 'I' for Inactive)
REMARK    1  A    between atoms: C_1  and  O_2
REMARK    2  A    between atoms: O_2  and  C_3
REMARK    3  A    between atoms: C_5  and  C_10
REMARK    4  A    between atoms: C_8  and  O_9
REMARK    5  A    between atoms: C_21  and  N_26
REMARK                            x       y       z     vdW  Elec       q    Type
REMARK                         _______ _______ _______ _____ _____    ______ ____
ROOT
ATOM      1  C   UNL     1       2.458   3.932  -0.000  0.00  0.00    +0.105 C 
ATOM      2  C   UNL     1       3.095   3.898   1.377  0.00  0.00    +0.029 C 
ATOM      3  C   UNL     1       2.384   4.668   2.497  0.00  0.00    +0.033 C 
ATOM      4  C   UNL     1       3.557   5.050   3.401  0.00  0.00    -0.030 C 
ATOM      5  C   UNL     1       4.678   5.108   2.692  0.00  0.00    -0.023 C 
ATOM      6  C   UNL     1       4.356   4.808   1.273  0.00  0.00    +0.049 C 
ATOM      7  C   UNL     1       5.324   4.142   0.375  0.00  0.00    -0.017 A 
ATOM      8  C   UNL     1       6.686   4.230   0.559  0.00  0.00    +0.038 A 
ATOM      9  C   UNL     1       7.552   3.605  -0.319  0.00  0.00    +0.127 A 
ATOM     10  C   UNL     1       7.050   2.886  -1.389  0.00  0.00    +0.034 A 
ATOM     11  C   UNL     1       5.687   2.786  -1.579  0.00  0.00    +0.025 A 
ATOM     12  C   UNL     1       4.809   3.407  -0.699  0.00  0.00    +0.032 A 
ATOM     13  N   UNL     1       3.430   3.281  -0.905  0.00  0.00    -0.336 N 
ATOM     14  H   UNL     1       3.073   2.685  -1.758  0.00  0.00    +0.147 HD
ENDROOT
BRANCH   1  17
ATOM     15  C   UNL     1      -1.237   3.144   0.030  0.00  0.00    +0.162 A 
ATOM     16  C   UNL     1      -0.043   3.847   0.023  0.00  0.00    +0.054 A 
ATOM     17  C   UNL     1       1.160   3.166   0.008  0.00  0.00    -0.023 A 
ATOM     18  C   UNL     1       1.175   1.783   0.000  0.00  0.00    +0.009 A 
ATOM     19  C   UNL     1      -0.013   1.076   0.008  0.00  0.00    +0.049 A 
ATOM     20  C   UNL     1      -1.222   1.752   0.017  0.00  0.00    +0.158 A 
BRANCH  15  22
ATOM     21  C   UNL     1      -2.361   5.240   0.051  0.00  0.00    +0.277 C 
ATOM     22  O   UNL     1      -2.421   3.812   0.044  0.00  0.00    -0.491 OA
ENDBRANCH  15  22
BRANCH  20  23
ATOM     23  O   UNL     1      -2.391   1.058   0.019  0.00  0.00    -0.503 OA
ATOM     24  H   UNL     1      -2.378  -0.042   0.009  0.00  0.00    +0.292 HD
ENDBRANCH  20  23
ENDBRANCH   1  17
BRANCH   9  25
ATOM     25  N   UNL     1       9.014   3.706  -0.116  0.00  0.00    +0.056 N 
ATOM     26  O   UNL     1       9.456   4.339   0.826  0.00  0.00    -0.126 OA
ATOM     27  O   UNL     1       9.776   3.155  -0.890  0.00  0.00    -0.126 OA
ENDBRANCH   9  25
TORSDOF 4
