REMARK  Name = ZINC65001915
REMARK  8 active torsions:
REMARK  status: ('A' for Active; 'I' for Inactive)
REMARK    1  A    between atoms: C_1  and  C_2
REMARK    2  A    between atoms: C_2  and  C_3
REMARK    3  A    between atoms: C_2  and  C_4
REMARK    4  A    between atoms: C_2  and  C_5
REMARK    5  A    between atoms: C_18  and  C_20
REMARK    6  A    between atoms: C_22  and  O_28
REMARK    7  A    between atoms: C_23  and  O_27
REMARK    8  A    between atoms: O_28  and  C_29
REMARK                            x       y       z     vdW  Elec       q    Type
REMARK                         _______ _______ _______ _____ _____    ______ ____
ROOT
ATOM      1  C   UNL     1       0.718  -0.497  -1.257  0.00  0.00    -0.000 C 
ATOM      2  C   UNL     1      -0.015   0.015  -2.500  0.00  0.00    +0.009 C 
ATOM      3  C   UNL     1       0.538  -0.671  -3.749  0.00  0.00    +0.037 C 
ATOM      4  C   UNL     1       2.056  -0.506  -3.771  0.00  0.00    -0.023 A 
ATOM      5  C   UNL     1       2.730  -0.187  -2.641  0.00  0.00    -0.004 A 
ATOM      6  S   UNL     1       4.435  -0.102  -3.125  0.00  0.00    -0.073 S 
ATOM      7  C   UNL     1       4.243  -0.491  -4.835  0.00  0.00    +0.116 A 
ATOM      8  C   UNL     1       2.848  -0.677  -4.976  0.00  0.00    +0.075 A 
ATOM      9  C   UNL     1       2.359  -1.012  -6.283  0.00  0.00    +0.260 A 
ATOM     10  O   UNL     1       1.174  -1.192  -6.504  0.00  0.00    -0.267 OA
ATOM     11  N   UNL     1       3.296  -1.115  -7.255  0.00  0.00    -0.306 N 
ATOM     12  H   UNL     1       3.008  -1.340  -8.154  0.00  0.00    +0.170 HD
ATOM     13  C   UNL     1       4.627  -0.918  -7.027  0.00  0.00    +0.142 A 
ATOM     14  N   UNL     1       5.110  -0.608  -5.832  0.00  0.00    -0.222 NA
ATOM     15  C   UNL     1       2.157   0.039  -1.275  0.00  0.00    +0.046 C 
ENDROOT
BRANCH  13  16
ATOM     16  C   UNL     1       5.566  -1.055  -8.156  0.00  0.00    +0.022 A 
ATOM     17  C   UNL     1       6.936  -0.865  -7.955  0.00  0.00    +0.061 A 
ATOM     18  C   UNL     1       7.812  -0.996  -9.015  0.00  0.00    +0.163 A 
ATOM     19  C   UNL     1       7.329  -1.316 -10.283  0.00  0.00    +0.172 A 
ATOM     20  C   UNL     1       5.968  -1.505 -10.483  0.00  0.00    +0.059 A 
ATOM     21  C   UNL     1       5.089  -1.382  -9.428  0.00  0.00    +0.029 A 
ATOM     22  I   UNL     1       5.250  -1.986 -12.392  0.00  0.00    -0.040 I 
BRANCH  19  23
ATOM     23  O   UNL     1       8.192  -1.444 -11.325  0.00  0.00    -0.503 OA
ATOM     24  H   UNL     1       8.534  -2.341 -11.444  0.00  0.00    +0.292 HD
ENDBRANCH  19  23
BRANCH  18  25
ATOM     25  O   UNL     1       9.146  -0.811  -8.822  0.00  0.00    -0.491 OA
ATOM     26  C   UNL     1       9.570  -0.484  -7.498  0.00  0.00    +0.277 C 
ENDBRANCH  18  25
ENDBRANCH  13  16
BRANCH   1  28
ATOM     27  C   UNL     1      -0.019   1.526   0.010  0.00  0.00    +0.011 C 
ATOM     28  C   UNL     1       0.002  -0.004   0.002  0.00  0.00    -0.035 C 
ATOM     29  C   UNL     1       0.742  -0.511   1.242  0.00  0.00    +0.011 C 
ATOM     30  C   UNL     1      -1.433  -0.534   0.013  0.00  0.00    +0.011 C 
ENDBRANCH   1  28
TORSDOF 4
