REMARK  Name = ZINC16613134
REMARK  8 active torsions:
REMARK  status: ('A' for Active; 'I' for Inactive)
REMARK    1  A    between atoms: C_1  and  C_2
REMARK    2  A    between atoms: C_2  and  C_3
REMARK    3  A    between atoms: C_3  and  C_5
REMARK    4  A    between atoms: C_3  and  N_6
REMARK    5  A    between atoms: C_7  and  C_9
REMARK    6  A    between atoms: C_9  and  N_10
REMARK    7  A    between atoms: N_12  and  C_34
REMARK    8  A    between atoms: N_23  and  C_24
REMARK                            x       y       z     vdW  Elec       q    Type
REMARK                         _______ _______ _______ _____ _____    ______ ____
ROOT
ATOM      1  N   UNL     1       3.726   5.067   1.532  0.00  0.00    -0.275 N 
ATOM      2  C   UNL     1       3.072   3.775   1.292  0.00  0.00    +0.217 C 
ATOM      3  N   UNL     1       2.380   3.898  -0.012  0.00  0.00    -0.300 N 
ATOM      4  C   UNL     1       2.116   5.349  -0.115  0.00  0.00    +0.115 C 
ATOM      5  C   UNL     1       3.181   6.006   0.730  0.00  0.00    +0.241 C 
ATOM      6  O   UNL     1       3.493   7.177   0.694  0.00  0.00    -0.273 OA
ATOM      7  C   UNL     1       0.729   5.668   0.435  0.00  0.00    +0.054 C 
ATOM      8  C   UNL     1       0.489   7.181   0.367  0.00  0.00    +0.112 C 
ATOM      9  N   UNL     1       0.725   7.634  -1.011  0.00  0.00    -0.285 N 
ATOM     10  C   UNL     1       2.008   7.314  -1.651  0.00  0.00    +0.112 C 
ATOM     11  C   UNL     1       2.236   5.801  -1.567  0.00  0.00    +0.054 C 
ATOM     12  C   UNL     1      -0.219   8.330  -1.675  0.00  0.00    +0.303 C 
ATOM     13  O   UNL     1      -1.235   8.676  -1.103  0.00  0.00    -0.253 OA
ATOM     14  N   UNL     1      -0.037   8.642  -2.974  0.00  0.00    -0.294 N 
ATOM     15  H   UNL     1       0.736   8.303  -3.450  0.00  0.00    +0.151 HD
ENDROOT
BRANCH  14  16
ATOM     16  C   UNL     1      -1.008   9.495  -3.665  0.00  0.00    +0.037 C 
ATOM     17  C   UNL     1      -2.385   8.829  -3.634  0.00  0.00    +0.029 C 
ATOM     18  C   UNL     1      -3.398   9.720  -4.356  0.00  0.00    -0.008 C 
ATOM     19  C   UNL     1      -2.959   9.918  -5.808  0.00  0.00    +0.007 C 
ATOM     20  C   UNL     1      -1.582  10.584  -5.839  0.00  0.00    -0.008 C 
ATOM     21  C   UNL     1      -0.569   9.693  -5.117  0.00  0.00    +0.029 C 
ATOM     22  C   UNL     1      -1.657  11.942  -5.138  0.00  0.00    +0.007 C 
ATOM     23  C   UNL     1      -2.096  11.744  -3.686  0.00  0.00    -0.008 C 
ATOM     24  C   UNL     1      -3.473  11.078  -3.656  0.00  0.00    +0.007 C 
ATOM     25  C   UNL     1      -1.082  10.853  -2.965  0.00  0.00    +0.029 C 
ENDBRANCH  14  16
BRANCH   3  26
ATOM     26  C   UNL     1       1.187   3.171  -0.016  0.00  0.00    +0.032 A 
ATOM     27  C   UNL     1       0.295   3.304  -1.073  0.00  0.00    +0.023 A 
ATOM     28  C   UNL     1      -0.883   2.583  -1.074  0.00  0.00    +0.002 A 
ATOM     29  C   UNL     1      -1.178   1.735  -0.023  0.00  0.00    +0.000 A 
ATOM     30  C   UNL     1      -0.290   1.597   1.028  0.00  0.00    +0.002 A 
ATOM     31  C   UNL     1       0.890   2.314   1.036  0.00  0.00    +0.023 A 
ENDBRANCH   3  26
BRANCH   1  32
ATOM     32  C   UNL     1       4.806   5.302   2.494  0.00  0.00    +0.205 C 
BRANCH  32  34
ATOM     33  N   UNL     1       5.027   5.947   4.871  0.00  0.00    -0.311 N 
ATOM     34  C   UNL     1       4.217   5.683   3.827  0.00  0.00    +0.231 C 
ATOM     35  O   UNL     1       3.014   5.752   3.961  0.00  0.00    -0.274 OA
ATOM     36  H   UNL     1       5.990   5.892   4.764  0.00  0.00    +0.149 HD
BRANCH  33  37
ATOM     37  C   UNL     1       4.455   6.317   6.168  0.00  0.00    +0.070 C 
ATOM     38  C   UNL     1       4.103   5.051   6.950  0.00  0.00    +0.028 C 
BRANCH  37  40
ATOM     39  C   UNL     1       5.732   8.463   6.238  0.00  0.00    +0.005 C 
ATOM     40  C   UNL     1       5.474   7.139   6.960  0.00  0.00    +0.018 C 
ENDBRANCH  37  40
ENDBRANCH  33  37
ENDBRANCH  32  34
ENDBRANCH   1  32
TORSDOF 6
