REMARK  Name = ZINC39944256
REMARK  10 active torsions:
REMARK  status: ('A' for Active; 'I' for Inactive)
REMARK    1  A    between atoms: C_1  and  C_2
REMARK    2  A    between atoms: C_2  and  C_3
REMARK    3  A    between atoms: C_3  and  C_4
REMARK    4  A    between atoms: C_3  and  C_5
REMARK    5  A    between atoms: C_3  and  C_6
REMARK    6  A    between atoms: C_13  and  C_17
REMARK    7  A    between atoms: N_19  and  N_20
REMARK    8  A    between atoms: C_21  and  C_22
REMARK    9  A    between atoms: C_21  and  C_23
REMARK   10  A    between atoms: C_26  and  O_29
REMARK                            x       y       z     vdW  Elec       q    Type
REMARK                         _______ _______ _______ _____ _____    ______ ____
ROOT
ATOM      1  C   UNL     1       3.296  -4.465   4.442  0.00  0.00    +0.280 C 
ATOM      2  O   UNL     1       4.136  -3.688   4.028  0.00  0.00    -0.267 OA
ATOM      3  N   UNL     1       3.497  -5.117   5.604  0.00  0.00    -0.202 N 
ATOM      4  H   UNL     1       2.827  -5.737   5.935  0.00  0.00    +0.178 HD
ENDROOT
BRANCH   1  11
ATOM      5  C   UNL     1       0.763  -2.041   1.233  0.00  0.00    -0.004 C 
ATOM      6  C   UNL     1      -0.673  -2.559   1.219  0.00  0.00    +0.010 C 
ATOM      7  C   UNL     1      -0.685  -4.096   1.129  0.00  0.00    +0.054 C 
ATOM      8  C   UNL     1       0.236  -4.591   2.211  0.00  0.00    +0.050 C 
ATOM      9  N   UNL     1       0.084  -5.436   3.159  0.00  0.00    -0.158 NA
ATOM     10  N   UNL     1       1.067  -5.486   3.978  0.00  0.00    -0.148 NA
ATOM     11  C   UNL     1       2.062  -4.692   3.675  0.00  0.00    +0.135 C 
ATOM     12  C   UNL     1       1.661  -4.059   2.363  0.00  0.00    +0.091 C 
ATOM     13  C   UNL     1       1.527  -2.538   2.465  0.00  0.00    +0.020 C 
BRANCH   5  14
ATOM     14  C   UNL     1       0.742  -0.511   1.242  0.00  0.00    -0.032 C 
ATOM     15  C   UNL     1       2.178   0.019   1.231  0.00  0.00    +0.011 C 
ATOM     16  C   UNL     1       0.026  -0.018   2.500  0.00  0.00    +0.011 C 
BRANCH  14  18
ATOM     17  C   UNL     1      -0.019   1.526   0.010  0.00  0.00    +0.004 C 
ATOM     18  C   UNL     1       0.002  -0.004   0.002  0.00  0.00    +0.003 C 
ENDBRANCH  14  18
ENDBRANCH   5  14
ENDBRANCH   1  11
BRANCH   3  19
ATOM     19  N   UNL     1       4.672  -4.901   6.335  0.00  0.00    -0.184 NA
ATOM     20  C   UNL     1       4.866  -5.530   7.455  0.00  0.00    +0.063 C 
ATOM     21  C   UNL     1       3.826  -6.492   7.968  0.00  0.00    +0.068 C 
BRANCH  20  22
ATOM     22  C   UNL     1       6.103  -5.303   8.223  0.00  0.00    -0.002 A 
ATOM     23  C   UNL     1       6.316  -5.982   9.426  0.00  0.00    +0.013 A 
ATOM     24  C   UNL     1       7.474  -5.767  10.141  0.00  0.00    +0.046 A 
ATOM     25  C   UNL     1       8.428  -4.875   9.668  0.00  0.00    +0.117 A 
ATOM     26  C   UNL     1       8.221  -4.197   8.474  0.00  0.00    +0.046 A 
ATOM     27  C   UNL     1       7.069  -4.411   7.749  0.00  0.00    +0.013 A 
BRANCH  25  28
ATOM     28  O   UNL     1       9.568  -4.665  10.377  0.00  0.00    -0.507 OA
ATOM     29  H   UNL     1      10.293  -5.261  10.142  0.00  0.00    +0.292 HD
ENDBRANCH  25  28
ENDBRANCH  20  22
ENDBRANCH   3  19
TORSDOF 6
