REMARK  Name = ZINC39653509
REMARK  10 active torsions:
REMARK  status: ('A' for Active; 'I' for Inactive)
REMARK    1  A    between atoms: C_1  and  C_2
REMARK    2  A    between atoms: C_2  and  O_3
REMARK    3  A    between atoms: O_3  and  C_4
REMARK    4  A    between atoms: C_6  and  C_12
REMARK    5  A    between atoms: C_9  and  O_10
REMARK    6  A    between atoms: O_10  and  C_11
REMARK    7  A    between atoms: C_12  and  C_13
REMARK    8  A    between atoms: C_13  and  N_14
REMARK    9  A    between atoms: C_15  and  C_17
REMARK   10  A    between atoms: C_28  and  C_30
REMARK                            x       y       z     vdW  Elec       q    Type
REMARK                         _______ _______ _______ _____ _____    ______ ____
ROOT
ATOM      1  C   UNL     1       4.840  -7.312   2.139  0.00  0.00    +0.100 C 
ATOM      2  C   UNL     1       4.058  -8.627   1.922  0.00  0.00    +0.121 C 
ATOM      3  N   UNL     1       4.782  -9.632   2.735  0.00  0.00    -0.300 N 
ATOM      4  C   UNL     1       5.159  -8.905   3.971  0.00  0.00    +0.115 C 
ATOM      5  C   UNL     1       5.561  -7.499   3.485  0.00  0.00    -0.004 C 
ATOM      6  C   UNL     1       7.072  -7.420   3.290  0.00  0.00    -0.010 C 
ATOM      7  C   UNL     1       7.765  -7.552   4.649  0.00  0.00    -0.082 C 
ATOM      8  N   UNL     1       7.309  -6.476   5.539  0.00  0.00    +0.379 N 
ATOM      9  C   UNL     1       5.870  -6.614   5.795  0.00  0.00    -0.082 C 
ATOM     10  C   UNL     1       5.098  -6.443   4.484  0.00  0.00    -0.010 C 
ATOM     11  C   UNL     1       5.041 -10.917   2.421  0.00  0.00    +0.219 C 
ATOM     12  O   UNL     1       4.735 -11.348   1.329  0.00  0.00    -0.275 OA
ATOM     13  H   UNL     1       7.811  -6.529   6.412  0.00  0.00    -0.086 HD
ATOM     14  H   UNL     1       7.488  -5.584   5.104  0.00  0.00    -0.086 HD
ENDROOT
BRANCH  11  15
ATOM     15  C   UNL     1       5.710 -11.818   3.426  0.00  0.00    +0.079 C 
ATOM     16  C   UNL     1       6.439 -12.953   2.696  0.00  0.00    +0.017 C 
ATOM     17  C   UNL     1       7.253 -13.745   3.723  0.00  0.00    +0.027 C 
ATOM     18  C   UNL     1       6.393 -14.101   4.900  0.00  0.00    -0.031 C 
ATOM     19  C   UNL     1       5.265 -13.528   5.174  0.00  0.00    -0.030 C 
ATOM     20  C   UNL     1       4.655 -12.431   4.350  0.00  0.00    +0.039 C 
ENDBRANCH  11  15
BRANCH   1  22
ATOM     21  N   UNL     1       4.308  -4.915   1.839  0.00  0.00    -0.315 N 
ATOM     22  C   UNL     1       3.893  -6.143   2.209  0.00  0.00    +0.218 C 
ATOM     23  O   UNL     1       2.756  -6.306   2.599  0.00  0.00    -0.275 OA
ATOM     24  H   UNL     1       5.218  -4.784   1.528  0.00  0.00    +0.149 HD
BRANCH  21  25
ATOM     25  C   UNL     1       3.387  -3.778   1.908  0.00  0.00    +0.109 C 
BRANCH  25  26
ATOM     26  C   UNL     1       4.104  -2.512   1.435  0.00  0.00    +0.054 C 
BRANCH  26  29
ATOM     27  C   UNL     1       2.205   0.488   2.728  0.00  0.00    +0.162 A 
ATOM     28  C   UNL     1       3.076  -0.588   2.661  0.00  0.00    +0.053 A 
ATOM     29  C   UNL     1       3.156  -1.342   1.506  0.00  0.00    -0.042 A 
ATOM     30  C   UNL     1       2.369  -1.026   0.414  0.00  0.00    +0.007 A 
ATOM     31  C   UNL     1       1.498   0.047   0.473  0.00  0.00    +0.049 A 
ATOM     32  C   UNL     1       1.409   0.803   1.631  0.00  0.00    +0.162 A 
BRANCH  32  33
ATOM     33  O   UNL     1       0.548   1.854   1.693  0.00  0.00    -0.491 OA
ATOM     34  C   UNL     1      -0.238   2.119   0.529  0.00  0.00    +0.277 C 
ENDBRANCH  32  33
BRANCH  27  35
ATOM     35  O   UNL     1       2.124   1.230   3.864  0.00  0.00    -0.489 OA
BRANCH  35  37
ATOM     36  C   UNL     1       2.742   1.793   6.132  0.00  0.00    +0.048 C 
ATOM     37  C   UNL     1       2.971   0.849   4.950  0.00  0.00    +0.226 C 
ENDBRANCH  35  37
ENDBRANCH  27  35
ENDBRANCH  26  29
ENDBRANCH  25  26
ENDBRANCH  21  25
ENDBRANCH   1  22
TORSDOF 8
