REMARK  Name = ZINC14667371
REMARK  11 active torsions:
REMARK  status: ('A' for Active; 'I' for Inactive)
REMARK    1  A    between atoms: C_1  and  C_2
REMARK    2  A    between atoms: C_2  and  C_3
REMARK    3  A    between atoms: C_2  and  C_4
REMARK    4  A    between atoms: C_4  and  O_5
REMARK    5  A    between atoms: O_5  and  C_6
REMARK    6  A    between atoms: C_11  and  C_12
REMARK    7  A    between atoms: N_14  and  C_15
REMARK    8  A    between atoms: C_15  and  N_17
REMARK    9  A    between atoms: N_17  and  N_18
REMARK   10  A    between atoms: C_19  and  C_21
REMARK   11  A    between atoms: C_24  and  N_27
REMARK                            x       y       z     vdW  Elec       q    Type
REMARK                         _______ _______ _______ _____ _____    ______ ____
ROOT
ATOM      1  C   UNL     1      -3.195   1.533   5.880  0.00  0.00    +0.153 C 
ATOM      2  S   UNL     1      -3.863   2.014   4.379  0.00  0.00    -0.017 S 
ENDROOT
BRANCH   1   5
ATOM      3  C   UNL     1      -1.400   0.543   4.764  0.00  0.00    +0.253 C 
ATOM      4  O   UNL     1      -1.874   0.884   3.698  0.00  0.00    -0.270 OA
ATOM      5  N   UNL     1      -2.034   0.849   5.913  0.00  0.00    -0.263 N 
ATOM      6  H   UNL     1      -1.656   0.577   6.764  0.00  0.00    +0.157 HD
BRANCH   3  12
ATOM      7  C   UNL     1       0.534  -0.526   3.608  0.00  0.00    +0.133 A 
ATOM      8  C   UNL     1       1.731  -1.225   3.654  0.00  0.00    +0.047 A 
ATOM      9  C   UNL     1       2.262  -1.609   4.868  0.00  0.00    +0.019 A 
ATOM     10  C   UNL     1       1.607  -1.300   6.050  0.00  0.00    +0.019 A 
ATOM     11  C   UNL     1       0.416  -0.605   6.023  0.00  0.00    +0.032 A 
ATOM     12  C   UNL     1      -0.130  -0.206   4.800  0.00  0.00    +0.080 A 
ATOM     13 BR   UNL     1       2.348  -1.833   7.706  0.00  0.00    -0.050 Br
BRANCH   7  14
ATOM     14  O   UNL     1       0.010  -0.149   2.414  0.00  0.00    -0.491 OA
BRANCH  14  15
ATOM     15  C   UNL     1       0.742  -0.511   1.242  0.00  0.00    +0.232 C 
BRANCH  15  17
ATOM     16  C   UNL     1      -0.019   1.526   0.010  0.00  0.00    +0.010 C 
ATOM     17  C   UNL     1       0.002  -0.004   0.002  0.00  0.00    +0.020 C 
ATOM     18  C   UNL     1       0.718  -0.497  -1.257  0.00  0.00    +0.010 C 
ENDBRANCH  15  17
ENDBRANCH  14  15
ENDBRANCH   7  14
ENDBRANCH   3  12
ENDBRANCH   1   5
BRANCH   1  19
ATOM     19  N   UNL     1      -3.830   1.839   7.029  0.00  0.00    -0.245 N 
ATOM     20  H   UNL     1      -4.665   2.332   7.005  0.00  0.00    +0.172 HD
BRANCH  19  21
ATOM     21  N   UNL     1      -3.283   1.446   8.257  0.00  0.00    -0.231 N 
ATOM     22  C   UNL     1      -3.918   1.752   9.406  0.00  0.00    +0.260 C 
ATOM     23  O   UNL     1      -4.965   2.369   9.377  0.00  0.00    -0.269 OA
ATOM     24  H   UNL     1      -2.448   0.954   8.281  0.00  0.00    +0.173 HD
BRANCH  22  25
ATOM     25  C   UNL     1      -3.341   1.337  10.703  0.00  0.00    +0.038 A 
ATOM     26  C   UNL     1      -2.136   0.633  10.741  0.00  0.00    +0.015 A 
ATOM     27  C   UNL     1      -1.603   0.249  11.954  0.00  0.00    +0.033 A 
ATOM     28  C   UNL     1      -2.260   0.560  13.131  0.00  0.00    +0.126 A 
ATOM     29  C   UNL     1      -3.455   1.257  13.100  0.00  0.00    +0.033 A 
ATOM     30  C   UNL     1      -3.996   1.652  11.894  0.00  0.00    +0.015 A 
BRANCH  28  31
ATOM     31  N   UNL     1      -1.683   0.144  14.429  0.00  0.00    +0.056 N 
ATOM     32  O   UNL     1      -0.640  -0.466  14.459  0.00  0.00    -0.126 OA
ATOM     33  O   UNL     1      -2.255   0.414  15.459  0.00  0.00    -0.126 OA
ENDBRANCH  28  31
ENDBRANCH  22  25
ENDBRANCH  19  21
ENDBRANCH   1  19
TORSDOF 9
