REMARK  Name = ZINC00228734
REMARK  6 active torsions:
REMARK  status: ('A' for Active; 'I' for Inactive)
REMARK    1  A    between atoms: C_1  and  N_2
REMARK    2  A    between atoms: N_2  and  C_3
REMARK    3  A    between atoms: N_2  and  C_4
REMARK    4  A    between atoms: C_7  and  C_10
REMARK    5  A    between atoms: N_11  and  N_12
REMARK    6  A    between atoms: N_15  and  C_18
REMARK                            x       y       z     vdW  Elec       q    Type
REMARK                         _______ _______ _______ _____ _____    ______ ____
ROOT
ATOM      1  N   UNL     1       1.569   6.112  -0.824  0.00  0.00    -0.253 N 
ATOM      2  C   UNL     1       2.475   5.539   0.183  0.00  0.00    +0.144 C 
ATOM      3  C   UNL     1       2.521   4.019  -0.013  0.00  0.00    +0.125 C 
ATOM      4  N   UNL     1       1.153   3.484   0.005  0.00  0.00    -0.327 N 
ATOM      5  C   UNL     1       0.359   4.016  -1.110  0.00  0.00    +0.125 C 
ATOM      6  C   UNL     1       0.223   5.534  -0.959  0.00  0.00    +0.144 C 
ENDROOT
BRANCH   4   7
ATOM      7  C   UNL     1       1.162   2.087  -0.007  0.00  0.00    +0.030 A 
ATOM      8  C   UNL     1      -0.035   1.384   0.007  0.00  0.00    +0.024 A 
ATOM      9  C   UNL     1      -0.024   0.003  -0.005  0.00  0.00    +0.022 A 
ATOM     10  C   UNL     1       1.180  -0.680  -0.031  0.00  0.00    +0.041 A 
ATOM     11  C   UNL     1       2.374   0.018  -0.044  0.00  0.00    +0.022 A 
ATOM     12  C   UNL     1       2.369   1.399  -0.032  0.00  0.00    +0.024 A 
ATOM     13 CL   UNL     1       1.190  -2.416  -0.046  0.00  0.00    -0.084 Cl
ENDBRANCH   4   7
BRANCH   1  15
ATOM     14  C   UNL     1       3.126   7.748  -1.427  0.00  0.00    +0.138 C 
ATOM     15  N   UNL     1       1.977   7.181  -1.632  0.00  0.00    -0.192 NA
BRANCH  14  19
ATOM     16  C   UNL     1       4.230  11.181  -3.669  0.00  0.00    +0.029 A 
ATOM     17  C   UNL     1       5.101  10.666  -2.715  0.00  0.00    +0.024 A 
ATOM     18  C   UNL     1       4.746   9.553  -1.985  0.00  0.00    +0.011 A 
ATOM     19  C   UNL     1       3.509   8.940  -2.205  0.00  0.00    -0.005 A 
ATOM     20  C   UNL     1       2.639   9.457  -3.169  0.00  0.00    +0.011 A 
ATOM     21  C   UNL     1       2.999  10.575  -3.890  0.00  0.00    +0.024 A 
BRANCH  16  23
ATOM     22  C   UNL     1       5.933  12.883  -4.255  0.00  0.00    +0.129 C 
ATOM     23  N   UNL     1       4.593  12.309  -4.406  0.00  0.00    -0.336 N 
ATOM     24  C   UNL     1       3.635  12.920  -5.331  0.00  0.00    +0.129 C 
ENDBRANCH  16  23
ENDBRANCH  14  19
ENDBRANCH   1  15
TORSDOF 4
