REMARK  Name = ZINC12195661
REMARK  8 active torsions:
REMARK  status: ('A' for Active; 'I' for Inactive)
REMARK    1  A    between atoms: C_1  and  C_2
REMARK    2  A    between atoms: C_2  and  C_3
REMARK    3  A    between atoms: C_3  and  C_5
REMARK    4  A    between atoms: C_3  and  N_53
REMARK    5  A    between atoms: C_6  and  N_53
REMARK    6  A    between atoms: C_14  and  C_26
REMARK    7  A    between atoms: C_18  and  S_22
REMARK    8  A    between atoms: S_22  and  C_25
REMARK                            x       y       z     vdW  Elec       q    Type
REMARK                         _______ _______ _______ _____ _____    ______ ____
ROOT
ATOM      1  C   UNL     1      -6.444   2.808   0.718  0.00  0.00    -0.069 C 
ATOM      2  C   UNL     1      -6.589   2.045  -0.602  0.00  0.00    +0.003 C 
ATOM      3  C   UNL     1      -5.418   1.073  -0.754  0.00  0.00    +0.106 C 
ATOM      4  N   UNL     1      -4.154   1.820  -0.737  0.00  0.00    -0.300 N 
ATOM      5  C   UNL     1      -3.970   2.523   0.539  0.00  0.00    +0.106 C 
ATOM      6  C   UNL     1      -5.098   3.539   0.731  0.00  0.00    +0.003 C 
ATOM      7  C   UNL     1      -3.082   0.987  -1.003  0.00  0.00    +0.219 A 
ATOM      8  N   UNL     1      -3.316  -0.305  -1.227  0.00  0.00    -0.219 NA
ATOM      9  C   UNL     1      -2.339  -1.148  -1.486  0.00  0.00    +0.051 A 
ATOM     10  C   UNL     1      -1.020  -0.656  -1.522  0.00  0.00    +0.022 A 
ATOM     11  C   UNL     1       0.077  -1.487  -1.789  0.00  0.00    +0.013 A 
ATOM     12  C   UNL     1       1.331  -0.956  -1.811  0.00  0.00    +0.028 A 
ATOM     13  C   UNL     1       1.540   0.401  -1.572  0.00  0.00    +0.090 A 
ATOM     14  C   UNL     1       0.496   1.236  -1.309  0.00  0.00    +0.055 A 
ATOM     15  C   UNL     1      -0.810   0.726  -1.278  0.00  0.00    +0.078 A 
ATOM     16  N   UNL     1      -1.869   1.503  -1.019  0.00  0.00    -0.214 NA
ATOM     17  C   UNL     1      -2.625  -2.606  -1.737  0.00  0.00    +0.066 C 
ENDROOT
BRANCH  13  18
ATOM     18  S   UNL     1       3.179   1.046  -1.609  0.00  0.00    -0.006 S 
ATOM     19  O   UNL     1       3.137   2.191  -0.769  0.00  0.00    -0.170 OA
ATOM     20  O   UNL     1       4.011  -0.060  -1.287  0.00  0.00    -0.170 OA
ATOM     21  C   UNL     1       3.444   1.545  -3.333  0.00  0.00    +0.200 C 
ENDBRANCH  13  18
BRANCH   1  22
ATOM     22  N   UNL     1      -7.539   3.790   0.834  0.00  0.00    +0.383 N 
ATOM     23  H   UNL     1      -7.257   4.667   0.381  0.00  0.00    -0.085 HD
ATOM     24  H   UNL     1      -8.377   3.419   0.371  0.00  0.00    -0.085 HD
BRANCH  22  25
ATOM     25  C   UNL     1      -7.843   4.052   2.254  0.00  0.00    -0.075 C 
ATOM     26  C   UNL     1      -7.240   5.397   2.663  0.00  0.00    -0.014 C 
BRANCH  25  28
ATOM     27  C   UNL     1      -9.950   2.712   2.154  0.00  0.00    +0.002 C 
ATOM     28  C   UNL     1      -9.361   4.094   2.444  0.00  0.00    -0.019 C 
ENDBRANCH  25  28
ENDBRANCH  22  25
ENDBRANCH   1  22
TORSDOF 4
