REMARK  Name = ZINC35543561
REMARK  10 active torsions:
REMARK  status: ('A' for Active; 'I' for Inactive)
REMARK    1  A    between atoms: C_1  and  C_2
REMARK    2  A    between atoms: C_2  and  C_3
REMARK    3  A    between atoms: C_3  and  C_5
REMARK    4  A    between atoms: C_3  and  N_6
REMARK    5  A    between atoms: C_7  and  C_9
REMARK    6  A    between atoms: N_22  and  C_25
REMARK    7  A    between atoms: C_25  and  C_26
REMARK    8  A    between atoms: N_28  and  C_29
REMARK    9  A    between atoms: C_29  and  C_30
REMARK   10  A    between atoms: C_29  and  C_31
REMARK                            x       y       z     vdW  Elec       q    Type
REMARK                         _______ _______ _______ _____ _____    ______ ____
ROOT
ATOM      1  C   UNL     1       4.271   0.470  -2.304  0.00  0.00    +0.098 C 
ATOM      2  C   UNL     1       5.031  -0.532  -1.460  0.00  0.00    +0.051 C 
ATOM      3  C   UNL     1       5.301  -1.807  -2.204  0.00  0.00    -0.026 A 
ATOM      4  C   UNL     1       5.409  -2.998  -1.508  0.00  0.00    +0.005 A 
ATOM      5  C   UNL     1       5.660  -4.177  -2.184  0.00  0.00    +0.000 A 
ATOM      6  C   UNL     1       5.806  -4.171  -3.560  0.00  0.00    +0.002 A 
ATOM      7  C   UNL     1       5.698  -2.986  -4.260  0.00  0.00    +0.023 A 
ATOM      8  C   UNL     1       5.443  -1.798  -3.583  0.00  0.00    +0.033 A 
ATOM      9  N   UNL     1       5.326  -0.609  -4.291  0.00  0.00    -0.329 N 
ATOM     10  C   UNL     1       4.775   0.606  -3.715  0.00  0.00    +0.069 C 
ATOM     11  C   UNL     1       5.804   1.729  -3.857  0.00  0.00    -0.055 C 
ATOM     12  N   UNL     1       6.181   1.854  -5.272  0.00  0.00    +0.388 N 
ATOM     13  C   UNL     1       6.819   0.621  -5.746  0.00  0.00    -0.059 C 
ATOM     14  C   UNL     1       5.815  -0.532  -5.683  0.00  0.00    +0.087 C 
ATOM     15  H   UNL     1       5.354   2.034  -5.822  0.00  0.00    -0.081 HD
ENDROOT
BRANCH   1  17
ATOM     16  N   UNL     1       2.125  -0.091  -1.209  0.00  0.00    -0.312 N 
ATOM     17  C   UNL     1       2.824   0.051  -2.353  0.00  0.00    +0.218 C 
ATOM     18  O   UNL     1       2.289  -0.157  -3.421  0.00  0.00    -0.275 OA
ATOM     19  H   UNL     1       2.553   0.075  -0.355  0.00  0.00    +0.149 HD
BRANCH  16  20
ATOM     20  C   UNL     1       0.718  -0.497  -1.257  0.00  0.00    +0.070 C 
ATOM     21  C   UNL     1       0.630  -2.023  -1.329  0.00  0.00    +0.028 C 
BRANCH  20  23
ATOM     22  C   UNL     1      -0.019   1.526   0.010  0.00  0.00    +0.005 C 
ATOM     23  C   UNL     1       0.002  -0.004   0.002  0.00  0.00    +0.018 C 
ENDBRANCH  20  23
ENDBRANCH  16  20
ENDBRANCH   1  17
BRANCH  12  24
ATOM     24  C   UNL     1       7.118   2.975  -5.427  0.00  0.00    +0.019 C 
BRANCH  24  25
ATOM     25  C   UNL     1       7.412   3.186  -6.889  0.00  0.00    +0.197 C 
ATOM     26  O   UNL     1       6.893   2.473  -7.721  0.00  0.00    -0.278 OA
ATOM     27  N   UNL     1       8.253   4.167  -7.273  0.00  0.00    -0.315 N 
ATOM     28  H   UNL     1       8.669   4.737  -6.608  0.00  0.00    +0.149 HD
BRANCH  27  29
ATOM     29  C   UNL     1       8.540   4.371  -8.695  0.00  0.00    +0.067 C 
ATOM     30  C   UNL     1       7.457   5.260  -9.310  0.00  0.00    +0.027 C 
ATOM     31  C   UNL     1       9.903   5.049  -8.849  0.00  0.00    +0.027 C 
ENDBRANCH  27  29
ENDBRANCH  24  25
ENDBRANCH  12  24
TORSDOF 6
