REMARK  Name = ZINC60156570
REMARK  12 active torsions:
REMARK  status: ('A' for Active; 'I' for Inactive)
REMARK    1  A    between atoms: C_1  and  C_2
REMARK    2  A    between atoms: N_5  and  C_8
REMARK    3  A    between atoms: C_8  and  C_10
REMARK    4  A    between atoms: C_8  and  C_11
REMARK    5  A    between atoms: C_11  and  N_12
REMARK    6  A    between atoms: C_13  and  C_15
REMARK    7  A    between atoms: C_18  and  C_21
REMARK    8  A    between atoms: C_21  and  N_22
REMARK    9  A    between atoms: N_22  and  S_23
REMARK   10  A    between atoms: S_23  and  C_26
REMARK   11  A    between atoms: C_29  and  C_32
REMARK   12  A    between atoms: C_32  and  C_34
REMARK                            x       y       z     vdW  Elec       q    Type
REMARK                         _______ _______ _______ _____ _____    ______ ____
ROOT
ATOM      1  C   UNL     1      -5.132  -3.744  -0.724  0.00  0.00    +0.037 A 
ATOM      2  C   UNL     1      -4.513  -3.128  -1.812  0.00  0.00    +0.013 A 
ATOM      3  C   UNL     1      -5.269  -2.724  -2.894  0.00  0.00    +0.006 A 
ATOM      4  C   UNL     1      -6.638  -2.929  -2.900  0.00  0.00    -0.032 A 
ATOM      5  C   UNL     1      -7.257  -3.539  -1.824  0.00  0.00    +0.006 A 
ATOM      6  C   UNL     1      -6.512  -3.953  -0.739  0.00  0.00    +0.013 A 
ENDROOT
BRANCH   1   8
ATOM      7  N   UNL     1      -2.996  -3.977   0.450  0.00  0.00    -0.313 N 
ATOM      8  C   UNL     1      -4.328  -4.179   0.438  0.00  0.00    +0.244 C 
ATOM      9  O   UNL     1      -4.869  -4.721   1.383  0.00  0.00    -0.270 OA
ATOM     10  H   UNL     1      -2.564  -3.545  -0.304  0.00  0.00    +0.149 HD
BRANCH   7  11
ATOM     11  C   UNL     1      -2.199  -4.408   1.601  0.00  0.00    +0.089 C 
BRANCH  11  12
ATOM     12  C   UNL     1      -0.753  -3.942   1.424  0.00  0.00    -0.054 C 
ATOM     13  C   UNL     1       0.052  -4.288   2.679  0.00  0.00    -0.012 C 
BRANCH  12  18
ATOM     14  C   UNL     1       0.082   1.699   1.509  0.00  0.00    +0.007 C 
ATOM     15  C   UNL     1       0.143   0.204   1.830  0.00  0.00    -0.018 C 
ATOM     16  C   UNL     1       0.659  -0.561   0.609  0.00  0.00    -0.016 C 
ATOM     17  C   UNL     1       0.642  -2.062   0.909  0.00  0.00    -0.078 C 
ATOM     18  N   UNL     1      -0.729  -2.488   1.213  0.00  0.00    +0.382 N 
ATOM     19  C   UNL     1      -1.204  -1.811   2.425  0.00  0.00    -0.078 C 
ATOM     20  C   UNL     1      -1.259  -0.301   2.183  0.00  0.00    -0.016 C 
ATOM     21  H   UNL     1      -1.333  -2.253   0.439  0.00  0.00    -0.081 HD
ENDBRANCH  12  18
ENDBRANCH  11  12
ENDBRANCH   7  11
ENDBRANCH   1   8
BRANCH   4  22
ATOM     22  C   UNL     1      -7.457  -2.485  -4.085  0.00  0.00    +0.141 C 
BRANCH  22  23
ATOM     23  N   UNL     1      -7.535  -3.575  -5.060  0.00  0.00    -0.186 NA
ATOM     24  H   UNL     1      -6.928  -4.329  -4.995  0.00  0.00    +0.148 HD
BRANCH  23  25
ATOM     25  S   UNL     1      -8.660  -3.521  -6.275  0.00  0.00    +0.059 S 
ATOM     26  O   UNL     1      -8.468  -4.690  -7.059  0.00  0.00    -0.153 OA
ATOM     27  O   UNL     1      -9.904  -3.209  -5.663  0.00  0.00    -0.153 OA
BRANCH  25  28
ATOM     28  C   UNL     1      -8.248  -2.151  -7.304  0.00  0.00    +0.105 A 
ATOM     29  C   UNL     1      -8.775  -0.901  -7.030  0.00  0.00    +0.029 A 
ATOM     30  C   UNL     1      -8.459   0.176  -7.831  0.00  0.00    +0.013 A 
ATOM     31  C   UNL     1      -7.602   0.002  -8.922  0.00  0.00    +0.017 A 
ATOM     32  C   UNL     1      -7.073  -1.264  -9.193  0.00  0.00    +0.013 A 
ATOM     33  C   UNL     1      -7.395  -2.330  -8.379  0.00  0.00    +0.029 A 
BRANCH  31  34
ATOM     34  C   UNL     1      -7.259   1.146  -9.783  0.00  0.00    +0.160 C 
ATOM     35  O   UNL     1      -7.720   2.242  -9.546  0.00  0.00    -0.292 OA
ATOM     36  C   UNL     1      -6.335   0.955 -10.958  0.00  0.00    +0.091 C 
ENDBRANCH  31  34
ENDBRANCH  25  28
ENDBRANCH  23  25
ENDBRANCH  22  23
ENDBRANCH   4  22
TORSDOF 9
