REMARK  Name = ZINC39653243
REMARK  10 active torsions:
REMARK  status: ('A' for Active; 'I' for Inactive)
REMARK    1  A    between atoms: C_1  and  C_2
REMARK    2  A    between atoms: C_2  and  O_3
REMARK    3  A    between atoms: O_3  and  C_4
REMARK    4  A    between atoms: C_6  and  C_12
REMARK    5  A    between atoms: C_9  and  O_10
REMARK    6  A    between atoms: O_10  and  C_11
REMARK    7  A    between atoms: C_12  and  C_13
REMARK    8  A    between atoms: C_13  and  N_14
REMARK    9  A    between atoms: C_15  and  C_17
REMARK   10  A    between atoms: C_28  and  C_30
REMARK                            x       y       z     vdW  Elec       q    Type
REMARK                         _______ _______ _______ _____ _____    ______ ____
ROOT
ATOM      1  C   UNL     1       0.832  -7.697  -4.262  0.00  0.00    +0.100 C 
ATOM      2  C   UNL     1       0.298  -9.088  -3.853  0.00  0.00    +0.121 C 
ATOM      3  N   UNL     1       0.614  -9.964  -5.007  0.00  0.00    -0.296 N 
ATOM      4  C   UNL     1       1.956  -9.519  -5.451  0.00  0.00    +0.115 C 
ATOM      5  C   UNL     1       1.921  -7.984  -5.310  0.00  0.00    -0.004 C 
ATOM      6  C   UNL     1       1.553  -7.340  -6.643  0.00  0.00    -0.010 C 
ATOM      7  C   UNL     1       2.676  -7.590  -7.653  0.00  0.00    -0.082 C 
ATOM      8  N   UNL     1       3.931  -7.024  -7.142  0.00  0.00    +0.379 N 
ATOM      9  C   UNL     1       4.326  -7.713  -5.908  0.00  0.00    -0.082 C 
ATOM     10  C   UNL     1       3.272  -7.468  -4.824  0.00  0.00    -0.010 C 
ATOM     11  C   UNL     1      -0.148 -10.944  -5.533  0.00  0.00    +0.247 C 
ATOM     12  O   UNL     1      -1.285 -11.108  -5.137  0.00  0.00    -0.270 OA
ATOM     13  H   UNL     1       4.656  -7.137  -7.835  0.00  0.00    -0.086 HD
ATOM     14  H   UNL     1       3.801  -6.042  -6.951  0.00  0.00    -0.086 HD
ENDROOT
BRANCH  11  15
ATOM     15  C   UNL     1       0.400 -11.818  -6.591  0.00  0.00    +0.037 A 
ATOM     16  C   UNL     1       1.793 -11.950  -6.735  0.00  0.00    +0.013 A 
ATOM     17  C   UNL     1       2.320 -12.746  -7.699  0.00  0.00    +0.009 A 
ATOM     18  C   UNL     1       1.471 -13.453  -8.571  0.00  0.00    -0.018 A 
ATOM     19  C   UNL     1       1.994 -14.284  -9.576  0.00  0.00    +0.008 A 
ATOM     20  C   UNL     1       1.147 -14.956 -10.404  0.00  0.00    +0.001 A 
ATOM     21  C   UNL     1      -0.234 -14.833 -10.271  0.00  0.00    +0.001 A 
ATOM     22  C   UNL     1      -0.777 -14.038  -9.310  0.00  0.00    +0.008 A 
ATOM     23  C   UNL     1       0.065 -13.329  -8.435  0.00  0.00    -0.017 A 
ATOM     24  C   UNL     1      -0.462 -12.505  -7.429  0.00  0.00    +0.021 A 
ENDBRANCH  11  15
BRANCH   1  26
ATOM     25  N   UNL     1       1.397  -5.646  -2.999  0.00  0.00    -0.315 N 
ATOM     26  C   UNL     1       1.425  -6.992  -3.069  0.00  0.00    +0.218 C 
ATOM     27  O   UNL     1       1.928  -7.636  -2.172  0.00  0.00    -0.275 OA
ATOM     28  H   UNL     1       0.995  -5.132  -3.716  0.00  0.00    +0.149 HD
BRANCH  25  29
ATOM     29  C   UNL     1       1.973  -4.961  -1.840  0.00  0.00    +0.109 C 
BRANCH  29  30
ATOM     30  C   UNL     1       1.811  -3.449  -2.008  0.00  0.00    +0.054 C 
BRANCH  30  33
ATOM     31  C   UNL     1       4.281  -1.721   0.269  0.00  0.00    +0.162 A 
ATOM     32  C   UNL     1       3.735  -2.370  -0.827  0.00  0.00    +0.053 A 
ATOM     33  C   UNL     1       2.404  -2.744  -0.816  0.00  0.00    -0.042 A 
ATOM     34  C   UNL     1       1.615  -2.472   0.287  0.00  0.00    +0.007 A 
ATOM     35  C   UNL     1       2.155  -1.825   1.383  0.00  0.00    +0.049 A 
ATOM     36  C   UNL     1       3.489  -1.453   1.381  0.00  0.00    +0.162 A 
BRANCH  36  37
ATOM     37  O   UNL     1       4.023  -0.822   2.461  0.00  0.00    -0.491 OA
ATOM     38  C   UNL     1       3.151  -0.579   3.567  0.00  0.00    +0.277 C 
ENDBRANCH  36  37
BRANCH  31  39
ATOM     39  O   UNL     1       5.590  -1.353   0.259  0.00  0.00    -0.489 OA
BRANCH  39  41
ATOM     40  C   UNL     1       7.782  -1.173  -0.743  0.00  0.00    +0.048 C 
ATOM     41  C   UNL     1       6.342  -1.660  -0.916  0.00  0.00    +0.226 C 
ENDBRANCH  39  41
ENDBRANCH  31  39
ENDBRANCH  30  33
ENDBRANCH  29  30
ENDBRANCH  25  29
ENDBRANCH   1  26
TORSDOF 8
