REMARK  Name = ZINC60156586
REMARK  12 active torsions:
REMARK  status: ('A' for Active; 'I' for Inactive)
REMARK    1  A    between atoms: C_1  and  C_2
REMARK    2  A    between atoms: N_5  and  C_8
REMARK    3  A    between atoms: C_8  and  C_10
REMARK    4  A    between atoms: C_8  and  C_11
REMARK    5  A    between atoms: C_11  and  N_12
REMARK    6  A    between atoms: C_13  and  C_15
REMARK    7  A    between atoms: C_17  and  S_22
REMARK    8  A    between atoms: S_22  and  N_25
REMARK    9  A    between atoms: N_25  and  C_26
REMARK   10  A    between atoms: C_26  and  C_27
REMARK   11  A    between atoms: C_27  and  O_28
REMARK   12  A    between atoms: O_28  and  C_29
REMARK                            x       y       z     vdW  Elec       q    Type
REMARK                         _______ _______ _______ _____ _____    ______ ____
ROOT
ATOM      1  C   UNL     1       1.968  -3.681   4.839  0.00  0.00    +0.052 A 
ATOM      2  C   UNL     1       0.701  -3.096   4.830  0.00  0.00    +0.042 A 
ATOM      3  C   UNL     1       0.117  -2.704   6.016  0.00  0.00    +0.106 A 
ATOM      4  C   UNL     1       0.784  -2.888   7.214  0.00  0.00    +0.029 A 
ATOM      5  C   UNL     1       2.040  -3.466   7.232  0.00  0.00    +0.018 A 
ATOM      6  C   UNL     1       2.634  -3.870   6.053  0.00  0.00    +0.030 A 
ATOM      7 BR   UNL     1       4.348  -4.668   6.079  0.00  0.00    -0.050 Br
ENDROOT
BRANCH   1   9
ATOM      8  N   UNL     1       1.955  -3.921   2.403  0.00  0.00    -0.313 N 
ATOM      9  C   UNL     1       2.600  -4.105   3.572  0.00  0.00    +0.245 C 
ATOM     10  O   UNL     1       3.702  -4.619   3.584  0.00  0.00    -0.270 OA
ATOM     11  H   UNL     1       1.076  -3.512   2.393  0.00  0.00    +0.149 HD
BRANCH   8  12
ATOM     12  C   UNL     1       2.582  -4.341   1.147  0.00  0.00    +0.089 C 
BRANCH  12  13
ATOM     13  C   UNL     1       1.710  -3.900  -0.030  0.00  0.00    -0.054 C 
ATOM     14  C   UNL     1       2.420  -4.233  -1.344  0.00  0.00    -0.012 C 
BRANCH  13  19
ATOM     15  C   UNL     1       1.236   1.728  -0.822  0.00  0.00    +0.007 C 
ATOM     16  C   UNL     1       1.521   0.239  -1.027  0.00  0.00    -0.018 C 
ATOM     17  C   UNL     1       2.531  -0.238   0.020  0.00  0.00    -0.016 C 
ATOM     18  C   UNL     1       2.752  -1.744  -0.140  0.00  0.00    -0.078 C 
ATOM     19  N   UNL     1       1.479  -2.451   0.048  0.00  0.00    +0.382 N 
ATOM     20  C   UNL     1       0.528  -2.052  -0.997  0.00  0.00    -0.078 C 
ATOM     21  C   UNL     1       0.223  -0.558  -0.869  0.00  0.00    -0.016 C 
ATOM     22  H   UNL     1       1.099  -2.221   0.953  0.00  0.00    -0.081 HD
ENDBRANCH  13  19
ENDBRANCH  12  13
ENDBRANCH   8  12
ENDBRANCH   1   9
BRANCH   3  23
ATOM     23  S   UNL     1      -1.483  -1.966   6.005  0.00  0.00    +0.058 S 
ATOM     24  O   UNL     1      -1.580  -1.189   7.191  0.00  0.00    -0.153 OA
ATOM     25  O   UNL     1      -1.664  -1.406   4.711  0.00  0.00    -0.153 OA
BRANCH  23  26
ATOM     26  N   UNL     1      -2.589  -3.190   6.149  0.00  0.00    -0.188 NA
ATOM     27  H   UNL     1      -3.202  -3.378   5.422  0.00  0.00    +0.148 HD
BRANCH  26  28
ATOM     28  C   UNL     1      -2.640  -3.989   7.376  0.00  0.00    +0.134 C 
BRANCH  28  29
ATOM     29  C   UNL     1      -3.950  -4.779   7.416  0.00  0.00    +0.176 C 
BRANCH  29  30
ATOM     30  O   UNL     1      -3.968  -5.726   6.346  0.00  0.00    -0.382 OA
ATOM     31  C   UNL     1      -5.155  -6.520   6.292  0.00  0.00    +0.194 C 
ENDBRANCH  29  30
ENDBRANCH  28  29
ENDBRANCH  26  28
ENDBRANCH  23  26
ENDBRANCH   3  23
TORSDOF 9
