REMARK  Name = ZINC50441535
REMARK  8 active torsions:
REMARK  status: ('A' for Active; 'I' for Inactive)
REMARK    1  A    between atoms: C_1  and  C_2
REMARK    2  A    between atoms: C_2  and  C_3
REMARK    3  A    between atoms: C_2  and  C_16
REMARK    4  A    between atoms: C_2  and  N_19
REMARK    5  A    between atoms: C_3  and  O_4
REMARK    6  A    between atoms: O_4  and  C_5
REMARK    7  A    between atoms: C_8  and  N_12
REMARK    8  A    between atoms: N_19  and  C_20
REMARK                            x       y       z     vdW  Elec       q    Type
REMARK                         _______ _______ _______ _____ _____    ______ ____
ROOT
ATOM      1  C   UNL     1       0.742  -0.511   1.242  0.00  0.00    +0.225 C 
ENDROOT
BRANCH   1   3
ATOM      2  C   UNL     1      -0.019   1.526   0.010  0.00  0.00    +0.003 C 
ATOM      3  C   UNL     1       0.002  -0.004   0.002  0.00  0.00    +0.041 C 
BRANCH   3   4
ATOM      4  C   UNL     1      -1.412  -0.526   0.013  0.00  0.00    +0.202 C 
ATOM      5  O   UNL     1      -1.939  -0.827   1.062  0.00  0.00    -0.277 OA
ATOM      6  N   UNL     1      -2.090  -0.657  -1.144  0.00  0.00    -0.330 N 
ATOM      7  H   UNL     1      -1.669  -0.416  -1.984  0.00  0.00    +0.145 HD
ATOM      8  H   UNL     1      -3.000  -0.993  -1.137  0.00  0.00    +0.145 HD
ENDBRANCH   3   4
BRANCH   3   9
ATOM      9  N   UNL     1       0.690  -0.478  -1.207  0.00  0.00    +0.389 N 
ATOM     10  C   UNL     1       0.710  -1.947  -1.215  0.00  0.00    -0.099 C 
ATOM     11  H   UNL     1       0.202  -0.144  -2.024  0.00  0.00    -0.085 HD
ATOM     12  H   UNL     1       1.636  -0.129  -1.214  0.00  0.00    -0.085 HD
ENDBRANCH   3   9
ENDBRANCH   1   3
BRANCH   1  13
ATOM     13  O   UNL     1       2.083  -0.016   1.231  0.00  0.00    -0.491 OA
BRANCH  13  14
ATOM     14  C   UNL     1       2.881  -0.377   2.271  0.00  0.00    +0.148 A 
ATOM     15  C   UNL     1       2.931   0.409   3.414  0.00  0.00    +0.063 A 
ATOM     16  C   UNL     1       3.744   0.040   4.470  0.00  0.00    +0.051 A 
ATOM     17  C   UNL     1       4.507  -1.110   4.387  0.00  0.00    +0.129 A 
ATOM     18  C   UNL     1       4.459  -1.894   3.250  0.00  0.00    +0.051 A 
ATOM     19  C   UNL     1       3.644  -1.533   2.193  0.00  0.00    +0.063 A 
ATOM     20 BR   UNL     1       3.573  -2.611   0.641  0.00  0.00    -0.046 Br
ATOM     21 BR   UNL     1       1.889   1.983   3.527  0.00  0.00    -0.046 Br
BRANCH  17  22
ATOM     22  N   UNL     1       5.377  -1.502   5.519  0.00  0.00    +0.056 N 
ATOM     23  O   UNL     1       5.419  -0.817   6.514  0.00  0.00    -0.126 OA
ATOM     24  O   UNL     1       6.044  -2.507   5.448  0.00  0.00    -0.126 OA
ENDBRANCH  17  22
ENDBRANCH  13  14
ENDBRANCH   1  13
TORSDOF 6
