REMARK  Name = ZINC21605033
REMARK  10 active torsions:
REMARK  status: ('A' for Active; 'I' for Inactive)
REMARK    1  A    between atoms: C_1  and  C_2
REMARK    2  A    between atoms: C_2  and  C_3
REMARK    3  A    between atoms: C_4  and  C_33
REMARK    4  A    between atoms: N_10  and  C_25
REMARK    5  A    between atoms: C_11  and  S_13
REMARK    6  A    between atoms: S_13  and  C_14
REMARK    7  A    between atoms: C_14  and  C_16
REMARK    8  A    between atoms: C_14  and  C_17
REMARK    9  A    between atoms: C_28  and  C_32
REMARK   10  A    between atoms: C_29  and  C_31
REMARK                            x       y       z     vdW  Elec       q    Type
REMARK                         _______ _______ _______ _____ _____    ______ ____
ROOT
ATOM      1  C   UNL     1       1.844   0.751  -1.329  0.00  0.00    -0.023 A 
ATOM      2  C   UNL     1       1.361   1.994  -1.181  0.00  0.00    -0.007 A 
ATOM      3  S   UNL     1      -0.070   1.760  -0.143  0.00  0.00    -0.073 S 
ATOM      4  C   UNL     1       0.022   0.000   0.061  0.00  0.00    +0.117 A 
ATOM      5  C   UNL     1       1.162  -0.357  -0.683  0.00  0.00    +0.076 A 
ATOM      6  C   UNL     1       1.486  -1.750  -0.696  0.00  0.00    +0.268 A 
ATOM      7  O   UNL     1       2.457  -2.153  -1.314  0.00  0.00    -0.267 OA
ATOM      8  N   UNL     1       0.705  -2.611  -0.018  0.00  0.00    -0.255 N 
ATOM      9  C   UNL     1      -0.388  -2.178   0.680  0.00  0.00    +0.178 A 
ATOM     10  N   UNL     1      -0.708  -0.900   0.709  0.00  0.00    -0.215 NA
ATOM     11  C   UNL     1       1.899   3.279  -1.754  0.00  0.00    +0.052 C 
ENDROOT
BRANCH   8  12
ATOM     12  C   UNL     1       1.018  -3.977  -0.028  0.00  0.00    +0.052 A 
ATOM     13  C   UNL     1       1.859  -4.505   0.943  0.00  0.00    +0.026 A 
ATOM     14  C   UNL     1       2.160  -5.853   0.935  0.00  0.00    +0.005 A 
ATOM     15  C   UNL     1       1.635  -6.674  -0.046  0.00  0.00    -0.047 A 
ATOM     16  C   UNL     1       0.802  -6.150  -1.017  0.00  0.00    -0.046 A 
ATOM     17  C   UNL     1       0.492  -4.804  -1.011  0.00  0.00    +0.030 A 
ATOM     18  C   UNL     1       0.232  -7.049  -2.084  0.00  0.00    +0.044 C 
ATOM     19  C   UNL     1       1.971  -8.143  -0.056  0.00  0.00    +0.044 C 
ENDBRANCH   8  12
BRANCH   1  21
ATOM     20  C   UNL     1       2.677   0.246  -3.609  0.00  0.00    +0.009 C 
ATOM     21  C   UNL     1       3.080   0.508  -2.157  0.00  0.00    +0.033 C 
ENDBRANCH   1  21
BRANCH   9  22
ATOM     22  S   UNL     1      -1.380  -3.343   1.552  0.00  0.00    -0.075 S 
BRANCH  22  23
ATOM     23  C   UNL     1      -2.625  -2.233   2.254  0.00  0.00    +0.137 C 
ATOM     24  C   UNL     1      -3.445  -1.606   1.124  0.00  0.00    +0.029 C 
BRANCH  23  25
ATOM     25  C   UNL     1      -3.538  -3.013   3.164  0.00  0.00    +0.236 C 
ATOM     26  O   UNL     1      -3.615  -4.218   3.058  0.00  0.00    -0.274 OA
ATOM     27  N   UNL     1      -4.270  -2.370   4.097  0.00  0.00    -0.224 N 
ATOM     28  C   UNL     1      -5.195  -3.010   5.043  0.00  0.00    +0.136 C 
ATOM     29  C   UNL     1      -5.755  -1.833   5.866  0.00  0.00    +0.125 C 
ATOM     30  N   UNL     1      -5.085  -0.655   5.295  0.00  0.00    -0.297 N 
ATOM     31  C   UNL     1      -4.265  -1.048   4.312  0.00  0.00    +0.309 C 
ATOM     32  O   UNL     1      -3.582  -0.275   3.670  0.00  0.00    -0.252 OA
ATOM     33  H   UNL     1      -5.301   0.347   5.694  0.00  0.00    +0.150 HD
ENDBRANCH  23  25
ENDBRANCH  22  23
ENDBRANCH   9  22
TORSDOF 5
