REMARK  Name = ZINC09318361
REMARK  4 active torsions:
REMARK  status: ('A' for Active; 'I' for Inactive)
REMARK    1  A    between atoms: C_7  and  O_8
REMARK    2  A    between atoms: C_9  and  C_24
REMARK    3  A    between atoms: C_13  and  C_15
REMARK    4  A    between atoms: C_18  and  N_21
REMARK                            x       y       z     vdW  Elec       q    Type
REMARK                         _______ _______ _______ _____ _____    ______ ____
ROOT
ATOM      1  C   UNL     1      -7.519   6.252   0.071  0.00  0.00    +0.001 A 
ATOM      2  C   UNL     1      -7.810   4.895   0.065  0.00  0.00    +0.001 A 
ATOM      3  C   UNL     1      -6.784   3.968   0.056  0.00  0.00    +0.016 A 
ATOM      4  C   UNL     1      -5.480   4.414   0.052  0.00  0.00    +0.025 A 
ATOM      5  C   UNL     1      -5.166   5.789   0.058  0.00  0.00    +0.031 A 
ATOM      6  C   UNL     1      -6.231   6.702   0.068  0.00  0.00    +0.012 A 
ATOM      7  C   UNL     1      -3.786   6.258   0.054  0.00  0.00    +0.135 A 
ATOM      8  C   UNL     1      -2.601   5.534   0.050  0.00  0.00    +0.052 A 
ATOM      9  C   UNL     1      -2.520   4.140   0.036  0.00  0.00    +0.084 A 
ATOM     10  S   UNL     1      -4.097   3.303   0.039  0.00  0.00    -0.073 S 
ATOM     11  N   UNL     1      -1.319   3.464   0.027  0.00  0.00    -0.275 N 
ATOM     12  C   UNL     1      -1.305   2.117   0.020  0.00  0.00    +0.249 C 
ATOM     13  O   UNL     1      -2.350   1.497   0.021  0.00  0.00    -0.270 OA
ATOM     14  H   UNL     1      -0.373   4.025   0.026  0.00  0.00    +0.156 HD
ENDROOT
BRANCH   8  15
ATOM     15  C   UNL     1      -1.330   6.296   0.055  0.00  0.00    -0.012 A 
ATOM     16  C   UNL     1      -0.468   6.213   1.148  0.00  0.00    +0.011 A 
ATOM     17  C   UNL     1       0.716   6.921   1.146  0.00  0.00    +0.039 A 
ATOM     18  C   UNL     1       1.044   7.722   0.064  0.00  0.00    +0.123 A 
ATOM     19  C   UNL     1       0.189   7.812  -1.022  0.00  0.00    +0.039 A 
ATOM     20  C   UNL     1      -0.995   7.104  -1.031  0.00  0.00    +0.011 A 
ATOM     21  F   UNL     1       2.203   8.418   0.069  0.00  0.00    -0.205 F 
ENDBRANCH   8  15
BRANCH  12  22
ATOM     22  C   UNL     1      -0.017   1.392   0.010  0.00  0.00    +0.037 A 
ATOM     23  C   UNL     1       1.186   2.100   0.002  0.00  0.00    +0.015 A 
ATOM     24  C   UNL     1       2.385   1.417  -0.013  0.00  0.00    +0.033 A 
ATOM     25  C   UNL     1       2.396   0.034  -0.021  0.00  0.00    +0.126 A 
ATOM     26  C   UNL     1       1.208  -0.674  -0.013  0.00  0.00    +0.033 A 
ATOM     27  C   UNL     1       0.002  -0.004   0.002  0.00  0.00    +0.015 A 
BRANCH  25  28
ATOM     28  N   UNL     1       3.686  -0.692  -0.036  0.00  0.00    +0.056 N 
ATOM     29  O   UNL     1       3.700  -1.910  -0.043  0.00  0.00    -0.126 OA
ATOM     30  O   UNL     1       4.734  -0.071  -0.043  0.00  0.00    -0.126 OA
ENDBRANCH  25  28
ENDBRANCH  12  22
BRANCH   7  31
ATOM     31  O   UNL     1      -3.652   7.471   0.061  0.00  0.00    -0.505 OA
ATOM     32  H   UNL     1      -2.644   7.913   0.059  0.00  0.00    +0.292 HD
ENDBRANCH   7  31
TORSDOF 4
