REMARK  Name = ZINC44714118
REMARK  7 active torsions:
REMARK  status: ('A' for Active; 'I' for Inactive)
REMARK    1  A    between atoms: C_1  and  C_2
REMARK    2  A    between atoms: C_3  and  C_9
REMARK    3  A    between atoms: C_4  and  C_8
REMARK    4  A    between atoms: C_9  and  C_11
REMARK    5  A    between atoms: C_9  and  N_12
REMARK    6  A    between atoms: C_13  and  C_15
REMARK    7  A    between atoms: C_26  and  C_28
REMARK                            x       y       z     vdW  Elec       q    Type
REMARK                         _______ _______ _______ _____ _____    ______ ____
ROOT
ATOM      1  C   UNL     1      -2.477  -1.284  -5.531  0.00  0.00    +0.100 C 
ATOM      2  C   UNL     1      -3.761  -1.655  -4.755  0.00  0.00    +0.121 C 
ATOM      3  N   UNL     1      -4.717  -0.568  -5.071  0.00  0.00    -0.297 N 
ATOM      4  C   UNL     1      -4.486  -0.279  -6.507  0.00  0.00    +0.115 C 
ATOM      5  C   UNL     1      -2.958  -0.384  -6.682  0.00  0.00    -0.004 C 
ATOM      6  C   UNL     1      -2.319   0.997  -6.574  0.00  0.00    -0.010 C 
ATOM      7  C   UNL     1      -2.768   1.856  -7.760  0.00  0.00    -0.082 C 
ATOM      8  N   UNL     1      -2.368   1.206  -9.014  0.00  0.00    +0.379 N 
ATOM      9  C   UNL     1      -3.058  -0.081  -9.154  0.00  0.00    -0.082 C 
ATOM     10  C   UNL     1      -2.623  -1.021  -8.027  0.00  0.00    -0.010 C 
ATOM     11  C   UNL     1      -5.597   0.025  -4.241  0.00  0.00    +0.260 C 
ATOM     12  O   UNL     1      -6.319   0.909  -4.653  0.00  0.00    -0.271 OA
ATOM     13  H   UNL     1      -2.610   1.802  -9.792  0.00  0.00    -0.086 HD
ATOM     14  H   UNL     1      -1.371   1.053  -9.009  0.00  0.00    -0.086 HD
ENDROOT
BRANCH  11  15
ATOM     15  C   UNL     1      -5.685  -0.409  -2.800  0.00  0.00    +0.296 C 
ATOM     16  C   UNL     1      -6.194  -1.855  -2.726  0.00  0.00    +0.283 C 
ATOM     17  O   UNL     1      -6.279  -2.231  -1.347  0.00  0.00    -0.484 OA
ATOM     18  C   UNL     1      -6.866  -1.337  -0.505  0.00  0.00    +0.162 A 
ATOM     19  C   UNL     1      -7.307  -1.762   0.739  0.00  0.00    +0.049 A 
ATOM     20  C   UNL     1      -7.902  -0.866   1.606  0.00  0.00    +0.004 A 
ATOM     21  C   UNL     1      -8.060   0.457   1.236  0.00  0.00    +0.004 A 
ATOM     22  C   UNL     1      -7.625   0.887  -0.003  0.00  0.00    +0.049 A 
ATOM     23  C   UNL     1      -7.027  -0.008  -0.879  0.00  0.00    +0.163 A 
ATOM     24  O   UNL     1      -6.610   0.429  -2.099  0.00  0.00    -0.473 OA
ENDBRANCH  11  15
BRANCH   1  26
ATOM     25  N   UNL     1      -0.197  -0.596  -4.865  0.00  0.00    -0.308 N 
ATOM     26  C   UNL     1      -1.524  -0.531  -4.639  0.00  0.00    +0.219 C 
ATOM     27  O   UNL     1      -1.951   0.132  -3.718  0.00  0.00    -0.275 OA
ATOM     28  H   UNL     1       0.145  -1.127  -5.601  0.00  0.00    +0.149 HD
BRANCH  25  29
ATOM     29  C   UNL     1       0.730   0.136  -3.998  0.00  0.00    +0.104 C 
ATOM     30  C   UNL     1       0.847   1.582  -4.482  0.00  0.00    +0.033 C 
BRANCH  29  33
ATOM     31  C   UNL     1       2.237  -0.798  -6.575  0.00  0.00    +0.065 C 
ATOM     32  C   UNL     1       2.737  -0.924  -5.159  0.00  0.00    +0.038 A 
ATOM     33  C   UNL     1       2.086  -0.521  -4.044  0.00  0.00    +0.015 A 
ATOM     34  C   UNL     1       2.893  -0.821  -2.942  0.00  0.00    +0.065 A 
ATOM     35  N   UNL     1       3.990  -1.384  -3.380  0.00  0.00    -0.179 NA
ATOM     36  N   UNL     1       3.913  -1.465  -4.776  0.00  0.00    -0.281 N 
ATOM     37  H   UNL     1       4.587  -1.841  -5.364  0.00  0.00    +0.189 HD
ATOM     38  C   UNL     1       2.558  -0.543  -1.499  0.00  0.00    +0.068 C 
ENDBRANCH  29  33
ENDBRANCH  25  29
ENDBRANCH   1  26
TORSDOF 4
