REMARK  Name = ZINC36504786
REMARK  11 active torsions:
REMARK  status: ('A' for Active; 'I' for Inactive)
REMARK    1  A    between atoms: C_3  and  C_10
REMARK    2  A    between atoms: C_5  and  N_7
REMARK    3  A    between atoms: N_12  and  C_13
REMARK    4  A    between atoms: N_12  and  C_19
REMARK    5  A    between atoms: C_13  and  C_14
REMARK    6  A    between atoms: C_19  and  C_21
REMARK    7  A    between atoms: C_19  and  C_30
REMARK    8  A    between atoms: C_22  and  O_29
REMARK    9  A    between atoms: C_24  and  O_28
REMARK   10  A    between atoms: C_26  and  O_27
REMARK   11  A    between atoms: N_32  and  C_33
REMARK                            x       y       z     vdW  Elec       q    Type
REMARK                         _______ _______ _______ _____ _____    ______ ____
ROOT
ATOM      1  C   UNL     1       4.804   4.561   0.582  0.00  0.00    +0.200 C 
ENDROOT
BRANCH   1   2
ATOM      2  C   UNL     1       4.115   4.999   1.849  0.00  0.00    +0.065 A 
ATOM      3  C   UNL     1       2.758   5.284   1.837  0.00  0.00    +0.129 A 
ATOM      4  C   UNL     1       2.124   5.686   3.003  0.00  0.00    +0.091 A 
ATOM      5  C   UNL     1       2.848   5.803   4.181  0.00  0.00    +0.124 A 
ATOM      6  C   UNL     1       4.205   5.517   4.192  0.00  0.00    +0.091 A 
ATOM      7  C   UNL     1       4.837   5.110   3.027  0.00  0.00    +0.129 A 
BRANCH   7   8
ATOM      8  O   UNL     1       6.166   4.826   3.039  0.00  0.00    -0.506 OA
ATOM      9  H   UNL     1       6.733   5.586   2.851  0.00  0.00    +0.292 HD
ENDBRANCH   7   8
BRANCH   5  10
ATOM     10  O   UNL     1       2.227   6.198   5.323  0.00  0.00    -0.507 OA
ATOM     11  H   UNL     1       1.868   5.470   5.848  0.00  0.00    +0.292 HD
ENDBRANCH   5  10
BRANCH   3  12
ATOM     12  O   UNL     1       2.049   5.169   0.684  0.00  0.00    -0.506 OA
ATOM     13  H   UNL     1       1.591   4.323   0.586  0.00  0.00    +0.292 HD
ENDBRANCH   3  12
ENDBRANCH   1   2
BRANCH   1  14
ATOM     14  C   UNL     1       5.517   5.737  -0.034  0.00  0.00    +0.239 C 
ATOM     15  O   UNL     1       5.108   6.221  -1.069  0.00  0.00    -0.273 OA
ATOM     16  N   UNL     1       6.609   6.252   0.565  0.00  0.00    -0.311 N 
ATOM     17  H   UNL     1       6.936   5.865   1.392  0.00  0.00    +0.149 HD
BRANCH  16  18
ATOM     18  C   UNL     1       7.303   7.395  -0.034  0.00  0.00    +0.073 C 
ATOM     19  C   UNL     1       8.295   6.896  -1.086  0.00  0.00    +0.022 C 
ATOM     20  C   UNL     1       9.019   8.090  -1.711  0.00  0.00    +0.002 C 
ATOM     21  C   UNL     1       9.773   8.857  -0.622  0.00  0.00    +0.000 C 
ATOM     22  C   UNL     1       8.780   9.356   0.430  0.00  0.00    +0.002 C 
ATOM     23  C   UNL     1       8.056   8.162   1.055  0.00  0.00    +0.022 C 
ENDBRANCH  16  18
ENDBRANCH   1  14
BRANCH   1  26
ATOM     24  C   UNL     1       3.644   2.716  -0.508  0.00  0.00    +0.248 C 
ATOM     25  O   UNL     1       2.945   2.284  -1.403  0.00  0.00    -0.270 OA
ATOM     26  N   UNL     1       3.809   4.045  -0.362  0.00  0.00    -0.274 N 
BRANCH  24  29
ATOM     27  C   UNL     1       5.413   1.361   2.516  0.00  0.00    +0.003 A 
ATOM     28  C   UNL     1       4.789   2.238   1.653  0.00  0.00    +0.013 A 
ATOM     29  C   UNL     1       4.314   1.782   0.422  0.00  0.00    +0.039 A 
ATOM     30  C   UNL     1       4.475   0.440   0.073  0.00  0.00    +0.045 A 
ATOM     31  C   UNL     1       5.101  -0.427   0.945  0.00  0.00    +0.127 A 
ATOM     32  C   UNL     1       5.569   0.032   2.164  0.00  0.00    +0.033 A 
BRANCH  31  33
ATOM     33  N   UNL     1       5.271  -1.850   0.577  0.00  0.00    +0.056 N 
ATOM     34  O   UNL     1       4.863  -2.252  -0.487  0.00  0.00    -0.126 OA
ATOM     35  O   UNL     1       5.820  -2.611   1.340  0.00  0.00    -0.126 OA
ENDBRANCH  31  33
ENDBRANCH  24  29
BRANCH  26  36
ATOM     36  C   UNL     1       2.992   4.975  -1.147  0.00  0.00    +0.183 C 
BRANCH  36  37
ATOM     37  C   UNL     1       3.289   4.790  -2.612  0.00  0.00    +0.122 A 
ATOM     38  C   UNL     1       2.600   4.007  -3.462  0.00  0.00    +0.046 A 
ATOM     39  C   UNL     1       3.219   4.131  -4.727  0.00  0.00    +0.041 A 
ATOM     40  C   UNL     1       4.249   4.983  -4.575  0.00  0.00    +0.195 A 
ATOM     41  O   UNL     1       4.283   5.383  -3.293  0.00  0.00    -0.466 OA
ENDBRANCH  36  37
ENDBRANCH  26  36
ENDBRANCH   1  26
TORSDOF 11
