REMARK  Name = ZINC39355570
REMARK  9 active torsions:
REMARK  status: ('A' for Active; 'I' for Inactive)
REMARK    1  A    between atoms: C_1  and  C_2
REMARK    2  A    between atoms: C_3  and  C_4
REMARK    3  A    between atoms: C_4  and  N_5
REMARK    4  A    between atoms: C_8  and  C_12
REMARK    5  A    between atoms: C_8  and  C_20
REMARK    6  A    between atoms: C_12  and  C_13
REMARK    7  A    between atoms: C_13  and  C_14
REMARK    8  A    between atoms: N_23  and  C_26
REMARK    9  A    between atoms: C_26  and  C_27
REMARK                            x       y       z     vdW  Elec       q    Type
REMARK                         _______ _______ _______ _____ _____    ______ ____
ROOT
ATOM      1  N   UNL     1      -1.517  -3.437  -0.311  0.00  0.00    -0.212 N 
ATOM      2  C   UNL     1      -2.229  -3.759   0.787  0.00  0.00    +0.248 C 
ATOM      3  O   UNL     1      -1.845  -3.751   1.937  0.00  0.00    -0.273 OA
ATOM      4  C   UNL     1      -3.610  -4.132   0.285  0.00  0.00    +0.115 C 
ATOM      5  N   UNL     1      -3.506  -3.961  -1.174  0.00  0.00    -0.285 N 
ATOM      6  C   UNL     1      -2.250  -3.549  -1.424  0.00  0.00    +0.310 C 
ATOM      7  O   UNL     1      -1.827  -3.308  -2.538  0.00  0.00    -0.252 OA
ATOM      8  H   UNL     1      -4.207  -4.113  -1.827  0.00  0.00    +0.151 HD
ENDROOT
BRANCH   4   9
ATOM      9  C   UNL     1      -4.666  -3.188   0.864  0.00  0.00    +0.018 C 
ATOM     10  C   UNL     1      -6.046  -3.570   0.321  0.00  0.00    -0.013 C 
ATOM     11  C   UNL     1      -7.086  -2.574   0.840  0.00  0.00    -0.078 C 
ATOM     12  N   UNL     1      -6.739  -1.220   0.392  0.00  0.00    +0.380 N 
ATOM     13  C   UNL     1      -5.449  -0.820   0.967  0.00  0.00    -0.078 C 
ATOM     14  C   UNL     1      -4.347  -1.748   0.453  0.00  0.00    -0.013 C 
ATOM     15  H   UNL     1      -6.675  -1.206  -0.615  0.00  0.00    -0.082 HD
BRANCH  12  16
ATOM     16  C   UNL     1      -7.780  -0.280   0.826  0.00  0.00    -0.062 C 
BRANCH  16  17
ATOM     17  C   UNL     1      -7.498   1.103   0.236  0.00  0.00    +0.082 C 
ATOM     18  C   UNL     1      -7.451   0.963  -1.273  0.00  0.00    -0.007 C 
ATOM     19  C   UNL     1      -8.323   1.720  -1.998  0.00  0.00    -0.007 A 
ATOM     20  C   UNL     1      -8.344   1.647  -3.460  0.00  0.00    +0.009 A 
ATOM     21  C   UNL     1      -9.230   2.420  -4.141  0.00  0.00    +0.001 A 
ATOM     22  C   UNL     1     -10.110   3.274  -3.476  0.00  0.00    +0.002 A 
ATOM     23  C   UNL     1     -10.140   3.387  -2.123  0.00  0.00    +0.024 A 
ATOM     24  C   UNL     1      -9.264   2.630  -1.323  0.00  0.00    +0.040 A 
ATOM     25  N   UNL     1      -9.303   2.749   0.004  0.00  0.00    -0.285 N 
ATOM     26  C   UNL     1      -8.508   2.069   0.812  0.00  0.00    +0.222 C 
ATOM     27  O   UNL     1      -8.589   2.220   2.017  0.00  0.00    -0.275 OA
ATOM     28  H   UNL     1      -9.943   3.363   0.395  0.00  0.00    +0.155 HD
ENDBRANCH  16  17
ENDBRANCH  12  16
ENDBRANCH   4   9
BRANCH   1  29
ATOM     29  C   UNL     1      -0.116  -3.011  -0.287  0.00  0.00    +0.206 C 
BRANCH  29  32
ATOM     30  C   UNL     1       0.068   1.084   0.105  0.00  0.00    +0.106 C 
ATOM     31  C   UNL     1       0.002  -0.379  -0.035  0.00  0.00    -0.104 C 
ATOM     32  C   UNL     1      -0.050  -1.547  -0.147  0.00  0.00    -0.083 C 
ENDBRANCH  29  32
ENDBRANCH   1  29
BRANCH   4  33
ATOM     33  C   UNL     1      -3.935  -5.585   0.635  0.00  0.00    +0.040 C 
BRANCH  33  34
ATOM     34  C   UNL     1      -2.894  -6.508  -0.002  0.00  0.00    +0.038 C 
BRANCH  34  35
ATOM     35  C   UNL     1      -3.215  -7.940   0.343  0.00  0.00    -0.047 A 
ATOM     36  C   UNL     1      -2.689  -8.510   1.487  0.00  0.00    +0.003 A 
ATOM     37  C   UNL     1      -2.982  -9.823   1.803  0.00  0.00    +0.000 A 
ATOM     38  C   UNL     1      -3.803 -10.567   0.975  0.00  0.00    +0.000 A 
ATOM     39  C   UNL     1      -4.329  -9.996  -0.169  0.00  0.00    +0.000 A 
ATOM     40  C   UNL     1      -4.039  -8.682  -0.483  0.00  0.00    +0.003 A 
ENDBRANCH  34  35
ENDBRANCH  33  34
ENDBRANCH   4  33
TORSDOF 8
