REMARK  Name = ZINC25128211
REMARK  10 active torsions:
REMARK  status: ('A' for Active; 'I' for Inactive)
REMARK    1  A    between atoms: C_1  and  C_2
REMARK    2  A    between atoms: C_4  and  C_33
REMARK    3  A    between atoms: C_6  and  N_8
REMARK    4  A    between atoms: C_9  and  C_11
REMARK    5  A    between atoms: C_11  and  C_13
REMARK    6  A    between atoms: C_11  and  O_19
REMARK    7  A    between atoms: O_19  and  C_20
REMARK    8  A    between atoms: C_20  and  C_22
REMARK    9  A    between atoms: C_24  and  S_29
REMARK   10  A    between atoms: S_29  and  N_32
REMARK                            x       y       z     vdW  Elec       q    Type
REMARK                         _______ _______ _______ _____ _____    ______ ____
ROOT
ATOM      1  C   UNL     1       0.067  -0.151  -0.028  0.00  0.00    +0.292 C 
ENDROOT
BRANCH   1   2
ATOM      2  C   UNL     1      -0.163   1.338  -0.059  0.00  0.00    +0.002 A 
ATOM      3  C   UNL     1      -1.451   1.837  -0.112  0.00  0.00    +0.008 A 
ATOM      4  C   UNL     1      -1.662   3.203  -0.137  0.00  0.00    +0.000 A 
ATOM      5  C   UNL     1      -0.585   4.069  -0.118  0.00  0.00    +0.000 A 
ATOM      6  C   UNL     1       0.703   3.570  -0.071  0.00  0.00    +0.000 A 
ATOM      7  C   UNL     1       0.914   2.204  -0.042  0.00  0.00    +0.008 A 
ENDBRANCH   1   2
BRANCH   1   9
ATOM      8  N   UNL     1       0.684  -0.270   2.365  0.00  0.00    -0.282 N 
ATOM      9  C   UNL     1      -0.142  -0.662   1.375  0.00  0.00    +0.263 C 
ATOM     10  O   UNL     1      -1.053  -1.426   1.613  0.00  0.00    -0.271 OA
ATOM     11  H   UNL     1       1.562   0.353   2.135  0.00  0.00    +0.155 HD
BRANCH   8  17
ATOM     12  C   UNL     1       2.362  -1.528   6.811  0.00  0.00    +0.044 C 
ATOM     13  C   UNL     1       1.221  -1.271   5.862  0.00  0.00    -0.048 A 
ATOM     14  C   UNL     1      -0.085  -1.415   6.296  0.00  0.00    +0.006 A 
ATOM     15  C   UNL     1      -1.135  -1.179   5.428  0.00  0.00    -0.048 A 
ATOM     16  C   UNL     1      -0.883  -0.799   4.124  0.00  0.00    +0.026 A 
ATOM     17  C   UNL     1       0.426  -0.654   3.685  0.00  0.00    +0.034 A 
ATOM     18  C   UNL     1       1.479  -0.898   4.557  0.00  0.00    +0.026 A 
ATOM     19  C   UNL     1      -2.556  -1.336   5.906  0.00  0.00    +0.044 C 
ENDBRANCH   8  17
ENDBRANCH   1   9
BRANCH   1  20
ATOM     20  O   UNL     1      -0.869  -0.805  -0.925  0.00  0.00    -0.443 OA
BRANCH  20  21
ATOM     21  C   UNL     1      -0.473  -0.977  -2.201  0.00  0.00    +0.343 C 
ATOM     22  O   UNL     1       0.624  -0.592  -2.555  0.00  0.00    -0.245 OA
BRANCH  21  23
ATOM     23  C   UNL     1      -1.372  -1.634  -3.170  0.00  0.00    +0.096 A 
ATOM     24  C   UNL     1      -2.634  -2.078  -2.768  0.00  0.00    +0.046 A 
ATOM     25  C   UNL     1      -3.469  -2.691  -3.677  0.00  0.00    +0.106 A 
ATOM     26  C   UNL     1      -3.061  -2.867  -4.989  0.00  0.00    +0.031 A 
ATOM     27  C   UNL     1      -1.814  -2.432  -5.397  0.00  0.00    +0.041 A 
ATOM     28  C   UNL     1      -0.967  -1.810  -4.497  0.00  0.00    +0.137 A 
ATOM     29  F   UNL     1       0.249  -1.379  -4.898  0.00  0.00    -0.205 F 
BRANCH  25  30
ATOM     30  S   UNL     1      -5.060  -3.252  -3.170  0.00  0.00    +0.056 S 
ATOM     31  O   UNL     1      -5.436  -4.281  -4.075  0.00  0.00    -0.153 OA
ATOM     32  O   UNL     1      -4.989  -3.459  -1.766  0.00  0.00    -0.153 OA
BRANCH  30  33
ATOM     33  N   UNL     1      -6.119  -2.001  -3.410  0.00  0.00    -0.204 NA
ATOM     34  H   UNL     1      -7.129  -2.312  -3.105  0.00  0.00    +0.144 HD
ATOM     35  H   UNL     1      -6.127  -1.727  -4.476  0.00  0.00    +0.144 HD
ENDBRANCH  30  33
ENDBRANCH  25  30
ENDBRANCH  21  23
ENDBRANCH  20  21
ENDBRANCH   1  20
TORSDOF 8
