REMARK  Name = ZINC09685834
REMARK  10 active torsions:
REMARK  status: ('A' for Active; 'I' for Inactive)
REMARK    1  A    between atoms: C_1  and  C_2
REMARK    2  A    between atoms: C_2  and  C_3
REMARK    3  A    between atoms: C_8  and  S_9
REMARK    4  A    between atoms: S_9  and  N_12
REMARK    5  A    between atoms: N_12  and  C_13
REMARK    6  A    between atoms: C_16  and  C_19
REMARK    7  A    between atoms: C_19  and  O_21
REMARK    8  A    between atoms: O_21  and  C_22
REMARK    9  A    between atoms: C_30  and  C_32
REMARK   10  A    between atoms: C_30  and  C_33
REMARK                            x       y       z     vdW  Elec       q    Type
REMARK                         _______ _______ _______ _____ _____    ______ ____
ROOT
ATOM      1  C   UNL     1       2.993   3.349  -0.069  0.00  0.00    -0.020 A 
ATOM      2  C   UNL     1       1.635   3.357  -0.301  0.00  0.00    +0.016 A 
ATOM      3  C   UNL     1       0.905   2.177  -0.182  0.00  0.00    +0.011 A 
ATOM      4  C   UNL     1       1.557   0.982   0.173  0.00  0.00    +0.049 A 
ATOM      5  C   UNL     1       2.928   0.996   0.403  0.00  0.00    +0.055 A 
ATOM      6  C   UNL     1       3.636   2.172   0.282  0.00  0.00    +0.114 A 
ATOM      7  N   UNL     1       0.606  -0.022   0.218  0.00  0.00    -0.357 N 
ATOM      8  H   UNL     1       0.792  -0.948   0.437  0.00  0.00    +0.166 HD
ATOM      9  C   UNL     1      -0.606   0.460  -0.087  0.00  0.00    +0.028 A 
ATOM     10  C   UNL     1      -0.505   1.819  -0.348  0.00  0.00    +0.046 A 
ATOM     11  C   UNL     1      -1.622   2.613  -0.705  0.00  0.00    +0.166 C 
ATOM     12  O   UNL     1      -1.509   3.807  -0.896  0.00  0.00    -0.292 OA
ATOM     13  C   UNL     1      -2.961   1.921  -0.837  0.00  0.00    +0.086 C 
ATOM     14  C   UNL     1      -3.043   0.749   0.141  0.00  0.00    -0.023 C 
ATOM     15  C   UNL     1      -1.929  -0.267  -0.141  0.00  0.00    +0.060 C 
ATOM     16  C   UNL     1      -2.897   1.274   1.571  0.00  0.00    +0.011 C 
ATOM     17  C   UNL     1      -4.402   0.061  -0.008  0.00  0.00    +0.011 C 
ENDROOT
BRANCH   6  18
ATOM     18  S   UNL     1       5.373   2.179   0.574  0.00  0.00    +0.073 S 
ATOM     19  O   UNL     1       5.726   0.858   0.959  0.00  0.00    -0.150 OA
ATOM     20  O   UNL     1       5.970   2.834  -0.537  0.00  0.00    -0.150 OA
BRANCH  18  21
ATOM     21  N   UNL     1       5.644   3.145   1.893  0.00  0.00    -0.216 N 
ATOM     22  H   UNL     1       6.121   3.983   1.790  0.00  0.00    +0.174 HD
BRANCH  21  23
ATOM     23  C   UNL     1       5.186   2.754   3.146  0.00  0.00    +0.048 A 
ATOM     24  C   UNL     1       3.886   2.279   3.293  0.00  0.00    +0.025 A 
ATOM     25  C   UNL     1       3.433   1.888   4.527  0.00  0.00    +0.017 A 
ATOM     26  C   UNL     1       4.276   1.977   5.640  0.00  0.00    +0.059 A 
ATOM     27  C   UNL     1       5.580   2.459   5.489  0.00  0.00    +0.017 A 
ATOM     28  C   UNL     1       6.028   2.843   4.251  0.00  0.00    +0.025 A 
BRANCH  26  29
ATOM     29  C   UNL     1       3.791   1.562   6.968  0.00  0.00    +0.339 C 
ATOM     30  O   UNL     1       4.525   1.639   7.934  0.00  0.00    -0.245 OA
BRANCH  29  31
ATOM     31  O   UNL     1       2.534   1.098   7.112  0.00  0.00    -0.464 OA
ATOM     32  C   UNL     1       2.124   0.708   8.450  0.00  0.00    +0.280 C 
ENDBRANCH  29  31
ENDBRANCH  26  29
ENDBRANCH  21  23
ENDBRANCH  18  21
ENDBRANCH   6  18
BRANCH   1  34
ATOM     33  C   UNL     1       4.255   4.792  -1.642  0.00  0.00    +0.009 C 
ATOM     34  C   UNL     1       3.783   4.627  -0.196  0.00  0.00    +0.034 C 
ENDBRANCH   1  34
TORSDOF 6
