REMARK  Name = ZINC39685888
REMARK  16 active torsions:
REMARK  status: ('A' for Active; 'I' for Inactive)
REMARK    1  A    between atoms: C_1  and  C_2
REMARK    2  A    between atoms: C_2  and  C_3
REMARK    3  A    between atoms: C_2  and  C_4
REMARK    4  A    between atoms: C_4  and  C_6
REMARK    5  A    between atoms: C_4  and  N_13
REMARK    6  A    between atoms: N_8  and  C_9
REMARK    7  A    between atoms: C_9  and  C_10
REMARK    8  A    between atoms: C_9  and  C_11
REMARK    9  A    between atoms: C_9  and  C_12
REMARK   10  A    between atoms: C_14  and  C_16
REMARK   11  A    between atoms: C_27  and  C_29
REMARK   12  A    between atoms: C_29  and  C_31
REMARK   13  A    between atoms: C_29  and  O_34
REMARK   14  A    between atoms: C_31  and  C_32
REMARK   15  A    between atoms: C_31  and  C_33
REMARK   16  A    between atoms: O_34  and  C_35
REMARK                            x       y       z     vdW  Elec       q    Type
REMARK                         _______ _______ _______ _____ _____    ______ ____
ROOT
ATOM      1  C   UNL     1      -1.600  -4.875   1.407  0.00  0.00    +0.100 C 
ATOM      2  C   UNL     1      -3.008  -5.457   1.152  0.00  0.00    +0.121 C 
ATOM      3  N   UNL     1      -3.235  -6.394   2.277  0.00  0.00    -0.297 N 
ATOM      4  C   UNL     1      -2.655  -5.705   3.454  0.00  0.00    +0.115 C 
ATOM      5  C   UNL     1      -1.372  -5.039   2.919  0.00  0.00    -0.004 C 
ATOM      6  C   UNL     1      -1.173  -3.676   3.574  0.00  0.00    -0.010 C 
ATOM      7  C   UNL     1      -0.890  -3.868   5.067  0.00  0.00    -0.082 C 
ATOM      8  N   UNL     1       0.311  -4.695   5.237  0.00  0.00    +0.379 N 
ATOM      9  C   UNL     1       0.077  -6.036   4.686  0.00  0.00    -0.082 C 
ATOM     10  C   UNL     1      -0.165  -5.935   3.177  0.00  0.00    -0.010 C 
ATOM     11  C   UNL     1      -3.833  -7.602   2.239  0.00  0.00    +0.257 C 
ATOM     12  O   UNL     1      -4.017  -8.220   3.265  0.00  0.00    -0.272 OA
ATOM     13  H   UNL     1       1.085  -4.265   4.754  0.00  0.00    -0.086 HD
ATOM     14  H   UNL     1       0.530  -4.770   6.219  0.00  0.00    -0.086 HD
ENDROOT
BRANCH   1  16
ATOM     15  N   UNL     1      -2.523  -2.581   1.451  0.00  0.00    -0.303 N 
ATOM     16  C   UNL     1      -1.556  -3.418   1.024  0.00  0.00    +0.219 C 
ATOM     17  O   UNL     1      -0.652  -2.999   0.333  0.00  0.00    -0.275 OA
ATOM     18  H   UNL     1      -3.208  -2.900   2.058  0.00  0.00    +0.149 HD
BRANCH  15  19
ATOM     19  C   UNL     1      -2.538  -1.188   0.997  0.00  0.00    +0.161 C 
BRANCH  19  20
ATOM     20  C   UNL     1      -3.259  -0.337   2.010  0.00  0.00    +0.234 C 
ATOM     21  O   UNL     1      -3.865  -0.861   2.921  0.00  0.00    -0.274 OA
ATOM     22  N   UNL     1      -3.231   1.006   1.904  0.00  0.00    -0.309 N 
ATOM     23  H   UNL     1      -2.688   1.427   1.220  0.00  0.00    +0.149 HD
BRANCH  22  24
ATOM     24  C   UNL     1      -4.020   1.830   2.823  0.00  0.00    +0.026 C 
ATOM     25  C   UNL     1      -3.571   1.563   4.261  0.00  0.00    +0.031 C 
ATOM     26  C   UNL     1      -3.811   3.309   2.490  0.00  0.00    +0.031 C 
ATOM     27  C   UNL     1      -5.502   1.479   2.678  0.00  0.00    +0.031 C 
ENDBRANCH  22  24
ENDBRANCH  19  20
BRANCH  19  29
ATOM     28  C   UNL     1      -2.441  -1.832  -1.415  0.00  0.00    +0.009 C 
ATOM     29  C   UNL     1      -3.258  -1.098  -0.350  0.00  0.00    +0.012 C 
ATOM     30  C   UNL     1      -4.641  -1.744  -0.233  0.00  0.00    +0.009 C 
ENDBRANCH  19  29
ENDBRANCH  15  19
ENDBRANCH   1  16
BRANCH  11  31
ATOM     31  C   UNL     1      -4.273  -8.183   0.920  0.00  0.00    +0.261 C 
BRANCH  31  32
ATOM     32  C   UNL     1      -5.691  -7.706   0.600  0.00  0.00    +0.033 C 
ATOM     33  C   UNL     1      -5.692  -6.185   0.434  0.00  0.00    +0.011 C 
ATOM     34  C   UNL     1      -6.169  -8.361  -0.698  0.00  0.00    +0.011 C 
ENDBRANCH  31  32
BRANCH  31  35
ATOM     35  O   UNL     1      -4.257  -9.610   0.999  0.00  0.00    -0.479 OA
BRANCH  35  36
ATOM     36  C   UNL     1      -3.771 -10.282  -0.078  0.00  0.00    +0.122 A 
ATOM     37  C   UNL     1      -3.425  -9.591  -1.230  0.00  0.00    +0.045 A 
ATOM     38  C   UNL     1      -2.930 -10.276  -2.323  0.00  0.00    +0.004 A 
ATOM     39  C   UNL     1      -2.781 -11.650  -2.269  0.00  0.00    +0.000 A 
ATOM     40  C   UNL     1      -3.126 -12.341  -1.122  0.00  0.00    +0.004 A 
ATOM     41  C   UNL     1      -3.615 -11.659  -0.025  0.00  0.00    +0.045 A 
ENDBRANCH  35  36
ENDBRANCH  31  35
ENDBRANCH  11  31
TORSDOF 9
