REMARK  Name = ZINC39666380
REMARK  7 active torsions:
REMARK  status: ('A' for Active; 'I' for Inactive)
REMARK    1  A    between atoms: C_1  and  C_2
REMARK    2  A    between atoms: C_2  and  C_4
REMARK    3  A    between atoms: C_2  and  O_29
REMARK    4  A    between atoms: C_4  and  N_5
REMARK    5  A    between atoms: C_6  and  C_8
REMARK    6  A    between atoms: C_19  and  C_21
REMARK    7  A    between atoms: O_29  and  C_30
REMARK                            x       y       z     vdW  Elec       q    Type
REMARK                         _______ _______ _______ _____ _____    ______ ____
ROOT
ATOM      1  C   UNL     1       1.470  -3.689   1.347  0.00  0.00    +0.100 C 
ATOM      2  C   UNL     1       2.301  -3.916   0.065  0.00  0.00    +0.121 C 
ATOM      3  N   UNL     1       3.674  -4.186   0.552  0.00  0.00    -0.296 N 
ATOM      4  C   UNL     1       3.479  -5.026   1.758  0.00  0.00    +0.115 C 
ATOM      5  C   UNL     1       2.244  -4.422   2.455  0.00  0.00    -0.004 C 
ATOM      6  C   UNL     1       1.384  -5.529   3.058  0.00  0.00    -0.010 C 
ATOM      7  C   UNL     1       2.154  -6.205   4.197  0.00  0.00    -0.082 C 
ATOM      8  N   UNL     1       2.492  -5.208   5.220  0.00  0.00    +0.379 N 
ATOM      9  C   UNL     1       3.396  -4.198   4.656  0.00  0.00    -0.082 C 
ATOM     10  C   UNL     1       2.679  -3.438   3.537  0.00  0.00    -0.010 C 
ATOM     11  C   UNL     1       4.838  -3.764   0.019  0.00  0.00    +0.252 C 
ATOM     12  O   UNL     1       5.893  -4.072   0.540  0.00  0.00    -0.270 OA
ATOM     13  H   UNL     1       1.648  -4.760   5.543  0.00  0.00    -0.086 HD
ATOM     14  H   UNL     1       2.945  -5.666   5.997  0.00  0.00    -0.086 HD
ENDROOT
BRANCH  11  15
ATOM     15  C   UNL     1       4.832  -2.927  -1.196  0.00  0.00    +0.107 A 
ATOM     16  C   UNL     1       4.787  -1.532  -1.090  0.00  0.00    +0.138 A 
ATOM     17  C   UNL     1       4.783  -0.756  -2.233  0.00  0.00    +0.039 A 
ATOM     18  C   UNL     1       4.821  -1.354  -3.480  0.00  0.00    +0.006 A 
ATOM     19  C   UNL     1       4.864  -2.732  -3.594  0.00  0.00    +0.039 A 
ATOM     20  C   UNL     1       4.876  -3.523  -2.461  0.00  0.00    +0.138 A 
ATOM     21  F   UNL     1       4.924  -4.868  -2.574  0.00  0.00    -0.205 F 
ATOM     22  F   UNL     1       4.749  -0.947   0.127  0.00  0.00    -0.205 F 
ENDBRANCH  11  15
BRANCH   1  24
ATOM     23  N   UNL     1       0.308  -1.736   2.325  0.00  0.00    -0.312 N 
ATOM     24  C   UNL     1       1.376  -2.218   1.658  0.00  0.00    +0.218 C 
ATOM     25  O   UNL     1       2.261  -1.466   1.308  0.00  0.00    -0.275 OA
ATOM     26  H   UNL     1      -0.400  -2.337   2.605  0.00  0.00    +0.149 HD
BRANCH  23  27
ATOM     27  C   UNL     1       0.217  -0.306   2.627  0.00  0.00    +0.148 C 
BRANCH  27  29
ATOM     28  C   UNL     1      -1.178   1.468   3.700  0.00  0.00    +0.053 C 
ATOM     29  C   UNL     1      -1.083  -0.026   3.384  0.00  0.00    +0.187 C 
BRANCH  29  30
ATOM     30  O   UNL     1      -2.197  -0.415   2.578  0.00  0.00    -0.486 OA
BRANCH  30  31
ATOM     31  C   UNL     1      -3.347  -0.736   3.228  0.00  0.00    +0.139 A 
ATOM     32  C   UNL     1      -3.436  -0.574   4.603  0.00  0.00    +0.047 A 
ATOM     33  C   UNL     1      -4.606  -0.900   5.261  0.00  0.00    +0.004 A 
ATOM     34  C   UNL     1      -5.688  -1.389   4.551  0.00  0.00    +0.002 A 
ATOM     35  C   UNL     1      -5.602  -1.552   3.181  0.00  0.00    +0.023 A 
ATOM     36  C   UNL     1      -4.435  -1.220   2.516  0.00  0.00    +0.083 A 
ATOM     37 CL   UNL     1      -4.330  -1.418   0.795  0.00  0.00    -0.080 Cl
ENDBRANCH  30  31
ENDBRANCH  29  30
ENDBRANCH  27  29
ENDBRANCH  23  27
ENDBRANCH   1  24
TORSDOF 6
