REMARK  Name = ZINC06670099
REMARK  8 active torsions:
REMARK  status: ('A' for Active; 'I' for Inactive)
REMARK    1  A    between atoms: C_1  and  O_2
REMARK    2  A    between atoms: O_2  and  C_3
REMARK    3  A    between atoms: C_6  and  C_9
REMARK    4  A    between atoms: C_18  and  O_28
REMARK    5  A    between atoms: C_19  and  C_20
REMARK    6  A    between atoms: C_20  and  N_50
REMARK    7  A    between atoms: C_21  and  C_22
REMARK    8  A    between atoms: C_21  and  N_50
REMARK                            x       y       z     vdW  Elec       q    Type
REMARK                         _______ _______ _______ _____ _____    ______ ____
ROOT
ATOM      1  C   UNL     1       1.273  -2.154  -0.022  0.00  0.00    -0.000 A 
ATOM      2  C   UNL     1       2.518  -2.758  -0.039  0.00  0.00    +0.101 A 
ATOM      3  C   UNL     1       3.673  -1.961  -0.045  0.00  0.00    +0.338 A 
ATOM      4  O   UNL     1       4.766  -2.501  -0.060  0.00  0.00    -0.245 OA
ATOM      5  O   UNL     1       3.609  -0.620  -0.037  0.00  0.00    -0.422 OA
ATOM      6  C   UNL     1       2.430   0.038  -0.021  0.00  0.00    +0.144 A 
ATOM      7  C   UNL     1       1.223  -0.682  -0.013  0.00  0.00    +0.026 A 
ATOM      8  C   UNL     1       0.002  -0.004   0.002  0.00  0.00    +0.016 A 
ATOM      9  C   UNL     1      -0.016   1.362   0.009  0.00  0.00    +0.046 A 
ATOM     10  C   UNL     1       1.175   2.082   0.002  0.00  0.00    +0.122 A 
ATOM     11  C   UNL     1       2.395   1.425  -0.013  0.00  0.00    +0.020 A 
ENDROOT
BRANCH   1  15
ATOM     12  C   UNL     1      -2.288  -4.471   0.002  0.00  0.00    +0.120 A 
ATOM     13  C   UNL     1      -1.295  -4.736  -0.933  0.00  0.00    +0.046 A 
ATOM     14  C   UNL     1      -0.139  -3.987  -0.944  0.00  0.00    +0.012 A 
ATOM     15  C   UNL     1       0.034  -2.959  -0.014  0.00  0.00    -0.017 A 
ATOM     16  C   UNL     1      -0.964  -2.699   0.927  0.00  0.00    +0.012 A 
ATOM     17  C   UNL     1      -2.120  -3.449   0.928  0.00  0.00    +0.046 A 
BRANCH  12  19
ATOM     18  C   UNL     1      -4.406  -4.885   0.997  0.00  0.00    +0.277 C 
ATOM     19  O   UNL     1      -3.426  -5.211   0.009  0.00  0.00    -0.495 OA
ENDBRANCH  12  19
ENDBRANCH   1  15
BRANCH  10  20
ATOM     20  O   UNL     1       1.142   3.439   0.009  0.00  0.00    -0.506 OA
ATOM     21  H   UNL     1       1.141   3.828   0.895  0.00  0.00    +0.292 HD
ENDBRANCH  10  20
BRANCH  11  22
ATOM     22  C   UNL     1       3.679   2.213  -0.021  0.00  0.00    -0.039 C 
BRANCH  22  23
ATOM     23  N   UNL     1       4.077   2.474  -1.417  0.00  0.00    +0.384 N 
ATOM     24  H   UNL     1       3.337   3.009  -1.886  0.00  0.00    -0.085 HD
ATOM     25  H   UNL     1       4.214   1.580  -1.903  0.00  0.00    -0.085 HD
BRANCH  23  26
ATOM     26  C   UNL     1       5.333   3.247  -1.455  0.00  0.00    -0.050 C 
BRANCH  26  27
ATOM     27  C   UNL     1       5.721   3.502  -2.913  0.00  0.00    +0.101 C 
ATOM     28  C   UNL     1       7.097   4.199  -2.990  0.00  0.00    +0.032 C 
ATOM     29  C   UNL     1       6.951   5.189  -4.167  0.00  0.00    +0.030 C 
ATOM     30  C   UNL     1       5.504   4.972  -4.663  0.00  0.00    +0.160 C 
ATOM     31  O   UNL     1       4.800   4.433  -3.522  0.00  0.00    -0.378 OA
ENDBRANCH  26  27
ENDBRANCH  23  26
ENDBRANCH  22  23
ENDBRANCH  11  22
TORSDOF 7
