REMARK  Name = ZINC06161922
REMARK  5 active torsions:
REMARK  status: ('A' for Active; 'I' for Inactive)
REMARK    1  A    between atoms: C_10  and  S_11
REMARK    2  A    between atoms: S_11  and  N_14
REMARK    3  A    between atoms: C_18  and  C_21
REMARK    4  A    between atoms: N_30  and  C_31
REMARK    5  A    between atoms: C_31  and  C_32
REMARK                            x       y       z     vdW  Elec       q    Type
REMARK                         _______ _______ _______ _____ _____    ______ ____
ROOT
ATOM      1  N   UNL     1       5.437  -1.233  -4.659  0.00  0.00    -0.176 NA
ATOM      2  C   UNL     1       6.839  -1.041  -5.055  0.00  0.00    +0.109 C 
ATOM      3  C   UNL     1       7.545  -0.207  -3.982  0.00  0.00    +0.018 C 
ATOM      4  C   UNL     1       6.770   1.095  -3.762  0.00  0.00    +0.014 C 
ATOM      5  C   UNL     1       5.357   0.773  -3.271  0.00  0.00    +0.071 C 
ATOM      6  C   UNL     1       4.626  -0.050  -4.337  0.00  0.00    +0.120 C 
ENDROOT
BRANCH   5   7
ATOM      7  C   UNL     1       4.606   2.055  -3.024  0.00  0.00    +0.117 A 
ATOM      8  N   UNL     1       4.153   2.301  -1.814  0.00  0.00    -0.326 N 
ATOM      9  C   UNL     1       3.486   3.422  -1.555  0.00  0.00    +0.164 A 
ATOM     10  C   UNL     1       3.266   4.344  -2.594  0.00  0.00    +0.195 A 
ATOM     11  C   UNL     1       3.767   4.031  -3.871  0.00  0.00    +0.303 A 
ATOM     12  N   UNL     1       4.427   2.892  -4.031  0.00  0.00    -0.194 NA
ATOM     13  O   UNL     1       3.591   4.881  -4.911  0.00  0.00    -0.263 OA
ATOM     14  N   UNL     1       2.579   5.382  -2.085  0.00  0.00    -0.122 NA
ATOM     15  N   UNL     1       2.349   5.189  -0.833  0.00  0.00    -0.063 NA
ATOM     16  N   UNL     1       2.899   3.958  -0.443  0.00  0.00    -0.224 N 
ATOM     17  H   UNL     1       4.312   1.639  -1.081  0.00  0.00    +0.169 HD
BRANCH  16  18
ATOM     18  C   UNL     1       2.858   3.367   0.897  0.00  0.00    +0.184 C 
BRANCH  18  19
ATOM     19  C   UNL     1       1.623   2.515   1.033  0.00  0.00    -0.008 A 
ATOM     20  C   UNL     1       1.711   1.143   0.896  0.00  0.00    +0.007 A 
ATOM     21  C   UNL     1       0.578   0.361   1.020  0.00  0.00    +0.000 A 
ATOM     22  C   UNL     1      -0.646   0.952   1.275  0.00  0.00    +0.001 A 
ATOM     23  C   UNL     1      -0.735   2.324   1.418  0.00  0.00    +0.020 A 
ATOM     24  C   UNL     1       0.400   3.107   1.294  0.00  0.00    +0.046 A 
ATOM     25 CL   UNL     1       0.288   4.830   1.466  0.00  0.00    -0.083 Cl
ENDBRANCH  18  19
ENDBRANCH  16  18
ENDBRANCH   5   7
BRANCH   1  26
ATOM     26  S   UNL     1       4.783  -2.752  -4.579  0.00  0.00    +0.061 S 
ATOM     27  O   UNL     1       3.400  -2.615  -4.879  0.00  0.00    -0.153 OA
ATOM     28  O   UNL     1       5.643  -3.604  -5.323  0.00  0.00    -0.153 OA
BRANCH  26  38
ATOM     29  C   UNL     1       2.730  -6.592  -1.550  0.00  0.00    +0.001 A 
ATOM     30  C   UNL     1       2.637  -6.193  -2.882  0.00  0.00    +0.001 A 
ATOM     31  C   UNL     1       3.330  -5.116  -3.342  0.00  0.00    +0.010 A 
ATOM     32  C   UNL     1       4.153  -4.392  -2.462  0.00  0.00    +0.008 A 
ATOM     33  C   UNL     1       4.248  -4.797  -1.107  0.00  0.00    -0.016 A 
ATOM     34  C   UNL     1       3.518  -5.915  -0.669  0.00  0.00    +0.008 A 
ATOM     35  C   UNL     1       5.072  -4.074  -0.228  0.00  0.00    +0.008 A 
ATOM     36  C   UNL     1       5.765  -2.997  -0.687  0.00  0.00    +0.003 A 
ATOM     37  C   UNL     1       5.676  -2.602  -2.020  0.00  0.00    +0.029 A 
ATOM     38  C   UNL     1       4.885  -3.275  -2.900  0.00  0.00    +0.113 A 
ENDBRANCH  26  38
ENDBRANCH   1  26
TORSDOF 5
