REMARK  Name = ZINC59135366
REMARK  6 active torsions:
REMARK  status: ('A' for Active; 'I' for Inactive)
REMARK    1  A    between atoms: C_1  and  C_2
REMARK    2  A    between atoms: C_4  and  C_18
REMARK    3  A    between atoms: C_5  and  C_17
REMARK    4  A    between atoms: N_6  and  C_7
REMARK    5  A    between atoms: C_10  and  N_14
REMARK    6  A    between atoms: N_25  and  C_28
REMARK                            x       y       z     vdW  Elec       q    Type
REMARK                         _______ _______ _______ _____ _____    ______ ____
ROOT
ATOM      1  C   UNL     1       1.402   1.463  -0.591  0.00  0.00    +0.064 C 
ATOM      2  C   UNL     1       0.914   0.047  -0.429  0.00  0.00    +0.022 A 
ATOM      3  C   UNL     1       0.844  -0.868  -1.409  0.00  0.00    +0.031 A 
ATOM      4  C   UNL     1       0.314  -2.095  -0.795  0.00  0.00    -0.003 A 
ATOM      5  C   UNL     1       0.107  -1.790   0.544  0.00  0.00    +0.028 A 
ATOM      6  N   UNL     1       0.476  -0.511   0.742  0.00  0.00    -0.317 N 
ATOM      7  C   UNL     1      -0.430  -2.728   1.593  0.00  0.00    +0.064 C 
ENDROOT
BRANCH   4   8
ATOM      8  C   UNL     1       0.065  -3.330  -1.436  0.00  0.00    +0.028 C 
ATOM      9  C   UNL     1      -0.642  -3.362  -2.632  0.00  0.00    +0.102 C 
ATOM     10  C   UNL     1      -1.319  -2.167  -3.156  0.00  0.00    +0.276 C 
ATOM     11  O   UNL     1      -1.272  -0.997  -2.485  0.00  0.00    -0.268 OA
ATOM     12  N   UNL     1      -1.974  -2.265  -4.301  0.00  0.00    -0.123 NA
ATOM     13  C   UNL     1      -2.037  -3.405  -4.984  0.00  0.00    +0.340 C 
ATOM     14  O   UNL     1      -2.660  -3.416  -6.030  0.00  0.00    -0.250 OA
ATOM     15  N   UNL     1      -1.451  -4.543  -4.582  0.00  0.00    -0.188 N 
ATOM     16  C   UNL     1      -0.741  -4.594  -3.435  0.00  0.00    +0.264 C 
ATOM     17  O   UNL     1      -0.205  -5.625  -3.074  0.00  0.00    -0.269 OA
BRANCH  15  18
ATOM     18  C   UNL     1      -1.573  -5.696  -5.371  0.00  0.00    +0.046 A 
ATOM     19  C   UNL     1      -2.275  -6.794  -4.892  0.00  0.00    +0.027 A 
ATOM     20  C   UNL     1      -2.394  -7.929  -5.670  0.00  0.00    +0.040 A 
ATOM     21  C   UNL     1      -1.814  -7.972  -6.927  0.00  0.00    +0.124 A 
ATOM     22  C   UNL     1      -1.114  -6.878  -7.406  0.00  0.00    +0.040 A 
ATOM     23  C   UNL     1      -0.997  -5.739  -6.633  0.00  0.00    +0.027 A 
ATOM     24  F   UNL     1      -1.931  -9.083  -7.686  0.00  0.00    -0.205 F 
ENDBRANCH  15  18
ENDBRANCH   4   8
BRANCH   6  25
ATOM     25  C   UNL     1       0.417   0.157   1.972  0.00  0.00    +0.048 A 
ATOM     26  C   UNL     1       1.226  -0.253   3.025  0.00  0.00    +0.028 A 
ATOM     27  C   UNL     1       1.166   0.407   4.237  0.00  0.00    +0.036 A 
ATOM     28  C   UNL     1       0.303   1.475   4.403  0.00  0.00    +0.145 A 
ATOM     29  C   UNL     1      -0.503   1.885   3.356  0.00  0.00    +0.073 A 
ATOM     30  C   UNL     1      -0.444   1.232   2.139  0.00  0.00    +0.048 A 
ATOM     31 CL   UNL     1      -1.585   3.226   3.569  0.00  0.00    -0.081 Cl
BRANCH  28  32
ATOM     32  N   UNL     1       0.242   2.179   5.703  0.00  0.00    +0.058 N 
ATOM     33  O   UNL     1       0.946   1.821   6.619  0.00  0.00    -0.126 OA
ATOM     34  O   UNL     1      -0.512   3.113   5.850  0.00  0.00    -0.126 OA
ENDBRANCH  28  32
ENDBRANCH   6  25
TORSDOF 4
