REMARK  Name = ZINC01876043
REMARK  10 active torsions:
REMARK  status: ('A' for Active; 'I' for Inactive)
REMARK    1  A    between atoms: C_1  and  C_2
REMARK    2  A    between atoms: C_7  and  C_8
REMARK    3  A    between atoms: C_8  and  N_10
REMARK    4  A    between atoms: C_15  and  C_17
REMARK    5  A    between atoms: C_17  and  C_18
REMARK    6  A    between atoms: N_20  and  N_21
REMARK    7  A    between atoms: C_22  and  C_23
REMARK    8  A    between atoms: C_28  and  O_29
REMARK    9  A    between atoms: O_29  and  C_30
REMARK   10  A    between atoms: C_30  and  C_31
REMARK                            x       y       z     vdW  Elec       q    Type
REMARK                         _______ _______ _______ _____ _____    ______ ____
ROOT
ATOM      1  C   UNL     1       1.617  -0.535  -3.972  0.00  0.00    +0.239 C 
ATOM      2  O   UNL     1       0.675  -0.412  -4.726  0.00  0.00    -0.274 OA
ATOM      3  N   UNL     1       2.760  -1.100  -4.409  0.00  0.00    -0.207 N 
ATOM      4  H   UNL     1       3.488  -1.264  -3.789  0.00  0.00    +0.177 HD
ENDROOT
BRANCH   3   5
ATOM      5  N   UNL     1       2.897  -1.450  -5.759  0.00  0.00    -0.188 NA
ATOM      6  C   UNL     1       3.935  -2.124  -6.152  0.00  0.00    +0.142 C 
BRANCH   6   7
ATOM      7  C   UNL     1       4.689  -2.944  -5.188  0.00  0.00    +0.037 A 
ATOM      8  C   UNL     1       4.095  -3.344  -3.989  0.00  0.00    +0.028 A 
ATOM      9  C   UNL     1       4.807  -4.112  -3.091  0.00  0.00    +0.019 A 
ATOM     10  C   UNL     1       6.111  -4.487  -3.373  0.00  0.00    +0.019 A 
ATOM     11  C   UNL     1       6.707  -4.103  -4.559  0.00  0.00    +0.047 A 
ATOM     12  C   UNL     1       6.008  -3.327  -5.469  0.00  0.00    +0.130 A 
ATOM     13 BR   UNL     1       4.002  -4.652  -1.468  0.00  0.00    -0.050 Br
BRANCH  12  14
ATOM     14  O   UNL     1       6.596  -2.944  -6.632  0.00  0.00    -0.487 OA
BRANCH  14  15
ATOM     15  C   UNL     1       7.901  -3.462  -6.900  0.00  0.00    +0.264 C 
BRANCH  15  16
ATOM     16  C   UNL     1       8.434  -2.847  -8.169  0.00  0.00    -0.010 A 
ATOM     17  C   UNL     1       9.073  -1.622  -8.127  0.00  0.00    +0.007 A 
ATOM     18  C   UNL     1       9.562  -1.058  -9.291  0.00  0.00    +0.000 A 
ATOM     19  C   UNL     1       9.412  -1.718 -10.496  0.00  0.00    +0.000 A 
ATOM     20  C   UNL     1       8.773  -2.943 -10.537  0.00  0.00    +0.000 A 
ATOM     21  C   UNL     1       8.284  -3.507  -9.374  0.00  0.00    +0.007 A 
ENDBRANCH  15  16
ENDBRANCH  14  15
ENDBRANCH  12  14
ENDBRANCH   6   7
ENDBRANCH   3   5
BRANCH   1  22
ATOM     22  C   UNL     1       1.510  -0.056  -2.547  0.00  0.00    +0.162 C 
BRANCH  22  28
ATOM     23  N   UNL     1      -3.723   0.757  -1.237  0.00  0.00    -0.151 NA
ATOM     24  C   UNL     1      -2.450   0.781  -1.630  0.00  0.00    +0.181 A 
ATOM     25  N   UNL     1      -1.746   1.800  -2.184  0.00  0.00    -0.256 N 
ATOM     26  H   UNL     1      -2.162   2.661  -2.347  0.00  0.00    +0.191 HD
ATOM     27  N   UNL     1      -0.424   1.584  -2.506  0.00  0.00    -0.169 NA
ATOM     28  C   UNL     1       0.104   0.416  -2.280  0.00  0.00    +0.110 A 
ATOM     29  S   UNL     1      -1.262  -0.482  -1.566  0.00  0.00    -0.035 S 
BRANCH  23  30
ATOM     30  C   UNL     1      -4.484   1.845  -1.371  0.00  0.00    +0.270 C 
ATOM     31  O   UNL     1      -4.014   2.862  -1.853  0.00  0.00    -0.268 OA
BRANCH  30  38
ATOM     32  C   UNL     1      -6.139   4.191  -1.732  0.00  0.00    +0.044 C 
ATOM     33  C   UNL     1      -6.705   2.944  -1.103  0.00  0.00    -0.038 A 
ATOM     34  C   UNL     1      -8.024   2.911  -0.699  0.00  0.00    +0.004 A 
ATOM     35  C   UNL     1      -8.544   1.769  -0.115  0.00  0.00    +0.000 A 
ATOM     36  C   UNL     1      -7.747   0.652   0.061  0.00  0.00    +0.001 A 
ATOM     37  C   UNL     1      -6.428   0.670  -0.345  0.00  0.00    +0.013 A 
ATOM     38  C   UNL     1      -5.899   1.819  -0.933  0.00  0.00    +0.042 A 
ENDBRANCH  30  38
ENDBRANCH  23  30
ENDBRANCH  22  28
ENDBRANCH   1  22
TORSDOF 9
