REMARK  Name = ZINC02381255
REMARK  7 active torsions:
REMARK  status: ('A' for Active; 'I' for Inactive)
REMARK    1  A    between atoms: C_1  and  C_2
REMARK    2  A    between atoms: C_5  and  N_9
REMARK    3  A    between atoms: C_10  and  C_12
REMARK    4  A    between atoms: C_12  and  S_13
REMARK    5  A    between atoms: S_13  and  C_14
REMARK    6  A    between atoms: C_17  and  C_20
REMARK    7  A    between atoms: N_18  and  N_19
REMARK                            x       y       z     vdW  Elec       q    Type
REMARK                         _______ _______ _______ _____ _____    ______ ____
ROOT
ATOM      1  C   UNL     1       0.034  -0.821  -1.092  0.00  0.00    +0.209 A 
ATOM      2  N   UNL     1       0.063  -2.059  -0.650  0.00  0.00    -0.121 NA
ATOM      3  N   UNL     1       0.086  -2.068   0.634  0.00  0.00    -0.127 NA
ATOM      4  C   UNL     1       0.077  -0.838   1.092  0.00  0.00    +0.183 A 
ATOM      5  N   UNL     1       0.047  -0.001   0.000  0.00  0.00    -0.224 N 
ENDROOT
BRANCH   4   6
ATOM      6  C   UNL     1       0.098  -0.428   2.512  0.00  0.00    +0.039 A 
ATOM      7  C   UNL     1       0.092   0.925   2.851  0.00  0.00    +0.014 A 
ATOM      8  C   UNL     1       0.105   1.301   4.178  0.00  0.00    +0.021 A 
ATOM      9  C   UNL     1       0.136   0.339   5.174  0.00  0.00    +0.042 A 
ATOM     10  C   UNL     1       0.147  -1.006   4.845  0.00  0.00    +0.040 A 
ATOM     11  C   UNL     1       0.128  -1.395   3.520  0.00  0.00    +0.053 A 
ATOM     12 CL   UNL     1       0.143  -3.081   3.108  0.00  0.00    -0.083 Cl
ATOM     13 CL   UNL     1       0.159   0.821   6.841  0.00  0.00    -0.083 Cl
ENDBRANCH   4   6
BRANCH   5  14
ATOM     14  N   UNL     1       0.028   1.365   0.007  0.00  0.00    -0.295 N 
ATOM     15  H   UNL     1       0.965   1.739  -0.007  0.00  0.00    +0.163 HD
ATOM     16  H   UNL     1      -0.516   1.723  -0.763  0.00  0.00    +0.163 HD
ENDBRANCH   5  14
BRANCH   1  17
ATOM     17  S   UNL     1      -0.012  -0.315  -2.779  0.00  0.00    -0.075 S 
BRANCH  17  18
ATOM     18  C   UNL     1      -0.008  -1.931  -3.593  0.00  0.00    +0.173 C 
BRANCH  18  20
ATOM     19  N   UNL     1      -0.048  -2.814  -5.904  0.00  0.00    -0.284 N 
ATOM     20  C   UNL     1      -0.045  -1.741  -5.088  0.00  0.00    +0.228 C 
ATOM     21  O   UNL     1      -0.071  -0.623  -5.556  0.00  0.00    -0.275 OA
ATOM     22  H   UNL     1       0.038  -3.706  -5.532  0.00  0.00    +0.155 HD
BRANCH  19  27
ATOM     23  C   UNL     1      -0.569  -2.112 -11.510  0.00  0.00    +0.044 C 
ATOM     24  C   UNL     1      -0.431  -2.299 -10.021  0.00  0.00    -0.049 A 
ATOM     25  C   UNL     1       0.261  -1.367  -9.270  0.00  0.00    +0.005 A 
ATOM     26  C   UNL     1       0.390  -1.534  -7.905  0.00  0.00    +0.024 A 
ATOM     27  C   UNL     1      -0.177  -2.641  -7.287  0.00  0.00    +0.047 A 
ATOM     28  C   UNL     1      -0.868  -3.579  -8.044  0.00  0.00    +0.039 A 
ATOM     29  C   UNL     1      -0.997  -3.402  -9.409  0.00  0.00    +0.020 A 
ATOM     30 BR   UNL     1      -1.635  -5.091  -7.208  0.00  0.00    -0.048 Br
ENDBRANCH  19  27
ENDBRANCH  18  20
ENDBRANCH  17  18
ENDBRANCH   1  17
TORSDOF 6
