REMARK  Name = ZINC09631615
REMARK  9 active torsions:
REMARK  status: ('A' for Active; 'I' for Inactive)
REMARK    1  A    between atoms: C_6  and  N_7
REMARK    2  A    between atoms: N_7  and  S_8
REMARK    3  A    between atoms: S_8  and  C_11
REMARK    4  A    between atoms: C_14  and  N_28
REMARK    5  A    between atoms: C_15  and  N_17
REMARK    6  A    between atoms: N_17  and  C_18
REMARK    7  A    between atoms: C_18  and  N_20
REMARK    8  A    between atoms: N_20  and  C_21
REMARK    9  A    between atoms: C_21  and  C_22
REMARK                            x       y       z     vdW  Elec       q    Type
REMARK                         _______ _______ _______ _____ _____    ______ ____
ROOT
ATOM      1  C   UNL     1      -5.768   4.704   6.668  0.00  0.00    +0.110 A 
ATOM      2  C   UNL     1      -5.628   4.253   7.968  0.00  0.00    +0.031 A 
ATOM      3  C   UNL     1      -4.980   3.059   8.223  0.00  0.00    +0.027 A 
ATOM      4  C   UNL     1      -4.467   2.311   7.175  0.00  0.00    +0.051 A 
ATOM      5  C   UNL     1      -4.607   2.766   5.864  0.00  0.00    +0.056 A 
ATOM      6  C   UNL     1      -5.255   3.967   5.617  0.00  0.00    +0.054 A 
ENDROOT
BRANCH   4   7
ATOM      7  N   UNL     1      -3.809   1.102   7.431  0.00  0.00    -0.328 N 
ATOM      8  C   UNL     1      -3.903   0.740   8.868  0.00  0.00    +0.105 C 
ATOM      9  C   UNL     1      -3.622  -0.784   8.869  0.00  0.00    +0.020 C 
ATOM     10  C   UNL     1      -4.325  -1.266   7.579  0.00  0.00    +0.020 C 
ATOM     11  C   UNL     1      -4.441  -0.012   6.692  0.00  0.00    +0.105 C 
ENDBRANCH   4   7
BRANCH   1  12
ATOM     12  S   UNL     1      -6.595   6.227   6.351  0.00  0.00    +0.072 S 
ATOM     13  O   UNL     1      -6.965   6.211   4.979  0.00  0.00    -0.150 OA
ATOM     14  O   UNL     1      -7.544   6.399   7.394  0.00  0.00    -0.150 OA
BRANCH  12  15
ATOM     15  N   UNL     1      -5.477   7.437   6.525  0.00  0.00    -0.216 N 
ATOM     16  H   UNL     1      -5.568   8.081   7.244  0.00  0.00    +0.174 HD
BRANCH  15  22
ATOM     17  C   UNL     1      -3.137   7.118   6.028  0.00  0.00    +0.026 A 
ATOM     18  C   UNL     1      -2.079   7.205   5.144  0.00  0.00    +0.022 A 
ATOM     19  C   UNL     1      -2.278   7.713   3.872  0.00  0.00    +0.041 A 
ATOM     20  C   UNL     1      -3.538   8.129   3.480  0.00  0.00    +0.022 A 
ATOM     21  C   UNL     1      -4.601   8.039   4.358  0.00  0.00    +0.026 A 
ATOM     22  C   UNL     1      -4.404   7.530   5.635  0.00  0.00    +0.048 A 
ATOM     23 CL   UNL     1      -0.945   7.828   2.767  0.00  0.00    -0.084 Cl
ENDBRANCH  15  22
ENDBRANCH  12  15
ENDBRANCH   1  12
BRANCH   5  24
ATOM     24  N   UNL     1      -4.091   2.014   4.800  0.00  0.00    -0.295 N 
ATOM     25  H   UNL     1      -3.246   1.549   4.900  0.00  0.00    +0.154 HD
BRANCH  24  26
ATOM     26  C   UNL     1      -4.769   1.938   3.637  0.00  0.00    +0.135 C 
ATOM     27  S   UNL     1      -6.311   2.669   3.496  0.00  0.00    -0.019 S 
BRANCH  26  28
ATOM     28  N   UNL     1      -4.234   1.286   2.586  0.00  0.00    -0.324 N 
ATOM     29  H   UNL     1      -3.360   0.871   2.667  0.00  0.00    +0.148 HD
BRANCH  28  30
ATOM     30  C   UNL     1      -4.970   1.203   1.323  0.00  0.00    +0.134 C 
BRANCH  30  31
ATOM     31  C   UNL     1      -4.146   0.415   0.302  0.00  0.00    +0.135 C 
ATOM     32  C   UNL     1      -4.905   0.315  -1.039  0.00  0.00    +0.035 C 
ATOM     33  C   UNL     1      -3.795   0.433  -2.108  0.00  0.00    +0.031 C 
ATOM     34  C   UNL     1      -2.497   0.590  -1.285  0.00  0.00    +0.160 C 
ATOM     35  O   UNL     1      -2.926   1.125  -0.014  0.00  0.00    -0.375 OA
ENDBRANCH  30  31
ENDBRANCH  28  30
ENDBRANCH  26  28
ENDBRANCH  24  26
ENDBRANCH   5  24
TORSDOF 9
