REMARK  Name = ZINC39790259
REMARK  7 active torsions:
REMARK  status: ('A' for Active; 'I' for Inactive)
REMARK    1  A    between atoms: C_1  and  C_2
REMARK    2  A    between atoms: C_3  and  C_15
REMARK    3  A    between atoms: N_6  and  C_8
REMARK    4  A    between atoms: C_15  and  S_16
REMARK    5  A    between atoms: S_16  and  C_17
REMARK    6  A    between atoms: C_21  and  C_23
REMARK    7  A    between atoms: C_24  and  C_25
REMARK                            x       y       z     vdW  Elec       q    Type
REMARK                         _______ _______ _______ _____ _____    ______ ____
ROOT
ATOM      1  S   UNL     1      -3.228  -0.480  -1.636  0.00  0.00    -0.082 S 
ENDROOT
BRANCH   1   2
ATOM      2  C   UNL     1      -4.872   0.129  -1.462  0.00  0.00    +0.185 A 
ATOM      3  N   UNL     1      -5.810   0.171  -2.435  0.00  0.00    -0.253 N 
ATOM      4  H   UNL     1      -5.707  -0.125  -3.353  0.00  0.00    +0.191 HD
ATOM      5  N   UNL     1      -6.962   0.728  -1.856  0.00  0.00    -0.152 NA
ATOM      6  C   UNL     1      -6.671   0.987  -0.598  0.00  0.00    +0.175 A 
ATOM      7  N   UNL     1      -5.402   0.616  -0.362  0.00  0.00    -0.202 NA
BRANCH   6   8
ATOM      8  C   UNL     1      -7.589   1.582   0.390  0.00  0.00    +0.050 C 
ATOM      9  C   UNL     1      -8.842   1.907   0.032  0.00  0.00    +0.011 C 
BRANCH   9  10
ATOM     10  C   UNL     1      -9.760   2.501   1.020  0.00  0.00    -0.025 A 
ATOM     11  C   UNL     1      -9.328   2.733   2.328  0.00  0.00    +0.011 A 
ATOM     12  C   UNL     1     -10.191   3.290   3.248  0.00  0.00    +0.039 A 
ATOM     13  C   UNL     1     -11.486   3.619   2.877  0.00  0.00    +0.123 A 
ATOM     14  C   UNL     1     -11.920   3.390   1.580  0.00  0.00    +0.039 A 
ATOM     15  C   UNL     1     -11.064   2.840   0.650  0.00  0.00    +0.011 A 
ATOM     16  F   UNL     1     -12.327   4.163   3.782  0.00  0.00    -0.205 F 
ENDBRANCH   9  10
ENDBRANCH   6   8
ENDBRANCH   1   2
BRANCH   1  17
ATOM     17  C   UNL     1      -2.504  -0.267   0.013  0.00  0.00    +0.112 C 
BRANCH  17  20
ATOM     18  C   UNL     1      -0.018   1.503   0.010  0.00  0.00    +0.062 C 
ATOM     19  C   UNL     1       0.002  -0.004   0.002  0.00  0.00    +0.022 C 
ATOM     20  C   UNL     1      -1.078  -0.756   0.003  0.00  0.00    -0.005 C 
ATOM     21  C   UNL     1      -0.628  -2.200  -0.007  0.00  0.00    +0.213 C 
ATOM     22  N   UNL     1       0.843  -2.128  -0.013  0.00  0.00    -0.231 N 
ATOM     23  N   UNL     1       1.157  -0.762  -0.014  0.00  0.00    -0.267 N 
ATOM     24 CL   UNL     1      -1.213  -3.051   1.471  0.00  0.00    -0.094 Cl
ATOM     25  H   UNL     1       2.057  -0.401  -0.021  0.00  0.00    +0.170 HD
BRANCH  22  26
ATOM     26  C   UNL     1       1.739  -3.200  -0.024  0.00  0.00    +0.050 A 
ATOM     27  C   UNL     1       1.263  -4.505  -0.034  0.00  0.00    +0.025 A 
ATOM     28  C   UNL     1       2.152  -5.562  -0.045  0.00  0.00    +0.002 A 
ATOM     29  C   UNL     1       3.514  -5.322  -0.044  0.00  0.00    +0.000 A 
ATOM     30  C   UNL     1       3.991  -4.024  -0.033  0.00  0.00    +0.002 A 
ATOM     31  C   UNL     1       3.107  -2.962  -0.029  0.00  0.00    +0.025 A 
ENDBRANCH  22  26
ENDBRANCH  17  20
ENDBRANCH   1  17
TORSDOF 6
