REMARK  Name = ZINC50724872
REMARK  5 active torsions:
REMARK  status: ('A' for Active; 'I' for Inactive)
REMARK    1  A    between atoms: C_1  and  C_2
REMARK    2  A    between atoms: C_9  and  C_11
REMARK    3  A    between atoms: C_13  and  N_21
REMARK    4  A    between atoms: C_16  and  N_17
REMARK    5  A    between atoms: N_21  and  C_22
REMARK                            x       y       z     vdW  Elec       q    Type
REMARK                         _______ _______ _______ _____ _____    ______ ____
ROOT
ATOM      1  C   UNL     1       2.448  -0.063   2.959  0.00  0.00    +0.069 A 
ATOM      2  C   UNL     1       3.575  -0.815   2.623  0.00  0.00    +0.041 A 
ATOM      3  C   UNL     1       4.354  -1.373   3.623  0.00  0.00    +0.063 A 
ATOM      4  C   UNL     1       4.011  -1.183   4.960  0.00  0.00    +0.146 A 
ATOM      5  C   UNL     1       2.892  -0.438   5.292  0.00  0.00    +0.073 A 
ATOM      6  C   UNL     1       2.115   0.126   4.302  0.00  0.00    +0.141 A 
ATOM      7  F   UNL     1       4.771  -1.728   5.934  0.00  0.00    -0.203 F 
ENDROOT
BRANCH   1  15
ATOM      8  C   UNL     1       0.172   1.847   0.046  0.00  0.00    +0.028 C 
ATOM      9  C   UNL     1       0.322   0.340  -0.173  0.00  0.00    +0.073 C 
ATOM     10  C   UNL     1      -1.064  -0.309  -0.247  0.00  0.00    +0.022 C 
ATOM     11  C   UNL     1      -0.907  -1.829  -0.327  0.00  0.00    +0.003 C 
ATOM     12  C   UNL     1      -0.203  -2.338   0.933  0.00  0.00    +0.019 C 
ATOM     13  C   UNL     1       1.193  -1.712   1.020  0.00  0.00    +0.108 C 
ATOM     14  N   UNL     1       1.064  -0.250   0.949  0.00  0.00    -0.295 N 
ATOM     15  C   UNL     1       1.613   0.535   1.898  0.00  0.00    +0.249 C 
ATOM     16  O   UNL     1       1.420   1.735   1.879  0.00  0.00    -0.270 OA
ENDBRANCH   1  15
BRANCH   6  17
ATOM     17  N   UNL     1       0.924   0.928   4.663  0.00  0.00    +0.057 N 
ATOM     18  O   UNL     1       0.632   1.087   5.825  0.00  0.00    -0.126 OA
ATOM     19  O   UNL     1       0.244   1.425   3.795  0.00  0.00    -0.126 OA
ENDBRANCH   6  17
BRANCH   3  20
ATOM     20  N   UNL     1       5.484  -2.127   3.291  0.00  0.00    -0.345 N 
ATOM     21  C   UNL     1       5.844  -2.327   1.885  0.00  0.00    +0.125 C 
ATOM     22  H   UNL     1       6.029  -2.518   3.992  0.00  0.00    +0.146 HD
ENDBRANCH   3  20
TORSDOF 3
