REMARK  Name = ZINC12113547
REMARK  7 active torsions:
REMARK  status: ('A' for Active; 'I' for Inactive)
REMARK    1  A    between atoms: C_1  and  C_2
REMARK    2  A    between atoms: N_10  and  C_16
REMARK    3  A    between atoms: N_14  and  C_15
REMARK    4  A    between atoms: C_16  and  C_17
REMARK    5  A    between atoms: N_19  and  C_20
REMARK    6  A    between atoms: C_20  and  C_21
REMARK    7  A    between atoms: C_20  and  C_22
REMARK                            x       y       z     vdW  Elec       q    Type
REMARK                         _______ _______ _______ _____ _____    ______ ____
ROOT
ATOM      1  C   UNL     1       6.724   0.736  -0.060  0.00  0.00    +0.051 C 
ATOM      2  C   UNL     1       5.278   1.157  -0.043  0.00  0.00    -0.011 A 
ATOM      3  C   UNL     1       4.762   2.404  -0.032  0.00  0.00    +0.037 A 
ATOM      4  C   UNL     1       3.371   2.591  -0.017  0.00  0.00    +0.057 A 
ATOM      5  C   UNL     1       2.603   1.427  -0.016  0.00  0.00    +0.047 A 
ATOM      6  S   UNL     1       3.816   0.134  -0.035  0.00  0.00    -0.091 S 
ATOM      7  C   UNL     1       1.206   1.797   0.000  0.00  0.00    +0.039 A 
ATOM      8  C   UNL     1      -0.013   1.076   0.008  0.00  0.00    +0.144 A 
ATOM      9  N   UNL     1      -1.151   1.708   0.017  0.00  0.00    -0.175 NA
ATOM     10  N   UNL     1      -1.208   3.105   0.031  0.00  0.00    -0.219 N 
ATOM     11  C   UNL     1      -0.081   3.845   0.024  0.00  0.00    +0.292 A 
ATOM     12  O   UNL     1      -0.145   5.064   0.031  0.00  0.00    -0.264 OA
ATOM     13  C   UNL     1       1.173   3.198   0.008  0.00  0.00    +0.119 A 
ATOM     14  N   UNL     1       2.467   3.658  -0.002  0.00  0.00    -0.338 N 
ATOM     15  C   UNL     1       2.849   5.072   0.002  0.00  0.00    +0.149 C 
ENDROOT
BRANCH  10  16
ATOM     16  C   UNL     1      -2.511   3.774   0.048  0.00  0.00    +0.243 C 
BRANCH  16  17
ATOM     17  C   UNL     1      -2.972   4.012  -1.367  0.00  0.00    +0.235 C 
ATOM     18  O   UNL     1      -2.280   3.657  -2.298  0.00  0.00    -0.274 OA
ATOM     19  N   UNL     1      -4.153   4.619  -1.598  0.00  0.00    -0.311 N 
ATOM     20  H   UNL     1      -4.706   4.902  -0.853  0.00  0.00    +0.149 HD
BRANCH  19  21
ATOM     21  C   UNL     1      -4.601   4.849  -2.973  0.00  0.00    +0.067 C 
ATOM     22  C   UNL     1      -6.128   4.948  -3.003  0.00  0.00    +0.027 C 
ATOM     23  C   UNL     1      -3.995   6.154  -3.495  0.00  0.00    +0.027 C 
ENDBRANCH  19  21
ENDBRANCH  16  17
ENDBRANCH  10  16
TORSDOF 3
