REMARK  Name = ZINC04474704
REMARK  5 active torsions:
REMARK  status: ('A' for Active; 'I' for Inactive)
REMARK    1  A    between atoms: C_1  and  N_2
REMARK    2  A    between atoms: N_2  and  C_3
REMARK    3  A    between atoms: N_10  and  N_11
REMARK    4  A    between atoms: C_12  and  C_13
REMARK    5  A    between atoms: N_19  and  C_20
REMARK                            x       y       z     vdW  Elec       q    Type
REMARK                         _______ _______ _______ _____ _____    ______ ____
ROOT
ATOM      1  C   UNL     1       8.449   7.523  -0.095  0.00  0.00    +0.132 C 
ATOM      2  N   UNL     1       7.175   8.221  -0.283  0.00  0.00    -0.306 N 
ATOM      3  C   UNL     1       7.164   9.622  -0.712  0.00  0.00    +0.132 C 
ATOM      4  C   UNL     1       5.986   7.559  -0.056  0.00  0.00    +0.223 A 
ATOM      5  N   UNL     1       4.829   8.193  -0.226  0.00  0.00    -0.181 NA
ATOM      6  C   UNL     1       3.683   7.556  -0.008  0.00  0.00    +0.225 A 
ATOM      7  N   UNL     1       3.693   6.283   0.376  0.00  0.00    -0.179 NA
ATOM      8  C   UNL     1       4.849   5.651   0.552  0.00  0.00    +0.241 A 
ATOM      9  N   UNL     1       5.996   6.288   0.333  0.00  0.00    -0.180 NA
ATOM     10  N   UNL     1       4.860   4.330   0.956  0.00  0.00    -0.205 N 
ATOM     11  N   UNL     1       2.482   8.214  -0.185  0.00  0.00    -0.283 N 
ATOM     12  H   UNL     1       5.697   3.841   0.993  0.00  0.00    +0.177 HD
ATOM     13  H   UNL     1       2.474   9.163  -0.388  0.00  0.00    +0.155 HD
ENDROOT
BRANCH  11  14
ATOM     14  C   UNL     1       1.276   7.513  -0.073  0.00  0.00    +0.034 A 
ATOM     15  C   UNL     1       1.199   6.191  -0.489  0.00  0.00    +0.026 A 
ATOM     16  C   UNL     1       0.009   5.499  -0.373  0.00  0.00    +0.040 A 
ATOM     17  C   UNL     1      -1.109   6.127   0.149  0.00  0.00    +0.124 A 
ATOM     18  C   UNL     1      -1.036   7.447   0.561  0.00  0.00    +0.040 A 
ATOM     19  C   UNL     1       0.153   8.140   0.451  0.00  0.00    +0.026 A 
ATOM     20  F   UNL     1      -2.273   5.450   0.258  0.00  0.00    -0.205 F 
ENDBRANCH  11  14
BRANCH  10  21
ATOM     21  N   UNL     1       3.662   3.697   1.312  0.00  0.00    -0.188 NA
ATOM     22  C   UNL     1       3.682   2.487   1.780  0.00  0.00    +0.138 C 
BRANCH  22  23
ATOM     23  C   UNL     1       2.416   1.788   2.071  0.00  0.00    -0.005 A 
ATOM     24  C   UNL     1       1.198   2.458   1.938  0.00  0.00    +0.009 A 
ATOM     25  C   UNL     1       0.018   1.798   2.212  0.00  0.00    +0.001 A 
ATOM     26  C   UNL     1       0.039   0.475   2.618  0.00  0.00    +0.000 A 
ATOM     27  C   UNL     1       1.243  -0.195   2.752  0.00  0.00    +0.001 A 
ATOM     28  C   UNL     1       2.430   0.453   2.482  0.00  0.00    +0.009 A 
ENDBRANCH  22  23
ENDBRANCH  10  21
TORSDOF 3
