REMARK  Name = ZINC21284299
REMARK  7 active torsions:
REMARK  status: ('A' for Active; 'I' for Inactive)
REMARK    1  A    between atoms: C_1  and  C_2
REMARK    2  A    between atoms: C_2  and  C_4
REMARK    3  A    between atoms: C_2  and  O_16
REMARK    4  A    between atoms: O_16  and  C_17
REMARK    5  A    between atoms: C_17  and  C_19
REMARK    6  A    between atoms: C_23  and  S_25
REMARK    7  A    between atoms: S_25  and  N_28
REMARK                            x       y       z     vdW  Elec       q    Type
REMARK                         _______ _______ _______ _____ _____    ______ ____
ROOT
ATOM      1  C   UNL     1       3.606  -1.448  -2.741  0.00  0.00    +0.061 A 
ATOM      2  C   UNL     1       3.147  -0.830  -3.906  0.00  0.00    +0.015 A 
ATOM      3  C   UNL     1       3.393  -1.409  -5.134  0.00  0.00    +0.003 A 
ATOM      4  C   UNL     1       4.093  -2.601  -5.212  0.00  0.00    +0.029 A 
ATOM      5  C   UNL     1       4.551  -3.218  -4.062  0.00  0.00    +0.109 A 
ATOM      6  C   UNL     1       4.316  -2.647  -2.828  0.00  0.00    +0.043 A 
ENDROOT
BRANCH   5   7
ATOM      7  S   UNL     1       5.442  -4.734  -4.173  0.00  0.00    +0.075 S 
ATOM      8  O   UNL     1       5.288  -5.388  -2.921  0.00  0.00    -0.150 OA
ATOM      9  O   UNL     1       5.061  -5.340  -5.401  0.00  0.00    -0.150 OA
BRANCH   7  10
ATOM     10  N   UNL     1       7.047  -4.350  -4.312  0.00  0.00    -0.202 N 
ATOM     11  C   UNL     1       7.970  -4.179  -3.187  0.00  0.00    +0.136 C 
ATOM     12  C   UNL     1       9.325  -3.834  -3.826  0.00  0.00    +0.058 C 
ATOM     13  C   UNL     1       9.054  -3.837  -5.314  0.00  0.00    -0.023 A 
ATOM     14  C   UNL     1       7.719  -4.148  -5.519  0.00  0.00    +0.054 A 
ATOM     15  C   UNL     1       7.231  -4.217  -6.825  0.00  0.00    +0.025 A 
ATOM     16  C   UNL     1       8.070  -3.981  -7.894  0.00  0.00    +0.002 A 
ATOM     17  C   UNL     1       9.401  -3.674  -7.679  0.00  0.00    +0.000 A 
ATOM     18  C   UNL     1       9.889  -3.595  -6.388  0.00  0.00    +0.005 A 
ENDBRANCH   7  10
ENDBRANCH   5   7
BRANCH   1  19
ATOM     19  C   UNL     1       3.347  -0.832  -1.424  0.00  0.00    +0.340 C 
ATOM     20  O   UNL     1       3.748  -1.372  -0.412  0.00  0.00    -0.245 OA
BRANCH  19  21
ATOM     21  O   UNL     1       2.666   0.327  -1.344  0.00  0.00    -0.450 OA
BRANCH  21  23
ATOM     22  C   UNL     1       3.610   1.800   0.351  0.00  0.00    +0.060 C 
ATOM     23  C   UNL     1       2.449   0.874  -0.017  0.00  0.00    +0.239 C 
BRANCH  23  24
ATOM     24  C   UNL     1       1.160   1.655  -0.000  0.00  0.00    +0.151 A 
ATOM     25  N   UNL     1      -0.011   0.966   0.007  0.00  0.00    -0.307 N 
ATOM     26  H   UNL     1      -0.002  -0.134   0.006  0.00  0.00    +0.170 HD
ATOM     27  C   UNL     1      -1.196   1.620   0.017  0.00  0.00    +0.259 A 
ATOM     28  O   UNL     1      -2.252   1.016   0.018  0.00  0.00    -0.267 OA
ATOM     29  C   UNL     1      -1.157   3.090   0.030  0.00  0.00    +0.065 A 
ATOM     30  C   UNL     1      -2.319   3.858   0.044  0.00  0.00    +0.015 A 
ATOM     31  C   UNL     1      -2.225   5.233   0.051  0.00  0.00    +0.001 A 
ATOM     32  C   UNL     1      -0.983   5.855   0.043  0.00  0.00    +0.002 A 
ATOM     33  C   UNL     1       0.177   5.115   0.028  0.00  0.00    +0.028 A 
ATOM     34  C   UNL     1       0.107   3.720   0.021  0.00  0.00    +0.078 A 
ATOM     35  N   UNL     1       1.225   2.952   0.007  0.00  0.00    -0.230 NA
ENDBRANCH  23  24
ENDBRANCH  21  23
ENDBRANCH  19  21
ENDBRANCH   1  19
TORSDOF 6
