REMARK  Name = ZINC08567651
REMARK  9 active torsions:
REMARK  status: ('A' for Active; 'I' for Inactive)
REMARK    1  A    between atoms: C_1  and  O_2
REMARK    2  A    between atoms: O_2  and  C_3
REMARK    3  A    between atoms: C_6  and  C_17
REMARK    4  A    between atoms: C_8  and  C_9
REMARK    5  A    between atoms: C_9  and  S_10
REMARK    6  A    between atoms: S_10  and  C_11
REMARK    7  A    between atoms: C_20  and  C_31
REMARK    8  A    between atoms: C_26  and  N_30
REMARK    9  A    between atoms: C_27  and  C_28
REMARK                            x       y       z     vdW  Elec       q    Type
REMARK                         _______ _______ _______ _____ _____    ______ ____
ROOT
ATOM      1  C   UNL     1       2.506  -2.503  -4.381  0.00  0.00    +0.102 C 
ATOM      2  C   UNL     1       1.826  -2.087  -5.660  0.00  0.00    +0.054 A 
ATOM      3  C   UNL     1       0.610  -2.438  -6.145  0.00  0.00    +0.074 A 
ATOM      4  N   UNL     1       0.451  -1.796  -7.340  0.00  0.00    -0.273 N 
ATOM      5  H   UNL     1      -0.324  -1.854  -7.921  0.00  0.00    +0.189 HD
ATOM      6  N   UNL     1       1.607  -1.037  -7.580  0.00  0.00    -0.135 NA
ATOM      7  C   UNL     1       2.427  -1.209  -6.582  0.00  0.00    +0.245 A 
ATOM      8  O   UNL     1       3.665  -0.683  -6.374  0.00  0.00    -0.421 OA
ATOM      9  C   UNL     1       4.417  -1.230  -5.399  0.00  0.00    +0.201 C 
ATOM     10  C   UNL     1       3.949  -2.075  -4.455  0.00  0.00    +0.098 C 
ENDROOT
BRANCH   1  14
ATOM     11  C   UNL     1       0.606  -0.607  -1.056  0.00  0.00    +0.124 A 
ATOM     12  C   UNL     1       1.173   0.161  -2.063  0.00  0.00    +0.046 A 
ATOM     13  C   UNL     1       1.786  -0.455  -3.136  0.00  0.00    +0.008 A 
ATOM     14  C   UNL     1       1.836  -1.835  -3.208  0.00  0.00    -0.034 A 
ATOM     15  C   UNL     1       1.271  -2.602  -2.207  0.00  0.00    +0.012 A 
ATOM     16  C   UNL     1       0.661  -1.991  -1.128  0.00  0.00    +0.005 A 
BRANCH  11  18
ATOM     17  C   UNL     1      -0.017   1.425   0.010  0.00  0.00    +0.277 C 
ATOM     18  O   UNL     1       0.002  -0.004   0.002  0.00  0.00    -0.495 OA
ENDBRANCH  11  18
BRANCH  16  19
ATOM     19  C   UNL     1       0.051  -2.828  -0.033  0.00  0.00    +0.114 C 
BRANCH  19  20
ATOM     20  S   UNL     1      -1.683  -3.180  -0.435  0.00  0.00    -0.101 S 
BRANCH  20  21
ATOM     21  C   UNL     1      -2.247  -4.152   0.921  0.00  0.00    +0.097 A 
ATOM     22  C   UNL     1      -3.560  -4.613   0.941  0.00  0.00    +0.035 A 
ATOM     23  C   UNL     1      -3.989  -5.375   2.012  0.00  0.00    +0.004 A 
ATOM     24  C   UNL     1      -3.087  -5.653   3.032  0.00  0.00    +0.020 A 
ATOM     25  C   UNL     1      -1.799  -5.164   2.947  0.00  0.00    +0.112 A 
ATOM     26  N   UNL     1      -1.415  -4.443   1.911  0.00  0.00    -0.249 NA
ENDBRANCH  20  21
ENDBRANCH  19  20
ENDBRANCH  16  19
ENDBRANCH   1  14
BRANCH   3  27
ATOM     27  C   UNL     1      -0.363  -3.347  -5.500  0.00  0.00    +0.000 A 
ATOM     28  C   UNL     1       0.067  -4.551  -4.941  0.00  0.00    +0.010 A 
ATOM     29  C   UNL     1      -0.846  -5.394  -4.340  0.00  0.00    +0.001 A 
ATOM     30  C   UNL     1      -2.185  -5.048  -4.293  0.00  0.00    +0.000 A 
ATOM     31  C   UNL     1      -2.617  -3.856  -4.847  0.00  0.00    +0.001 A 
ATOM     32  C   UNL     1      -1.714  -3.002  -5.444  0.00  0.00    +0.010 A 
ENDBRANCH   3  27
BRANCH   9  33
ATOM     33  N   UNL     1       5.750  -0.907  -5.363  0.00  0.00    -0.328 N 
ATOM     34  H   UNL     1       6.121  -0.304  -6.026  0.00  0.00    +0.145 HD
ATOM     35  H   UNL     1       6.322  -1.283  -4.675  0.00  0.00    +0.145 HD
ENDBRANCH   9  33
BRANCH  10  36
ATOM     36  C   UNL     1       4.865  -2.586  -3.479  0.00  0.00    +0.101 C 
ATOM     37  N   UNL     1       5.591  -2.992  -2.706  0.00  0.00    -0.191 NA
ENDBRANCH  10  36
TORSDOF 8
