REMARK  Name = ZINC39710703
REMARK  12 active torsions:
REMARK  status: ('A' for Active; 'I' for Inactive)
REMARK    1  A    between atoms: C_1  and  C_2
REMARK    2  A    between atoms: C_7  and  C_14
REMARK    3  A    between atoms: C_14  and  C_16
REMARK    4  A    between atoms: C_14  and  N_25
REMARK    5  A    between atoms: N_20  and  C_21
REMARK    6  A    between atoms: C_21  and  C_22
REMARK    7  A    between atoms: C_22  and  O_23
REMARK    8  A    between atoms: O_23  and  C_24
REMARK    9  A    between atoms: N_25  and  C_26
REMARK   10  A    between atoms: N_25  and  C_33
REMARK   11  A    between atoms: C_26  and  C_27
REMARK   12  A    between atoms: C_33  and  C_34
REMARK                            x       y       z     vdW  Elec       q    Type
REMARK                         _______ _______ _______ _____ _____    ______ ____
ROOT
ATOM      1  C   UNL     1       1.209  -5.252   1.350  0.00  0.00    +0.019 C 
ENDROOT
BRANCH   1   8
ATOM      2  C   UNL     1      -1.829   0.835  -1.799  0.00  0.00    +0.044 C 
ATOM      3  C   UNL     1      -1.419  -0.565  -1.421  0.00  0.00    -0.049 A 
ATOM      4  C   UNL     1      -1.120  -1.472  -2.437  0.00  0.00    +0.004 A 
ATOM      5  C   UNL     1      -0.745  -2.748  -2.159  0.00  0.00    +0.010 A 
ATOM      6  C   UNL     1      -0.655  -3.167  -0.759  0.00  0.00    -0.007 A 
ATOM      7  C   UNL     1      -0.281  -4.437  -0.432  0.00  0.00    -0.006 C 
ATOM      8  C   UNL     1      -0.214  -4.783   1.042  0.00  0.00    +0.092 C 
ATOM      9  C   UNL     1      -0.567  -3.693   2.029  0.00  0.00    +0.223 C 
ATOM     10  O   UNL     1      -0.529  -3.917   3.224  0.00  0.00    -0.275 OA
ATOM     11  N   UNL     1      -0.915  -2.496   1.588  0.00  0.00    -0.285 N 
ATOM     12  C   UNL     1      -0.975  -2.187   0.293  0.00  0.00    +0.041 A 
ATOM     13  C   UNL     1      -1.349  -0.890  -0.103  0.00  0.00    +0.027 A 
ATOM     14  H   UNL     1      -1.137  -1.811   2.238  0.00  0.00    +0.155 HD
ENDBRANCH   1   8
BRANCH   1  15
ATOM     15  C   UNL     1       1.620  -6.300   0.348  0.00  0.00    +0.139 A 
ATOM     16  N   UNL     1       0.958  -7.387   0.035  0.00  0.00    -0.115 NA
ATOM     17  N   UNL     1       1.634  -8.023  -0.858  0.00  0.00    -0.023 NA
ATOM     18  N   UNL     1       2.711  -7.369  -1.124  0.00  0.00    -0.044 NA
ATOM     19  N   UNL     1       2.737  -6.298  -0.404  0.00  0.00    -0.229 N 
BRANCH  19  20
ATOM     20  C   UNL     1       3.785  -5.275  -0.403  0.00  0.00    +0.175 C 
BRANCH  20  21
ATOM     21  C   UNL     1       4.951  -5.741   0.471  0.00  0.00    +0.183 C 
BRANCH  21  22
ATOM     22  O   UNL     1       5.945  -4.715   0.524  0.00  0.00    -0.381 OA
ATOM     23  C   UNL     1       7.084  -5.051   1.319  0.00  0.00    +0.194 C 
ENDBRANCH  21  22
ENDBRANCH  20  21
ENDBRANCH  19  20
ENDBRANCH   1  15
BRANCH   1  24
ATOM     24  N   UNL     1       1.255  -5.823   2.703  0.00  0.00    +0.393 N 
ATOM     25  H   UNL     1       0.808  -5.191   3.350  0.00  0.00    -0.080 HD
BRANCH  24  26
ATOM     26  C   UNL     1       0.551  -7.113   2.713  0.00  0.00    -0.041 C 
BRANCH  26  27
ATOM     27  C   UNL     1      -0.936  -6.875   2.658  0.00  0.00    -0.064 A 
ATOM     28  C   UNL     1      -1.583  -6.291   3.731  0.00  0.00    +0.002 A 
ATOM     29  C   UNL     1      -2.947  -6.072   3.679  0.00  0.00    +0.000 A 
ATOM     30  C   UNL     1      -3.663  -6.437   2.555  0.00  0.00    +0.000 A 
ATOM     31  C   UNL     1      -3.016  -7.019   1.481  0.00  0.00    +0.000 A 
ATOM     32  C   UNL     1      -1.651  -7.234   1.531  0.00  0.00    +0.002 A 
ENDBRANCH  26  27
ENDBRANCH  24  26
BRANCH  24  33
ATOM     33  C   UNL     1       2.654  -6.026   3.102  0.00  0.00    -0.034 C 
BRANCH  33  34
ATOM     34  C   UNL     1       3.312  -4.688   3.321  0.00  0.00    -0.027 A 
ATOM     35  C   UNL     1       3.504  -4.010   4.480  0.00  0.00    +0.009 A 
ATOM     36  C   UNL     1       4.140  -2.784   4.442  0.00  0.00    +0.008 A 
ATOM     37  C   UNL     1       4.554  -2.295   3.247  0.00  0.00    +0.045 A 
ATOM     38  S   UNL     1       4.048  -3.587   2.124  0.00  0.00    -0.103 S 
ENDBRANCH  33  34
ENDBRANCH  24  33
ENDBRANCH   1  24
TORSDOF 10
