REMARK  Name = ZINC63970736
REMARK  5 active torsions:
REMARK  status: ('A' for Active; 'I' for Inactive)
REMARK    1  A    between atoms: C_1  and  C_2
REMARK    2  A    between atoms: C_2  and  C_3
REMARK    3  A    between atoms: C_7  and  N_9
REMARK    4  A    between atoms: C_10  and  C_12
REMARK    5  A    between atoms: C_18  and  C_20
REMARK                            x       y       z     vdW  Elec       q    Type
REMARK                         _______ _______ _______ _____ _____    ______ ____
ROOT
ATOM      1  C   UNL     1       6.005  -4.093  -1.224  0.00  0.00    +0.177 C 
ATOM      2  C   UNL     1       6.563  -4.036  -2.667  0.00  0.00    +0.103 C 
ATOM      3  S   UNL     1       7.581  -5.579  -2.676  0.00  0.00    -0.139 S 
ATOM      4  C   UNL     1       6.550  -6.514  -1.462  0.00  0.00    +0.178 C 
ATOM      5  N   UNL     1       6.026  -5.417  -0.626  0.00  0.00    -0.276 N 
ATOM      6  C   UNL     1       5.591  -5.635   0.630  0.00  0.00    +0.246 C 
ATOM      7  O   UNL     1       5.264  -4.697   1.332  0.00  0.00    -0.270 OA
ENDROOT
BRANCH   6   8
ATOM      8  C   UNL     1       5.511  -7.004   1.152  0.00  0.00    +0.043 C 
ATOM      9  C   UNL     1       4.984  -7.404   2.360  0.00  0.00    +0.008 A 
ATOM     10  C   UNL     1       4.386  -6.696   3.433  0.00  0.00    +0.010 A 
ATOM     11  C   UNL     1       3.948  -7.359   4.525  0.00  0.00    +0.001 A 
ATOM     12  C   UNL     1       4.057  -8.753   4.655  0.00  0.00    +0.002 A 
ATOM     13  C   UNL     1       4.610  -9.520   3.691  0.00  0.00    +0.026 A 
ATOM     14  C   UNL     1       5.114  -8.878   2.467  0.00  0.00    +0.043 A 
ATOM     15  N   UNL     1       5.683  -9.365   1.400  0.00  0.00    -0.380 N 
ATOM     16  C   UNL     1       5.984  -8.270   0.472  0.00  0.00    +0.154 C 
ATOM     17  H   UNL     1       5.873 -10.303   1.242  0.00  0.00    +0.160 HD
ENDBRANCH   6   8
BRANCH   1  19
ATOM     18  N   UNL     1       4.334  -2.322  -1.198  0.00  0.00    -0.184 NA
ATOM     19  C   UNL     1       4.581  -3.599  -1.242  0.00  0.00    +0.270 C 
ATOM     20  O   UNL     1       3.562  -4.481  -1.303  0.00  0.00    -0.269 OA
BRANCH  18  24
ATOM     21  C   UNL     1       0.660  -0.542  -1.226  0.00  0.00    +0.154 C 
ATOM     22  N   UNL     1       0.695  -2.020  -1.282  0.00  0.00    -0.253 N 
ATOM     23  N   UNL     1       1.952  -2.580  -1.271  0.00  0.00    -0.159 NA
ATOM     24  C   UNL     1       3.045  -1.875  -1.215  0.00  0.00    +0.209 C 
ATOM     25  S   UNL     1       2.465  -0.186  -1.165  0.00  0.00    -0.061 S 
ATOM     26  H   UNL     1      -0.112  -2.557  -1.324  0.00  0.00    +0.169 HD
BRANCH  21  28
ATOM     27  C   UNL     1      -0.079   1.481   0.042  0.00  0.00    +0.006 C 
ATOM     28  C   UNL     1      -0.047  -0.049   0.038  0.00  0.00    +0.032 C 
ENDBRANCH  21  28
ENDBRANCH  18  24
ENDBRANCH   1  19
TORSDOF 4
