REMARK  Name = ZINC67236011
REMARK  8 active torsions:
REMARK  status: ('A' for Active; 'I' for Inactive)
REMARK    1  A    between atoms: C_1  and  C_2
REMARK    2  A    between atoms: N_10  and  C_25
REMARK    3  A    between atoms: C_11  and  S_13
REMARK    4  A    between atoms: S_13  and  C_14
REMARK    5  A    between atoms: C_14  and  C_15
REMARK    6  A    between atoms: N_17  and  C_18
REMARK    7  A    between atoms: C_25  and  C_26
REMARK    8  A    between atoms: C_25  and  C_27
REMARK                            x       y       z     vdW  Elec       q    Type
REMARK                         _______ _______ _______ _____ _____    ______ ____
ROOT
ATOM      1  C   UNL     1      -0.075   1.502   0.010  0.00  0.00    +0.063 C 
ATOM      2  C   UNL     1      -0.043  -0.004   0.002  0.00  0.00    +0.016 A 
ATOM      3  C   UNL     1      -0.032  -0.776  -1.104  0.00  0.00    +0.051 A 
ATOM      4  C   UNL     1      -0.002  -2.126  -0.690  0.00  0.00    +0.097 A 
ATOM      5  C   UNL     1       0.004  -2.116   0.710  0.00  0.00    +0.131 A 
ATOM      6  N   UNL     1      -0.016  -0.796   1.109  0.00  0.00    -0.353 N 
ATOM      7  H   UNL     1      -0.013  -0.483   2.027  0.00  0.00    +0.166 HD
ATOM      8  C   UNL     1       0.034  -3.344   1.396  0.00  0.00    +0.279 A 
ATOM      9  O   UNL     1       0.040  -3.377   2.615  0.00  0.00    -0.265 OA
ATOM     10  N   UNL     1       0.054  -4.486   0.673  0.00  0.00    -0.284 N 
ATOM     11  C   UNL     1       0.048  -4.441  -0.691  0.00  0.00    +0.173 A 
ATOM     12  N   UNL     1       0.020  -3.303  -1.346  0.00  0.00    -0.221 NA
ENDROOT
BRANCH  10  13
ATOM     13  C   UNL     1       0.085  -5.780   1.359  0.00  0.00    +0.087 C 
ATOM     14  C   UNL     1       1.341  -5.867   2.229  0.00  0.00    +0.031 C 
ATOM     15  C   UNL     1      -1.157  -5.920   2.241  0.00  0.00    +0.031 C 
ENDBRANCH  10  13
BRANCH  11  16
ATOM     16  S   UNL     1       0.077  -5.951  -1.598  0.00  0.00    -0.078 S 
BRANCH  16  17
ATOM     17  C   UNL     1       0.058  -5.421  -3.333  0.00  0.00    +0.173 C 
BRANCH  17  18
ATOM     18  C   UNL     1       0.081  -6.633  -4.229  0.00  0.00    +0.227 C 
ATOM     19  O   UNL     1       0.107  -7.745  -3.744  0.00  0.00    -0.275 OA
ATOM     20  N   UNL     1       0.071  -6.481  -5.568  0.00  0.00    -0.285 N 
ATOM     21  H   UNL     1      -0.017  -5.597  -5.955  0.00  0.00    +0.155 HD
BRANCH  20  22
ATOM     22  C   UNL     1       0.190  -7.601  -6.399  0.00  0.00    +0.033 A 
ATOM     23  C   UNL     1       0.885  -7.507  -7.598  0.00  0.00    +0.024 A 
ATOM     24  C   UNL     1       1.001  -8.613  -8.416  0.00  0.00    +0.017 A 
ATOM     25  C   UNL     1       0.425  -9.815  -8.043  0.00  0.00    +0.018 A 
ATOM     26  C   UNL     1      -0.268  -9.911  -6.850  0.00  0.00    +0.017 A 
ATOM     27  C   UNL     1      -0.382  -8.809  -6.025  0.00  0.00    +0.024 A 
ATOM     28 BR   UNL     1       0.586 -11.327  -9.167  0.00  0.00    -0.050 Br
ENDBRANCH  20  22
ENDBRANCH  17  18
ENDBRANCH  16  17
ENDBRANCH  11  16
TORSDOF 5
