REMARK  Name = ZINC03467779
REMARK  6 active torsions:
REMARK  status: ('A' for Active; 'I' for Inactive)
REMARK    1  A    between atoms: C_15  and  C_17
REMARK    2  A    between atoms: C_17  and  O_18
REMARK    3  A    between atoms: O_18  and  C_19
REMARK    4  A    between atoms: C_19  and  C_21
REMARK    5  A    between atoms: C_24  and  S_27
REMARK    6  A    between atoms: S_27  and  N_30
REMARK                            x       y       z     vdW  Elec       q    Type
REMARK                         _______ _______ _______ _____ _____    ______ ____
ROOT
ATOM      1  C   UNL     1      -1.250   3.537   0.141  0.00  0.00    +0.328 C 
ENDROOT
BRANCH   1  16
ATOM      2  C   UNL     1      -0.906  -2.113  -0.614  0.00  0.00    +0.002 A 
ATOM      3  C   UNL     1       0.013  -2.787   0.169  0.00  0.00    +0.001 A 
ATOM      4  C   UNL     1       0.925  -2.079   0.932  0.00  0.00    +0.017 A 
ATOM      5  C   UNL     1       0.913  -0.696   0.906  0.00  0.00    +0.035 A 
ATOM      6  C   UNL     1      -0.013  -0.011   0.117  0.00  0.00    +0.055 A 
ATOM      7  C   UNL     1      -0.923  -0.731  -0.643  0.00  0.00    +0.025 A 
ATOM      8  N   UNL     1      -0.023   1.390   0.091  0.00  0.00    -0.235 N 
ATOM      9  C   UNL     1       1.161   2.137   0.133  0.00  0.00    +0.055 A 
ATOM     10  C   UNL     1       1.280   3.300  -0.612  0.00  0.00    +0.025 A 
ATOM     11  C   UNL     1       2.453   4.033  -0.567  0.00  0.00    +0.002 A 
ATOM     12  C   UNL     1       3.511   3.613   0.217  0.00  0.00    +0.001 A 
ATOM     13  C   UNL     1       3.403   2.453   0.965  0.00  0.00    +0.017 A 
ATOM     14  C   UNL     1       2.233   1.718   0.924  0.00  0.00    +0.035 A 
ATOM     15  S   UNL     1       2.065   0.235   1.868  0.00  0.00    -0.086 S 
ATOM     16  C   UNL     1      -1.203   2.036   0.019  0.00  0.00    +0.262 C 
ATOM     17  O   UNL     1      -2.229   1.409  -0.145  0.00  0.00    -0.271 OA
ENDBRANCH   1  16
BRANCH   1  18
ATOM     18  O   UNL     1      -2.631   3.972   0.246  0.00  0.00    -0.452 OA
BRANCH  18  19
ATOM     19  C   UNL     1      -2.848   5.296   0.362  0.00  0.00    +0.340 C 
ATOM     20  O   UNL     1      -1.909   6.067   0.376  0.00  0.00    -0.245 OA
BRANCH  19  21
ATOM     21  C   UNL     1      -4.228   5.811   0.473  0.00  0.00    +0.059 A 
ATOM     22  C   UNL     1      -5.310   4.929   0.452  0.00  0.00    +0.017 A 
ATOM     23  C   UNL     1      -6.596   5.417   0.562  0.00  0.00    +0.029 A 
ATOM     24  C   UNL     1      -6.815   6.778   0.682  0.00  0.00    +0.106 A 
ATOM     25  C   UNL     1      -5.748   7.658   0.698  0.00  0.00    +0.029 A 
ATOM     26  C   UNL     1      -4.457   7.184   0.595  0.00  0.00    +0.017 A 
BRANCH  24  27
ATOM     27  S   UNL     1      -8.461   7.392   0.814  0.00  0.00    +0.061 S 
ATOM     28  O   UNL     1      -9.253   6.327   1.323  0.00  0.00    -0.153 OA
ATOM     29  O   UNL     1      -8.373   8.653   1.463  0.00  0.00    -0.153 OA
BRANCH  27  30
ATOM     30  N   UNL     1      -8.998   7.688  -0.724  0.00  0.00    -0.177 NA
ATOM     31  C   UNL     1      -8.860   8.959  -1.451  0.00  0.00    +0.109 C 
ATOM     32  C   UNL     1      -9.526   8.774  -2.830  0.00  0.00    +0.018 C 
ATOM     33  C   UNL     1     -10.505   7.596  -2.585  0.00  0.00    +0.018 C 
ATOM     34  C   UNL     1      -9.700   6.723  -1.590  0.00  0.00    +0.109 C 
ENDBRANCH  27  30
ENDBRANCH  24  27
ENDBRANCH  19  21
ENDBRANCH  18  19
ENDBRANCH   1  18
TORSDOF 6
