REMARK  Name = ZINC11044359
REMARK  9 active torsions:
REMARK  status: ('A' for Active; 'I' for Inactive)
REMARK    1  A    between atoms: C_1  and  C_2
REMARK    2  A    between atoms: C_2  and  C_4
REMARK    3  A    between atoms: C_2  and  N_61
REMARK    4  A    between atoms: N_6  and  C_7
REMARK    5  A    between atoms: C_10  and  S_13
REMARK    6  A    between atoms: S_13  and  N_16
REMARK    7  A    between atoms: C_22  and  C_24
REMARK    8  A    between atoms: C_22  and  C_30
REMARK    9  A    between atoms: C_22  and  N_61
REMARK                            x       y       z     vdW  Elec       q    Type
REMARK                         _______ _______ _______ _____ _____    ______ ____
ROOT
ATOM      1  C   UNL     1       0.004  -0.004   0.003  0.00  0.00    +0.203 C 
ATOM      2  O   UNL     1      -0.497  -0.622   0.918  0.00  0.00    -0.277 OA
ATOM      3  N   UNL     1       0.585  -0.664  -1.018  0.00  0.00    -0.287 N 
ATOM      4  H   UNL     1       0.926  -0.173  -1.782  0.00  0.00    +0.155 HD
ENDROOT
BRANCH   3   5
ATOM      5  C   UNL     1       0.697  -2.059  -0.976  0.00  0.00    +0.033 A 
ATOM      6  C   UNL     1       1.808  -2.684  -1.525  0.00  0.00    +0.025 A 
ATOM      7  C   UNL     1       1.919  -4.060  -1.477  0.00  0.00    +0.030 A 
ATOM      8  C   UNL     1       0.919  -4.815  -0.892  0.00  0.00    +0.106 A 
ATOM      9  C   UNL     1      -0.192  -4.196  -0.349  0.00  0.00    +0.030 A 
ATOM     10  C   UNL     1      -0.305  -2.820  -0.389  0.00  0.00    +0.025 A 
BRANCH   8  11
ATOM     11  S   UNL     1       1.060  -6.571  -0.838  0.00  0.00    +0.061 S 
ATOM     12  O   UNL     1       2.447  -6.870  -0.926  0.00  0.00    -0.153 OA
ATOM     13  O   UNL     1       0.253  -7.010   0.246  0.00  0.00    -0.153 OA
BRANCH  11  14
ATOM     14  N   UNL     1       0.361  -7.161  -2.218  0.00  0.00    -0.177 NA
ATOM     15  C   UNL     1      -1.067  -7.505  -2.245  0.00  0.00    +0.109 C 
ATOM     16  C   UNL     1      -1.726  -6.764  -3.419  0.00  0.00    +0.017 C 
ATOM     17  C   UNL     1      -0.975  -7.096  -4.710  0.00  0.00    +0.003 C 
ATOM     18  C   UNL     1       0.475  -6.622  -4.595  0.00  0.00    +0.017 C 
ATOM     19  C   UNL     1       1.158  -7.356  -3.437  0.00  0.00    +0.109 C 
ENDBRANCH  11  14
ENDBRANCH   8  11
ENDBRANCH   3   5
BRANCH   1  21
ATOM     20  C   UNL     1       1.409   2.039  -0.012  0.00  0.00    -0.004 C 
ATOM     21  C   UNL     1      -0.024   1.503   0.007  0.00  0.00    +0.014 C 
BRANCH  21  22
ATOM     22  N   UNL     1      -0.709   1.971   1.226  0.00  0.00    +0.394 N 
ATOM     23  H   UNL     1      -0.035   2.010   2.000  0.00  0.00    -0.083 HD
ATOM     24  H   UNL     1      -1.464   1.317   1.463  0.00  0.00    -0.083 HD
BRANCH  22  25
ATOM     25  C   UNL     1      -1.279   3.314   1.010  0.00  0.00    -0.002 C 
BRANCH  25  26
ATOM     26  C   UNL     1      -1.413   4.015   2.337  0.00  0.00    -0.057 A 
ATOM     27  C   UNL     1      -1.839   3.313   3.450  0.00  0.00    +0.002 A 
ATOM     28  C   UNL     1      -1.957   3.954   4.668  0.00  0.00    +0.000 A 
ATOM     29  C   UNL     1      -1.658   5.300   4.773  0.00  0.00    +0.000 A 
ATOM     30  C   UNL     1      -1.237   6.003   3.660  0.00  0.00    +0.000 A 
ATOM     31  C   UNL     1      -1.115   5.361   2.442  0.00  0.00    +0.002 A 
ENDBRANCH  25  26
BRANCH  25  32
ATOM     32  C   UNL     1      -2.637   3.187   0.370  0.00  0.00    -0.020 A 
ATOM     33  C   UNL     1      -3.198   3.949  -0.601  0.00  0.00    +0.010 A 
ATOM     34  C   UNL     1      -4.471   3.641  -1.043  0.00  0.00    +0.008 A 
ATOM     35  C   UNL     1      -5.126   2.594  -0.484  0.00  0.00    +0.045 A 
ATOM     36  S   UNL     1      -3.929   2.000   0.700  0.00  0.00    -0.103 S 
ENDBRANCH  25  32
ENDBRANCH  22  25
ENDBRANCH  21  22
ENDBRANCH   1  21
TORSDOF 8
