REMARK  Name = ZINC19852405
REMARK  5 active torsions:
REMARK  status: ('A' for Active; 'I' for Inactive)
REMARK    1  A    between atoms: C_1  and  O_2
REMARK    2  A    between atoms: O_2  and  C_3
REMARK    3  A    between atoms: C_3  and  C_4
REMARK    4  A    between atoms: C_11  and  N_21
REMARK    5  A    between atoms: C_12  and  C_19
REMARK                            x       y       z     vdW  Elec       q    Type
REMARK                         _______ _______ _______ _____ _____    ______ ____
ROOT
ATOM      1  C   UNL     1       0.633  -2.085   1.012  0.00  0.00    +0.096 A 
ATOM      2  C   UNL     1      -0.359  -2.913   1.519  0.00  0.00    +0.051 A 
ATOM      3  C   UNL     1      -0.031  -4.204   1.211  0.00  0.00    +0.223 A 
ATOM      4  N   UNL     1       1.129  -4.178   0.536  0.00  0.00    -0.246 N 
ATOM      5  H   UNL     1       1.606  -4.949   0.189  0.00  0.00    +0.192 HD
ATOM      6  N   UNL     1       1.527  -2.837   0.416  0.00  0.00    -0.173 NA
ATOM      7  O   UNL     1      -0.804  -5.261   1.565  0.00  0.00    -0.423 OA
ATOM      8  C   UNL     1      -2.055  -5.001   1.996  0.00  0.00    +0.200 C 
ATOM      9  C   UNL     1      -2.493  -3.770   2.341  0.00  0.00    +0.097 C 
ATOM     10  C   UNL     1      -1.607  -2.550   2.283  0.00  0.00    +0.044 C 
ATOM     11  C   UNL     1      -1.232  -2.124   3.700  0.00  0.00    +0.028 C 
ATOM     12  C   UNL     1      -2.489  -2.050   4.571  0.00  0.00    +0.070 C 
ATOM     13  S   UNL     1      -3.596  -0.778   3.890  0.00  0.00    -0.161 S 
ATOM     14  C   UNL     1      -3.745  -1.256   2.143  0.00  0.00    +0.070 C 
ATOM     15  C   UNL     1      -2.340  -1.424   1.558  0.00  0.00    +0.028 C 
ENDROOT
BRANCH   8  16
ATOM     16  N   UNL     1      -2.937  -6.049   2.088  0.00  0.00    -0.328 N 
ATOM     17  H   UNL     1      -2.653  -6.945   1.846  0.00  0.00    +0.145 HD
ATOM     18  H   UNL     1      -3.845  -5.894   2.394  0.00  0.00    +0.145 HD
ENDBRANCH   8  16
BRANCH   9  19
ATOM     19  C   UNL     1      -3.848  -3.618   2.779  0.00  0.00    +0.101 C 
ATOM     20  N   UNL     1      -4.922  -3.497   3.127  0.00  0.00    -0.191 NA
ENDBRANCH   9  19
BRANCH   1  21
ATOM     21  C   UNL     1       0.673  -0.582   1.123  0.00  0.00    +0.217 C 
BRANCH  21  23
ATOM     22  C   UNL     1      -0.017   1.425   0.010  0.00  0.00    +0.194 C 
ATOM     23  O   UNL     1       0.002  -0.004   0.002  0.00  0.00    -0.377 OA
ENDBRANCH  21  23
ENDBRANCH   1  21
TORSDOF 4
