REMARK  Name = ZINC08694370
REMARK  9 active torsions:
REMARK  status: ('A' for Active; 'I' for Inactive)
REMARK    1  A    between atoms: C_5  and  C_7
REMARK    2  A    between atoms: C_7  and  N_8
REMARK    3  A    between atoms: N_8  and  C_9
REMARK    4  A    between atoms: C_9  and  C_11
REMARK    5  A    between atoms: C_9  and  C_18
REMARK    6  A    between atoms: N_20  and  C_21
REMARK    7  A    between atoms: C_24  and  N_27
REMARK    8  A    between atoms: C_33  and  C_35
REMARK    9  A    between atoms: C_35  and  N_36
REMARK                            x       y       z     vdW  Elec       q    Type
REMARK                         _______ _______ _______ _____ _____    ______ ____
ROOT
ATOM      1  N   UNL     1       0.441  -3.627  -2.242  0.00  0.00    -0.284 N 
ATOM      2  C   UNL     1       1.113  -2.658  -2.894  0.00  0.00    +0.234 C 
ATOM      3  O   UNL     1       1.152  -2.656  -4.106  0.00  0.00    -0.274 OA
ENDROOT
BRANCH   1   4
ATOM      4  C   UNL     1       0.278  -3.555  -0.788  0.00  0.00    +0.146 C 
BRANCH   4   9
ATOM      5  C   UNL     1      -3.314  -3.643   0.374  0.00  0.00    +0.000 A 
ATOM      6  C   UNL     1      -3.713  -2.340   0.140  0.00  0.00    +0.003 A 
ATOM      7  C   UNL     1      -2.822  -1.429  -0.394  0.00  0.00    +0.038 A 
ATOM      8  C   UNL     1      -1.527  -1.821  -0.691  0.00  0.00    +0.128 A 
ATOM      9  C   UNL     1      -1.130  -3.127  -0.461  0.00  0.00    +0.005 A 
ATOM     10  C   UNL     1      -2.023  -4.036   0.073  0.00  0.00    +0.008 A 
ATOM     11  F   UNL     1      -0.653  -0.929  -1.209  0.00  0.00    -0.205 F 
ENDBRANCH   4   9
ENDBRANCH   1   4
BRANCH   1  12
ATOM     12  C   UNL     1      -0.127  -4.753  -2.988  0.00  0.00    +0.166 C 
BRANCH  12  13
ATOM     13  C   UNL     1      -1.654  -4.686  -2.928  0.00  0.00    +0.023 C 
ATOM     14  C   UNL     1      -2.253  -5.876  -3.689  0.00  0.00    +0.010 C 
ATOM     15  C   UNL     1      -3.766  -5.883  -3.463  0.00  0.00    +0.027 C 
ATOM     16  C   UNL     1      -4.335  -4.519  -3.726  0.00  0.00    -0.031 C 
ATOM     17  C   UNL     1      -3.627  -3.436  -3.777  0.00  0.00    -0.031 C 
ATOM     18  C   UNL     1      -2.139  -3.394  -3.590  0.00  0.00    +0.032 C 
ENDBRANCH  12  13
BRANCH  12  19
ATOM     19  C   UNL     1       0.343  -6.048  -2.378  0.00  0.00    +0.238 C 
ATOM     20  O   UNL     1       0.750  -6.068  -1.236  0.00  0.00    -0.273 OA
ATOM     21  N   UNL     1       0.312  -7.185  -3.102  0.00  0.00    -0.284 N 
ATOM     22  H   UNL     1       0.055  -7.157  -4.037  0.00  0.00    +0.155 HD
BRANCH  21  23
ATOM     23  C   UNL     1       0.650  -8.406  -2.504  0.00  0.00    +0.034 A 
ATOM     24  C   UNL     1       0.354  -8.630  -1.166  0.00  0.00    +0.025 A 
ATOM     25  C   UNL     1       0.682  -9.835  -0.578  0.00  0.00    +0.025 A 
ATOM     26  C   UNL     1       1.319 -10.820  -1.321  0.00  0.00    +0.030 A 
ATOM     27  C   UNL     1       1.621 -10.594  -2.658  0.00  0.00    +0.025 A 
ATOM     28  C   UNL     1       1.287  -9.391  -3.248  0.00  0.00    +0.025 A 
BRANCH  26  29
ATOM     29  N   UNL     1       1.657 -12.038  -0.724  0.00  0.00    -0.326 N 
ATOM     30  C   UNL     1       1.067 -13.167  -1.458  0.00  0.00    +0.133 C 
ATOM     31  C   UNL     1       1.510 -14.480  -0.808  0.00  0.00    +0.178 C 
ATOM     32  O   UNL     1       1.132 -14.474   0.572  0.00  0.00    -0.377 OA
ATOM     33  C   UNL     1       1.690 -13.389   1.317  0.00  0.00    +0.178 C 
ATOM     34  C   UNL     1       1.249 -12.065   0.688  0.00  0.00    +0.133 C 
ENDBRANCH  26  29
ENDBRANCH  21  23
ENDBRANCH  12  19
ENDBRANCH   1  12
BRANCH   2  35
ATOM     35  C   UNL     1       1.818  -1.576  -2.116  0.00  0.00    +0.210 C 
BRANCH  35  36
ATOM     36  N   UNL     1       2.608  -0.751  -3.033  0.00  0.00    -0.255 N 
ATOM     37  C   UNL     1       2.127   0.388  -3.675  0.00  0.00    +0.048 A 
ATOM     38  C   UNL     1       0.885   1.008  -3.637  0.00  0.00    +0.024 A 
ATOM     39  C   UNL     1       0.656   2.151  -4.381  0.00  0.00    +0.002 A 
ATOM     40  C   UNL     1       1.656   2.692  -5.172  0.00  0.00    +0.001 A 
ATOM     41  C   UNL     1       2.897   2.091  -5.225  0.00  0.00    +0.014 A 
ATOM     42  C   UNL     1       3.139   0.939  -4.478  0.00  0.00    +0.048 A 
ATOM     43  C   UNL     1       4.324   0.075  -4.315  0.00  0.00    +0.250 C 
ATOM     44  O   UNL     1       5.411   0.203  -4.839  0.00  0.00    -0.282 OA
ATOM     45  C   UNL     1       3.888  -0.996  -3.360  0.00  0.00    +0.292 C 
ATOM     46  O   UNL     1       4.568  -1.917  -2.957  0.00  0.00    -0.266 OA
ENDBRANCH  35  36
ENDBRANCH   2  35
TORSDOF 9
