REMARK  Name = ZINC02249456
REMARK  8 active torsions:
REMARK  status: ('A' for Active; 'I' for Inactive)
REMARK    1  A    between atoms: C_1  and  C_2
REMARK    2  A    between atoms: C_2  and  C_3
REMARK    3  A    between atoms: C_2  and  C_4
REMARK    4  A    between atoms: C_4  and  O_5
REMARK    5  A    between atoms: O_5  and  C_6
REMARK    6  A    between atoms: C_6  and  C_8
REMARK    7  A    between atoms: N_19  and  C_22
REMARK    8  A    between atoms: C_20  and  N_21
REMARK                            x       y       z     vdW  Elec       q    Type
REMARK                         _______ _______ _______ _____ _____    ______ ____
ROOT
ATOM      1  C   UNL     1       3.432   2.312  -0.019  0.00  0.00    +0.126 A 
ATOM      2  C   UNL     1       2.386   1.275  -0.014  0.00  0.00    +0.124 A 
ATOM      3  C   UNL     1       1.116   2.006   0.002  0.00  0.00    +0.162 A 
ATOM      4  N   UNL     1      -0.016   1.335   0.009  0.00  0.00    -0.226 NA
ATOM      5  C   UNL     1       0.002  -0.004   0.002  0.00  0.00    +0.092 A 
ATOM      6  C   UNL     1      -1.204  -0.729   0.010  0.00  0.00    +0.030 A 
ATOM      7  C   UNL     1      -1.176  -2.090   0.002  0.00  0.00    +0.002 A 
ATOM      8  C   UNL     1       0.034  -2.782  -0.014  0.00  0.00    +0.002 A 
ATOM      9  C   UNL     1       1.220  -2.116  -0.022  0.00  0.00    +0.030 A 
ATOM     10  C   UNL     1       1.232  -0.708  -0.014  0.00  0.00    +0.090 A 
ATOM     11  N   UNL     1       2.393  -0.042  -0.022  0.00  0.00    -0.241 NA
ATOM     12  N   UNL     1       1.424   3.351   0.008  0.00  0.00    -0.309 N 
ATOM     13  C   UNL     1       2.772   3.537  -0.005  0.00  0.00    +0.114 A 
ENDROOT
BRANCH  12  14
ATOM     14  C   UNL     1       0.435   4.431   0.024  0.00  0.00    +0.090 C 
ATOM     15  C   UNL     1       0.611   5.302  -1.222  0.00  0.00    +0.025 C 
ATOM     16  C   UNL     1      -0.423   6.430  -1.206  0.00  0.00    +0.002 C 
ATOM     17  C   UNL     1      -0.223   7.286   0.047  0.00  0.00    +0.000 C 
ATOM     18  C   UNL     1      -0.399   6.415   1.293  0.00  0.00    +0.002 C 
ATOM     19  C   UNL     1       0.634   5.287   1.276  0.00  0.00    +0.025 C 
ENDBRANCH  12  14
BRANCH  13  20
ATOM     20  N   UNL     1       3.392   4.759  -0.004  0.00  0.00    -0.344 N 
ATOM     21  H   UNL     1       2.791   5.680   0.007  0.00  0.00    +0.144 HD
ATOM     22  H   UNL     1       4.490   4.818  -0.015  0.00  0.00    +0.144 HD
ENDBRANCH  13  20
BRANCH   1  23
ATOM     23  C   UNL     1       4.832   2.103  -0.034  0.00  0.00    +0.345 C 
ATOM     24  O   UNL     1       5.424   2.021  -1.094  0.00  0.00    -0.245 OA
BRANCH  23  25
ATOM     25  O   UNL     1       5.511   1.997   1.127  0.00  0.00    -0.461 OA
BRANCH  25  26
ATOM     26  C   UNL     1       6.922   1.787   1.037  0.00  0.00    +0.235 C 
BRANCH  26  28
ATOM     27  C   UNL     1       6.965   0.449   3.147  0.00  0.00    +0.010 C 
ATOM     28  C   UNL     1       7.514   1.692   2.445  0.00  0.00    +0.020 C 
ATOM     29  C   UNL     1       9.038   1.593   2.351  0.00  0.00    +0.010 C 
ENDBRANCH  26  28
ENDBRANCH  25  26
ENDBRANCH  23  25
ENDBRANCH   1  23
TORSDOF 6
