REMARK  Name = ZINC41798053
REMARK  8 active torsions:
REMARK  status: ('A' for Active; 'I' for Inactive)
REMARK    1  A    between atoms: C_1  and  C_2
REMARK    2  A    between atoms: C_2  and  C_3
REMARK    3  A    between atoms: C_2  and  C_4
REMARK    4  A    between atoms: C_2  and  N_21
REMARK    5  A    between atoms: C_4  and  N_5
REMARK    6  A    between atoms: C_6  and  C_8
REMARK    7  A    between atoms: C_11  and  N_13
REMARK    8  A    between atoms: C_14  and  C_16
REMARK                            x       y       z     vdW  Elec       q    Type
REMARK                         _______ _______ _______ _____ _____    ______ ____
ROOT
ATOM      1  N   UNL     1      -1.390  -1.964  -0.383  0.00  0.00    -0.312 N 
ATOM      2  C   UNL     1      -2.527  -2.627  -0.672  0.00  0.00    +0.251 C 
ATOM      3  O   UNL     1      -3.578  -2.020  -0.769  0.00  0.00    -0.270 OA
ATOM      4  H   UNL     1      -0.553  -2.447  -0.306  0.00  0.00    +0.149 HD
ENDROOT
BRANCH   2   5
ATOM      5  C   UNL     1      -2.498  -4.075  -0.869  0.00  0.00    +0.076 A 
ATOM      6  C   UNL     1      -3.545  -4.935  -1.175  0.00  0.00    +0.022 A 
ATOM      7  C   UNL     1      -3.215  -6.259  -1.302  0.00  0.00    +0.032 A 
ATOM      8  C   UNL     1      -1.903  -6.632  -1.120  0.00  0.00    +0.073 A 
ATOM      9  S   UNL     1      -1.110  -5.189  -0.786  0.00  0.00    -0.069 S 
BRANCH   8  10
ATOM     10  N   UNL     1      -1.359  -7.907  -1.201  0.00  0.00    -0.273 N 
ATOM     11  C   UNL     1      -0.041  -8.091  -0.992  0.00  0.00    +0.284 C 
ATOM     12  O   UNL     1       0.673  -7.140  -0.733  0.00  0.00    -0.266 OA
ATOM     13  H   UNL     1      -1.928  -8.665  -1.408  0.00  0.00    +0.156 HD
BRANCH  11  14
ATOM     14  C   UNL     1       0.534  -9.437  -1.077  0.00  0.00    +0.189 A 
ATOM     15  C   UNL     1       1.846  -9.763  -0.884  0.00  0.00    +0.054 A 
ATOM     16  C   UNL     1       1.947 -11.152  -1.062  0.00  0.00    +0.042 A 
ATOM     17  C   UNL     1       0.708 -11.607  -1.353  0.00  0.00    +0.196 A 
ATOM     18  O   UNL     1      -0.142 -10.571  -1.355  0.00  0.00    -0.458 OA
ENDBRANCH  11  14
ENDBRANCH   8  10
ENDBRANCH   2   5
BRANCH   1  19
ATOM     19  C   UNL     1      -1.419  -0.512  -0.186  0.00  0.00    +0.092 C 
BRANCH  19  21
ATOM     20  C   UNL     1       0.812  -0.206  -1.269  0.00  0.00    -0.008 C 
ATOM     21  C   UNL     1       0.008   0.003   0.015  0.00  0.00    -0.055 C 
ATOM     22  C   UNL     1      -0.032   1.495   0.354  0.00  0.00    -0.008 C 
BRANCH  21  23
ATOM     23  N   UNL     1       0.643  -0.732   1.117  0.00  0.00    +0.384 N 
ATOM     24  C   UNL     1      -0.155  -0.569   2.337  0.00  0.00    -0.078 C 
ATOM     25  C   UNL     1       0.459  -1.399   3.467  0.00  0.00    -0.019 C 
ATOM     26  C   UNL     1       1.891  -0.922   3.724  0.00  0.00    -0.004 C 
ATOM     27  C   UNL     1       2.695  -1.027   2.425  0.00  0.00    -0.019 C 
ATOM     28  C   UNL     1       1.998  -0.211   1.333  0.00  0.00    -0.078 C 
ATOM     29  H   UNL     1       0.695  -1.712   0.880  0.00  0.00    -0.081 HD
ENDBRANCH  21  23
ENDBRANCH  19  21
ENDBRANCH   1  19
TORSDOF 6
