REMARK  Name = ZINC38546633
REMARK  6 active torsions:
REMARK  status: ('A' for Active; 'I' for Inactive)
REMARK    1  A    between atoms: C_4  and  N_7
REMARK    2  A    between atoms: N_10  and  C_13
REMARK    3  A    between atoms: C_13  and  C_15
REMARK    4  A    between atoms: C_13  and  C_21
REMARK    5  A    between atoms: C_25  and  N_26
REMARK    6  A    between atoms: C_27  and  C_29
REMARK                            x       y       z     vdW  Elec       q    Type
REMARK                         _______ _______ _______ _____ _____    ______ ____
ROOT
ATOM      1  C   UNL     1       6.786  -2.596  -2.031  0.00  0.00    -0.003 C 
ENDROOT
BRANCH   1   2
ATOM      2  C   UNL     1       6.807  -4.077  -2.310  0.00  0.00    -0.025 A 
ATOM      3  C   UNL     1       6.469  -4.554  -3.576  0.00  0.00    -0.033 A 
ATOM      4  C   UNL     1       6.511  -5.902  -3.750  0.00  0.00    -0.005 A 
ATOM      5  S   UNL     1       7.018  -6.521  -2.168  0.00  0.00    -0.078 S 
ATOM      6  C   UNL     1       7.160  -4.950  -1.329  0.00  0.00    +0.074 A 
ATOM      7  C   UNL     1       6.198  -6.671  -4.993  0.00  0.00    +0.043 C 
ATOM      8  C   UNL     1       5.460  -5.737  -5.965  0.00  0.00    +0.005 C 
ATOM      9  C   UNL     1       6.221  -4.411  -6.044  0.00  0.00    +0.005 C 
ATOM     10  C   UNL     1       6.068  -3.641  -4.732  0.00  0.00    +0.036 C 
BRANCH   6  11
ATOM     11  N   UNL     1       7.535  -4.687  -0.010  0.00  0.00    -0.273 N 
ATOM     12  C   UNL     1       7.964  -5.690   0.781  0.00  0.00    +0.284 C 
ATOM     13  O   UNL     1       8.025  -6.825   0.346  0.00  0.00    -0.266 OA
ATOM     14  H   UNL     1       7.486  -3.783   0.337  0.00  0.00    +0.156 HD
BRANCH  12  15
ATOM     15  C   UNL     1       8.357  -5.415   2.167  0.00  0.00    +0.189 A 
ATOM     16  C   UNL     1       8.812  -6.333   3.069  0.00  0.00    +0.054 A 
ATOM     17  C   UNL     1       9.068  -5.635   4.260  0.00  0.00    +0.042 A 
ATOM     18  C   UNL     1       8.761  -4.338   4.035  0.00  0.00    +0.196 A 
ATOM     19  O   UNL     1       8.338  -4.209   2.771  0.00  0.00    -0.458 OA
ENDBRANCH  12  15
ENDBRANCH   6  11
ENDBRANCH   1   2
BRANCH   1  23
ATOM     20  N   UNL     1       3.913  -1.412   0.771  0.00  0.00    -0.333 N 
ATOM     21  C   UNL     1       5.151  -0.620   0.708  0.00  0.00    +0.086 C 
ATOM     22  C   UNL     1       5.835  -0.894  -0.635  0.00  0.00    -0.058 C 
ATOM     23  N   UNL     1       6.032  -2.341  -0.796  0.00  0.00    +0.389 N 
ATOM     24  C   UNL     1       4.731  -3.017  -0.870  0.00  0.00    -0.058 C 
ATOM     25  C   UNL     1       3.993  -2.849   0.467  0.00  0.00    +0.086 C 
ATOM     26  H   UNL     1       6.552  -2.698  -0.008  0.00  0.00    -0.080 HD
BRANCH  20  30
ATOM     27  C   UNL     1       0.288   0.359   1.800  0.00  0.00    +0.000 A 
ATOM     28  C   UNL     1       0.320  -0.964   1.398  0.00  0.00    +0.002 A 
ATOM     29  C   UNL     1       1.520  -1.554   1.056  0.00  0.00    +0.023 A 
ATOM     30  C   UNL     1       2.697  -0.818   1.116  0.00  0.00    +0.030 A 
ATOM     31  C   UNL     1       2.661   0.511   1.520  0.00  0.00    +0.023 A 
ATOM     32  C   UNL     1       1.457   1.095   1.861  0.00  0.00    +0.002 A 
ENDBRANCH  20  30
ENDBRANCH   1  23
BRANCH   1  33
ATOM     33  C   UNL     1       8.198  -2.095  -1.870  0.00  0.00    -0.038 A 
ATOM     34  C   UNL     1       8.938  -1.711  -2.978  0.00  0.00    +0.005 A 
ATOM     35  C   UNL     1      10.233  -1.257  -2.783  0.00  0.00    +0.020 A 
ATOM     36  C   UNL     1      10.741  -1.202  -1.498  0.00  0.00    +0.111 A 
ATOM     37  N   UNL     1      10.009  -1.576  -0.467  0.00  0.00    -0.263 NA
ATOM     38  C   UNL     1       8.771  -2.008  -0.615  0.00  0.00    +0.113 A 
ENDBRANCH   1  33
TORSDOF 6
