REMARK  Name = ZINC06768504
REMARK  4 active torsions:
REMARK  status: ('A' for Active; 'I' for Inactive)
REMARK    1  A    between atoms: C_3  and  C_6
REMARK    2  A    between atoms: C_9  and  C_24
REMARK    3  A    between atoms: C_13  and  N_15
REMARK    4  A    between atoms: N_15  and  C_16
REMARK                            x       y       z     vdW  Elec       q    Type
REMARK                         _______ _______ _______ _____ _____    ______ ____
ROOT
ATOM      1  C   UNL     1       3.678   1.651  -0.024  0.00  0.00    +0.096 C 
ATOM      2  N   UNL     1       4.133   2.878  -0.016  0.00  0.00    -0.227 NA
ATOM      3  C   UNL     1       5.476   2.934  -0.030  0.00  0.00    +0.171 A 
ATOM      4  C   UNL     1       6.553   3.835  -0.031  0.00  0.00    +0.115 A 
ATOM      5  C   UNL     1       7.737   3.068  -0.051  0.00  0.00    +0.155 A 
ATOM      6  N   UNL     1       7.411   1.804  -0.061  0.00  0.00    -0.175 NA
ATOM      7  N   UNL     1       6.021   1.686  -0.048  0.00  0.00    -0.222 N 
ATOM      8  C   UNL     1       4.892   0.744  -0.041  0.00  0.00    +0.227 C 
ENDROOT
BRANCH   1  11
ATOM      9  C   UNL     1      -0.016   1.352   0.009  0.00  0.00    +0.008 A 
ATOM     10  C   UNL     1       1.175   2.037   0.002  0.00  0.00    +0.017 A 
ATOM     11  C   UNL     1       2.321   1.250  -0.013  0.00  0.00    +0.037 A 
ATOM     12  S   UNL     1       1.636  -0.396  -0.016  0.00  0.00    -0.095 S 
ATOM     13  C   UNL     1       0.002  -0.004   0.002  0.00  0.00    +0.046 A 
ENDBRANCH   1  11
BRANCH   8  14
ATOM     14  N   UNL     1       4.903  -0.084  -1.254  0.00  0.00    -0.287 NA
ATOM     15  H   UNL     1       3.964  -0.286  -1.562  0.00  0.00    +0.125 HD
BRANCH  14  16
ATOM     16  C   UNL     1       5.666  -1.321  -1.040  0.00  0.00    +0.056 C 
ATOM     17  C   UNL     1       7.152  -1.054  -1.288  0.00  0.00    +0.019 C 
ATOM     18  C   UNL     1       7.981  -2.195  -0.695  0.00  0.00    +0.002 C 
ATOM     19  C   UNL     1       7.444  -2.548   0.694  0.00  0.00    +0.000 C 
ATOM     20  C   UNL     1       6.830  -3.949   0.663  0.00  0.00    +0.000 C 
ATOM     21  C   UNL     1       5.465  -3.891  -0.027  0.00  0.00    +0.000 C 
ATOM     22  C   UNL     1       5.663  -3.769  -1.539  0.00  0.00    +0.002 C 
ATOM     23  C   UNL     1       5.173  -2.398  -2.009  0.00  0.00    +0.019 C 
ENDBRANCH  14  16
ENDBRANCH   8  14
BRANCH   4  24
ATOM     24  C   UNL     1       6.467   5.265  -0.016  0.00  0.00    +0.104 C 
ATOM     25  N   UNL     1       6.398   6.398  -0.004  0.00  0.00    -0.191 NA
ENDBRANCH   4  24
TORSDOF 4
