REMARK  Name = ZINC02472545
REMARK  4 active torsions:
REMARK  status: ('A' for Active; 'I' for Inactive)
REMARK    1  A    between atoms: C_1  and  O_2
REMARK    2  A    between atoms: O_2  and  C_3
REMARK    3  A    between atoms: C_6  and  C_9
REMARK    4  A    between atoms: C_12  and  C_17
REMARK                            x       y       z     vdW  Elec       q    Type
REMARK                         _______ _______ _______ _____ _____    ______ ____
ROOT
ATOM      1  C   UNL     1      -4.981  -2.629   0.035  0.00  0.00    +0.162 C 
ATOM      2  C   UNL     1      -5.322  -3.054  -1.365  0.00  0.00    +0.028 C 
ATOM      3  C   UNL     1      -5.210  -4.324  -1.746  0.00  0.00    +0.038 C 
ATOM      4  N   UNL     1      -4.775  -5.284  -0.827  0.00  0.00    -0.293 N 
ATOM      5  C   UNL     1      -4.809  -4.994   0.518  0.00  0.00    +0.165 C 
ATOM      6  N   UNL     1      -4.911  -3.772   0.936  0.00  0.00    -0.250 NA
ATOM      7  S   UNL     1      -4.714  -6.306   1.690  0.00  0.00    -0.014 SA
ATOM      8  H   UNL     1      -4.453  -6.146  -1.135  0.00  0.00    +0.154 HD
ENDROOT
BRANCH   3   9
ATOM      9  C   UNL     1      -5.544  -4.718  -3.134  0.00  0.00    -0.004 A 
ATOM     10  C   UNL     1      -5.972  -3.757  -4.050  0.00  0.00    +0.011 A 
ATOM     11  C   UNL     1      -6.282  -4.129  -5.342  0.00  0.00    +0.016 A 
ATOM     12  C   UNL     1      -6.169  -5.454  -5.729  0.00  0.00    +0.018 A 
ATOM     13  C   UNL     1      -5.745  -6.411  -4.824  0.00  0.00    +0.016 A 
ATOM     14  C   UNL     1      -5.427  -6.049  -3.531  0.00  0.00    +0.011 A 
ATOM     15 BR   UNL     1      -6.596  -5.956  -7.502  0.00  0.00    -0.050 Br
ENDBRANCH   3   9
BRANCH   1  19
ATOM     16  C   UNL     1      -1.200  -0.637   0.010  0.00  0.00    +0.120 A 
ATOM     17  C   UNL     1      -2.375   0.101   0.019  0.00  0.00    +0.046 A 
ATOM     18  C   UNL     1      -3.596  -0.545   0.027  0.00  0.00    +0.009 A 
ATOM     19  C   UNL     1      -3.648  -1.927   0.026  0.00  0.00    -0.019 A 
ATOM     20  C   UNL     1      -2.479  -2.665   0.017  0.00  0.00    +0.009 A 
ATOM     21  C   UNL     1      -1.255  -2.024   0.003  0.00  0.00    +0.046 A 
BRANCH  16  23
ATOM     22  C   UNL     1      -0.017   1.425   0.010  0.00  0.00    +0.277 C 
ATOM     23  O   UNL     1       0.002  -0.004   0.002  0.00  0.00    -0.495 OA
ENDBRANCH  16  23
ENDBRANCH   1  19
TORSDOF 3
