REMARK  Name = ZINC33326929
REMARK  7 active torsions:
REMARK  status: ('A' for Active; 'I' for Inactive)
REMARK    1  A    between atoms: C_1  and  C_2
REMARK    2  A    between atoms: C_6  and  N_8
REMARK    3  A    between atoms: N_8  and  C_9
REMARK    4  A    between atoms: N_15  and  C_16
REMARK    5  A    between atoms: C_19  and  N_22
REMARK    6  A    between atoms: N_22  and  S_23
REMARK    7  A    between atoms: S_23  and  C_26
REMARK                            x       y       z     vdW  Elec       q    Type
REMARK                         _______ _______ _______ _____ _____    ______ ____
ROOT
ATOM      1  C   UNL     1      -1.534   1.359  -0.265  0.00  0.00    +0.086 C 
ATOM      2  C   UNL     1      -1.224  -0.115  -0.211  0.00  0.00    +0.107 A 
ATOM      3  N   UNL     1      -0.754  -0.709  -1.290  0.00  0.00    -0.332 N 
ATOM      4  C   UNL     1      -0.468  -2.009  -1.284  0.00  0.00    +0.105 A 
ATOM      5  C   UNL     1      -0.671  -2.740  -0.117  0.00  0.00    +0.085 A 
ATOM      6  C   UNL     1      -1.167  -2.075   1.000  0.00  0.00    +0.124 A 
ATOM      7  N   UNL     1      -1.424  -0.770   0.913  0.00  0.00    -0.220 NA
ATOM      8  N   UNL     1       0.025  -2.627  -2.424  0.00  0.00    -0.301 N 
ATOM      9  H   UNL     1       0.283  -2.092  -3.191  0.00  0.00    +0.154 HD
ATOM     10  H   UNL     1      -0.616  -0.192  -2.099  0.00  0.00    +0.168 HD
ENDROOT
BRANCH   8  11
ATOM     11  C   UNL     1       0.149  -4.021  -2.467  0.00  0.00    +0.032 A 
ATOM     12  C   UNL     1      -0.852  -4.824  -1.936  0.00  0.00    +0.025 A 
ATOM     13  C   UNL     1      -0.730  -6.199  -1.979  0.00  0.00    +0.028 A 
ATOM     14  C   UNL     1       0.394  -6.778  -2.554  0.00  0.00    +0.074 A 
ATOM     15  C   UNL     1       1.394  -5.975  -3.086  0.00  0.00    +0.028 A 
ATOM     16  C   UNL     1       1.270  -4.601  -3.047  0.00  0.00    +0.025 A 
BRANCH  14  17
ATOM     17  N   UNL     1       0.517  -8.172  -2.598  0.00  0.00    -0.097 NA
BRANCH  17  18
ATOM     18  S   UNL     1       1.857  -8.863  -3.283  0.00  0.00    +0.098 S 
ATOM     19  O   UNL     1       1.812  -8.549  -4.668  0.00  0.00    -0.148 OA
ATOM     20  O   UNL     1       2.961  -8.515  -2.459  0.00  0.00    -0.148 OA
BRANCH  18  21
ATOM     21  C   UNL     1       1.664 -10.610  -3.157  0.00  0.00    +0.148 A 
ATOM     22  C   UNL     1       1.090 -11.471  -4.032  0.00  0.00    +0.037 A 
ATOM     23  C   UNL     1       1.052 -12.817  -3.721  0.00  0.00    +0.010 A 
ATOM     24  C   UNL     1       1.590 -13.236  -2.549  0.00  0.00    +0.047 A 
ATOM     25  S   UNL     1       2.182 -11.706  -1.846  0.00  0.00    -0.077 S 
ENDBRANCH  18  21
ENDBRANCH  17  18
ENDBRANCH  14  17
ENDBRANCH   8  11
BRANCH   6  26
ATOM     26  N   UNL     1      -1.387  -2.758   2.186  0.00  0.00    -0.326 N 
ATOM     27  H   UNL     1      -1.734  -2.287   2.959  0.00  0.00    +0.148 HD
BRANCH  26  28
ATOM     28  C   UNL     1      -1.097  -4.191   2.270  0.00  0.00    +0.072 C 
ATOM     29  C   UNL     1       0.384  -4.393   2.599  0.00  0.00    +0.022 C 
ATOM     30  C   UNL     1       0.688  -5.890   2.687  0.00  0.00    +0.002 C 
ATOM     31  C   UNL     1      -0.170  -6.520   3.787  0.00  0.00    +0.000 C 
ATOM     32  C   UNL     1      -1.650  -6.319   3.457  0.00  0.00    +0.002 C 
ATOM     33  C   UNL     1      -1.954  -4.822   3.369  0.00  0.00    +0.022 C 
ENDBRANCH  26  28
ENDBRANCH   6  26
TORSDOF 6
