REMARK  Name = ZINC39466874
REMARK  7 active torsions:
REMARK  status: ('A' for Active; 'I' for Inactive)
REMARK    1  A    between atoms: C_1  and  C_2
REMARK    2  A    between atoms: C_2  and  O_3
REMARK    3  A    between atoms: O_3  and  C_4
REMARK    4  A    between atoms: P_13  and  C_29
REMARK    5  A    between atoms: C_21  and  C_22
REMARK    6  A    between atoms: C_27  and  O_28
REMARK    7  A    between atoms: C_29  and  C_30
REMARK                            x       y       z     vdW  Elec       q    Type
REMARK                         _______ _______ _______ _____ _____    ______ ____
ROOT
ATOM      1  C   UNL     1      -1.498  -1.848   0.006  0.00  0.00    +0.124 C 
ATOM      2  C   UNL     1      -0.433  -2.649  -0.003  0.00  0.00    +0.023 C 
ATOM      3  C   UNL     1      -0.624  -4.147   0.003  0.00  0.00    +0.019 C 
ATOM      4  C   UNL     1      -0.928  -4.607  -1.424  0.00  0.00    -0.002 C 
ATOM      5  C   UNL     1      -1.258  -6.104  -1.448  0.00  0.00    -0.020 C 
ATOM      6  C   UNL     1      -1.554  -6.477  -2.906  0.00  0.00    +0.156 C 
ATOM      7  O   UNL     1      -1.821  -7.888  -2.998  0.00  0.00    -0.319 OA
ATOM      8  P   UNL     1      -2.912  -8.519  -1.970  0.00  0.00    +0.262 P 
ATOM      9  O   UNL     1      -2.686  -9.973  -1.810  0.00  0.00    -0.274 OA
ATOM     10  N   UNL     1      -2.658  -7.739  -0.538  0.00  0.00    -0.291 NA
ATOM     11  N   UNL     1      -2.407  -6.384  -0.584  0.00  0.00    +0.397 N 
ATOM     12  C   UNL     1      -2.116  -5.981   0.801  0.00  0.00    -0.046 C 
ATOM     13  C   UNL     1      -1.813  -4.491   0.905  0.00  0.00    +0.005 C 
ATOM     14  C   UNL     1      -3.018  -3.700   0.469  0.00  0.00    -0.013 C 
ATOM     15  C   UNL     1      -2.858  -2.438   0.016  0.00  0.00    +0.023 C 
ATOM     16  H   UNL     1      -2.688  -8.218   0.306  0.00  0.00    +0.111 HD
ATOM     17  H   UNL     1      -3.220  -5.896  -0.930  0.00  0.00    -0.055 HD
ENDROOT
BRANCH  15  18
ATOM     18  C   UNL     1      -4.023  -1.643  -0.441  0.00  0.00    +0.027 A 
ATOM     19  C   UNL     1      -4.919  -1.116   0.488  0.00  0.00    +0.012 A 
ATOM     20  C   UNL     1      -6.002  -0.377   0.057  0.00  0.00    +0.001 A 
ATOM     21  C   UNL     1      -6.202  -0.157  -1.294  0.00  0.00    +0.004 A 
ATOM     22  C   UNL     1      -5.321  -0.675  -2.224  0.00  0.00    +0.046 A 
ATOM     23  C   UNL     1      -4.226  -1.414  -1.805  0.00  0.00    +0.125 A 
BRANCH  23  24
ATOM     24  O   UNL     1      -3.355  -1.919  -2.718  0.00  0.00    -0.506 OA
ATOM     25  H   UNL     1      -3.586  -2.803  -3.034  0.00  0.00    +0.292 HD
ENDBRANCH  23  24
ENDBRANCH  15  18
BRANCH   1  26
ATOM     26  O   UNL     1      -1.339  -0.499   0.012  0.00  0.00    -0.492 OA
BRANCH  26  28
ATOM     27  C   UNL     1      -0.019   1.526   0.010  0.00  0.00    +0.048 C 
ATOM     28  C   UNL     1       0.002  -0.004   0.002  0.00  0.00    +0.225 C 
ENDBRANCH  26  28
ENDBRANCH   1  26
BRANCH   8  29
ATOM     29  C   UNL     1      -4.604  -8.206  -2.573  0.00  0.00    +0.147 C 
BRANCH  29  30
ATOM     30  C   UNL     1      -4.779  -8.842  -3.928  0.00  0.00    -0.037 A 
ATOM     31  C   UNL     1      -4.481  -8.125  -5.072  0.00  0.00    +0.004 A 
ATOM     32  C   UNL     1      -4.643  -8.708  -6.315  0.00  0.00    +0.000 A 
ATOM     33  C   UNL     1      -5.101 -10.009  -6.414  0.00  0.00    +0.000 A 
ATOM     34  C   UNL     1      -5.398 -10.726  -5.270  0.00  0.00    +0.000 A 
ATOM     35  C   UNL     1      -5.233 -10.144  -4.027  0.00  0.00    +0.004 A 
ENDBRANCH  29  30
ENDBRANCH   8  29
TORSDOF 6
