REMARK  Name = ZINC21526062
REMARK  14 active torsions:
REMARK  status: ('A' for Active; 'I' for Inactive)
REMARK    1  A    between atoms: C_1  and  C_2
REMARK    2  A    between atoms: C_2  and  C_3
REMARK    3  A    between atoms: C_3  and  N_4
REMARK    4  A    between atoms: N_4  and  C_5
REMARK    5  A    between atoms: N_4  and  C_8
REMARK    6  A    between atoms: C_5  and  C_6
REMARK    7  A    between atoms: C_6  and  C_7
REMARK    8  A    between atoms: C_8  and  C_9
REMARK    9  A    between atoms: C_9  and  N_10
REMARK   10  A    between atoms: C_19  and  C_20
REMARK   11  A    between atoms: C_19  and  C_21
REMARK   12  A    between atoms: N_23  and  C_24
REMARK   13  A    between atoms: C_31  and  C_33
REMARK   14  A    between atoms: C_33  and  C_34
REMARK                            x       y       z     vdW  Elec       q    Type
REMARK                         _______ _______ _______ _____ _____    ______ ____
ROOT
ATOM      1  N   UNL     1      -1.135   0.504  -1.069  0.00  0.00    -0.282 N 
ATOM      2  C   UNL     1      -0.966   1.556  -1.903  0.00  0.00    +0.264 C 
ATOM      3  O   UNL     1      -0.002   2.295  -1.819  0.00  0.00    -0.268 OA
ATOM      4  C   UNL     1      -2.010   1.757  -2.916  0.00  0.00    +0.106 A 
ATOM      5  C   UNL     1      -2.053   2.595  -3.991  0.00  0.00    +0.048 A 
ATOM      6  C   UNL     1      -3.266   2.376  -4.632  0.00  0.00    +0.038 A 
ATOM      7  C   UNL     1      -3.990   1.390  -3.943  0.00  0.00    +0.057 A 
ATOM      8  N   UNL     1      -3.192   1.026  -2.874  0.00  0.00    -0.333 N 
ATOM      9  C   UNL     1      -3.464   0.055  -1.812  0.00  0.00    +0.157 C 
ATOM     10  C   UNL     1      -2.137  -0.526  -1.315  0.00  0.00    +0.128 C 
ATOM     11  C   UNL     1      -2.388  -1.292  -0.015  0.00  0.00    +0.043 C 
ATOM     12  C   UNL     1      -5.240   1.064  -4.488  0.00  0.00    +0.037 A 
ATOM     13  C   UNL     1      -5.679   1.687  -5.602  0.00  0.00    -0.008 A 
ATOM     14  S   UNL     1      -4.338   2.802  -5.981  0.00  0.00    -0.092 S 
ENDROOT
BRANCH  10  15
ATOM     15  C   UNL     1      -1.603  -1.487  -2.347  0.00  0.00    +0.238 C 
ATOM     16  O   UNL     1      -1.878  -2.666  -2.277  0.00  0.00    -0.273 OA
ATOM     17  N   UNL     1      -0.822  -1.036  -3.347  0.00  0.00    -0.311 N 
ATOM     18  H   UNL     1      -0.573   0.034  -3.411  0.00  0.00    +0.149 HD
BRANCH  17  19
ATOM     19  C   UNL     1      -0.303  -1.969  -4.350  0.00  0.00    +0.073 C 
ATOM     20  C   UNL     1       0.984  -2.612  -3.831  0.00  0.00    +0.022 C 
ATOM     21  C   UNL     1       1.525  -3.588  -4.879  0.00  0.00    +0.002 C 
ATOM     22  C   UNL     1       1.820  -2.831  -6.176  0.00  0.00    +0.000 C 
ATOM     23  C   UNL     1       0.532  -2.188  -6.695  0.00  0.00    +0.002 C 
ATOM     24  C   UNL     1      -0.009  -1.213  -5.647  0.00  0.00    +0.022 C 
ENDBRANCH  17  19
ENDBRANCH  10  15
BRANCH  13  25
ATOM     25  C   UNL     1      -6.977   1.489  -6.343  0.00  0.00    +0.039 C 
ATOM     26  C   UNL     1      -8.034   2.441  -5.780  0.00  0.00    +0.009 C 
ENDBRANCH  13  25
BRANCH   1  27
ATOM     27  C   UNL     1      -0.280   0.393   0.116  0.00  0.00    +0.091 C 
BRANCH  27  28
ATOM     28  C   UNL     1      -0.942   1.114   1.292  0.00  0.00    -0.060 C 
BRANCH  28  29
ATOM     29  N   UNL     1      -0.085   1.004   2.479  0.00  0.00    +0.381 N 
ATOM     30  H   UNL     1       0.158  -0.060   2.623  0.00  0.00    -0.082 HD
BRANCH  29  31
ATOM     31  C   UNL     1       1.177   1.732   2.288  0.00  0.00    -0.079 C 
BRANCH  31  33
ATOM     32  C   UNL     1       2.190   3.969   1.827  0.00  0.00    +0.002 C 
ATOM     33  C   UNL     1       0.879   3.216   2.061  0.00  0.00    -0.022 C 
ENDBRANCH  31  33
ENDBRANCH  29  31
BRANCH  29  34
ATOM     34  C   UNL     1      -0.787   1.473   3.681  0.00  0.00    -0.079 C 
BRANCH  34  35
ATOM     35  C   UNL     1      -0.042   0.993   4.928  0.00  0.00    -0.022 C 
ATOM     36  C   UNL     1      -0.773   1.482   6.180  0.00  0.00    +0.002 C 
ENDBRANCH  34  35
ENDBRANCH  29  34
ENDBRANCH  28  29
ENDBRANCH  27  28
ENDBRANCH   1  27
TORSDOF 10
