REMARK  Name = ZINC60366343
REMARK  8 active torsions:
REMARK  status: ('A' for Active; 'I' for Inactive)
REMARK    1  A    between atoms: C_5  and  C_7
REMARK    2  A    between atoms: C_7  and  O_8
REMARK    3  A    between atoms: O_8  and  C_9
REMARK    4  A    between atoms: C_14  and  C_15
REMARK    5  A    between atoms: N_17  and  C_18
REMARK    6  A    between atoms: C_18  and  C_19
REMARK    7  A    between atoms: C_19  and  C_20
REMARK    8  A    between atoms: C_24  and  C_26
REMARK                            x       y       z     vdW  Elec       q    Type
REMARK                         _______ _______ _______ _____ _____    ______ ____
ROOT
ATOM      1  C   UNL     1      -2.745  -3.708   0.008  0.00  0.00    +0.248 C 
ATOM      2  O   UNL     1      -2.609  -2.500   0.014  0.00  0.00    -0.270 OA
ATOM      3  N   UNL     1      -3.980  -4.248   0.017  0.00  0.00    -0.311 N 
ATOM      4  H   UNL     1      -4.088  -5.212   0.013  0.00  0.00    +0.149 HD
ENDROOT
BRANCH   1  10
ATOM      5  C   UNL     1      -0.272  -4.028  -0.018  0.00  0.00    +0.133 A 
ATOM      6  C   UNL     1       0.838  -4.861  -0.028  0.00  0.00    +0.046 A 
ATOM      7  C   UNL     1       0.673  -6.231  -0.035  0.00  0.00    +0.004 A 
ATOM      8  C   UNL     1      -0.596  -6.785  -0.032  0.00  0.00    +0.001 A 
ATOM      9  C   UNL     1      -1.709  -5.973  -0.021  0.00  0.00    +0.017 A 
ATOM     10  C   UNL     1      -1.558  -4.584  -0.009  0.00  0.00    +0.078 A 
BRANCH   5  11
ATOM     11  O   UNL     1      -0.112  -2.680  -0.012  0.00  0.00    -0.487 OA
BRANCH  11  12
ATOM     12  C   UNL     1       1.229  -2.186  -0.022  0.00  0.00    +0.265 C 
BRANCH  12  17
ATOM     13  C   UNL     1      -0.017   1.378   0.010  0.00  0.00    +0.000 A 
ATOM     14  C   UNL     1       1.171   2.086   0.002  0.00  0.00    +0.001 A 
ATOM     15  C   UNL     1       2.377   1.412  -0.013  0.00  0.00    +0.015 A 
ATOM     16  C   UNL     1       2.397   0.029  -0.021  0.00  0.00    +0.024 A 
ATOM     17  C   UNL     1       1.208  -0.679  -0.013  0.00  0.00    +0.004 A 
ATOM     18  C   UNL     1       0.002  -0.004   0.002  0.00  0.00    +0.008 A 
ATOM     19 BR   UNL     1       4.047  -0.894  -0.042  0.00  0.00    -0.050 Br
ENDBRANCH  12  17
ENDBRANCH  11  12
ENDBRANCH   5  11
ENDBRANCH   1  10
BRANCH   3  20
ATOM     20  C   UNL     1      -5.159  -3.378   0.034  0.00  0.00    +0.109 C 
BRANCH  20  21
ATOM     21  C   UNL     1      -6.426  -4.236   0.041  0.00  0.00    +0.054 C 
BRANCH  21  22
ATOM     22  C   UNL     1      -7.638  -3.342   0.058  0.00  0.00    -0.045 A 
ATOM     23  C   UNL     1      -8.179  -2.934   1.265  0.00  0.00    +0.004 A 
ATOM     24  C   UNL     1      -9.291  -2.113   1.289  0.00  0.00    +0.001 A 
ATOM     25  C   UNL     1      -9.870  -1.694   0.109  0.00  0.00    +0.013 A 
ATOM     26  C   UNL     1      -9.330  -2.102  -1.112  0.00  0.00    +0.037 A 
ATOM     27  C   UNL     1      -8.204  -2.926  -1.130  0.00  0.00    +0.016 A 
BRANCH  26  28
ATOM     28  C   UNL     1      -9.945  -1.658  -2.381  0.00  0.00    +0.242 C 
ATOM     29  O   UNL     1      -9.473  -2.015  -3.443  0.00  0.00    -0.270 OA
ATOM     30  N   UNL     1     -11.030  -0.859  -2.361  0.00  0.00    -0.325 N 
ATOM     31  H   UNL     1     -11.407  -0.574  -1.513  0.00  0.00    +0.145 HD
ATOM     32  H   UNL     1     -11.434  -0.567  -3.193  0.00  0.00    +0.145 HD
ENDBRANCH  26  28
ENDBRANCH  21  22
ENDBRANCH  20  21
ENDBRANCH   3  20
TORSDOF 8
