REMARK  Name = ZINC64952328
REMARK  8 active torsions:
REMARK  status: ('A' for Active; 'I' for Inactive)
REMARK    1  A    between atoms: C_1  and  C_2
REMARK    2  A    between atoms: C_12  and  S_15
REMARK    3  A    between atoms: S_15  and  N_18
REMARK    4  A    between atoms: N_18  and  C_19
REMARK    5  A    between atoms: C_19  and  C_20
REMARK    6  A    between atoms: N_23  and  C_26
REMARK    7  A    between atoms: C_26  and  C_27
REMARK    8  A    between atoms: C_27  and  C_28
REMARK                            x       y       z     vdW  Elec       q    Type
REMARK                         _______ _______ _______ _____ _____    ______ ____
ROOT
ATOM      1  S   UNL     1      -4.617   1.948   2.724  0.00  0.00    +0.058 S 
ATOM      2  O   UNL     1      -6.036   1.980   2.662  0.00  0.00    -0.153 OA
ATOM      3  O   UNL     1      -3.915   1.317   3.786  0.00  0.00    -0.153 OA
ENDROOT
BRANCH   1  15
ATOM      4  C   UNL     1      -0.018   1.503   0.010  0.00  0.00    +0.109 C 
ATOM      5  C   UNL     1       0.002  -0.004   0.002  0.00  0.00    +0.217 C 
ATOM      6  O   UNL     1       1.061  -0.596  -0.011  0.00  0.00    -0.276 OA
ATOM      7  N   UNL     1      -1.156  -0.694   0.009  0.00  0.00    -0.270 N 
ATOM      8  C   UNL     1      -1.157  -2.166   0.008  0.00  0.00    +0.114 C 
ATOM      9  C   UNL     1      -1.166  -2.709  -1.397  0.00  0.00    +0.030 C 
ATOM     10  C   UNL     1      -2.436  -2.447  -2.189  0.00  0.00    +0.076 C 
ATOM     11  S   UNL     1      -2.561  -0.685  -2.611  0.00  0.00    -0.123 S 
ATOM     12  C   UNL     1      -3.192   0.033  -1.111  0.00  0.00    +0.029 A 
ATOM     13  C   UNL     1      -2.386  -0.028   0.025  0.00  0.00    +0.051 A 
ATOM     14  C   UNL     1      -2.827   0.574   1.198  0.00  0.00    +0.053 A 
ATOM     15  C   UNL     1      -4.065   1.188   1.233  0.00  0.00    +0.107 A 
ATOM     16  C   UNL     1      -4.875   1.212   0.113  0.00  0.00    +0.030 A 
ATOM     17  C   UNL     1      -4.434   0.631  -1.081  0.00  0.00    +0.018 A 
ENDBRANCH   1  15
BRANCH   1  18
ATOM     18  N   UNL     1      -4.107   3.523   2.688  0.00  0.00    -0.190 NA
ATOM     19  H   UNL     1      -3.459   3.838   3.338  0.00  0.00    +0.148 HD
BRANCH  18  20
ATOM     20  C   UNL     1      -4.633   4.441   1.675  0.00  0.00    +0.109 C 
BRANCH  20  21
ATOM     21  C   UNL     1      -4.309   5.882   2.075  0.00  0.00    +0.001 C 
ATOM     22  C   UNL     1      -5.061   6.238   3.361  0.00  0.00    -0.014 C 
ATOM     23  C   UNL     1      -4.795   7.704   3.711  0.00  0.00    -0.079 C 
ATOM     24  N   UNL     1      -5.261   8.564   2.617  0.00  0.00    +0.380 N 
ATOM     25  C   UNL     1      -4.494   8.278   1.398  0.00  0.00    -0.079 C 
ATOM     26  C   UNL     1      -4.748   6.834   0.959  0.00  0.00    -0.014 C 
ATOM     27  H   UNL     1      -6.240   8.390   2.446  0.00  0.00    -0.082 HD
BRANCH  24  28
ATOM     28  C   UNL     1      -5.075   9.973   2.990  0.00  0.00    -0.074 C 
BRANCH  28  29
ATOM     29  C   UNL     1      -5.673  10.871   1.906  0.00  0.00    +0.024 C 
BRANCH  29  30
ATOM     30  C   UNL     1      -5.482  12.316   2.289  0.00  0.00    -0.012 A 
ATOM     31  C   UNL     1      -4.451  13.147   2.000  0.00  0.00    +0.011 A 
ATOM     32  C   UNL     1      -4.490  14.449   2.461  0.00  0.00    +0.008 A 
ATOM     33  C   UNL     1      -5.559  14.857   3.189  0.00  0.00    +0.045 A 
ATOM     34  S   UNL     1      -6.560  13.380   3.234  0.00  0.00    -0.102 S 
ENDBRANCH  29  30
ENDBRANCH  28  29
ENDBRANCH  24  28
ENDBRANCH  20  21
ENDBRANCH  18  20
ENDBRANCH   1  18
TORSDOF 7
