REMARK  Name = ZINC02699071
REMARK  3 active torsions:
REMARK  status: ('A' for Active; 'I' for Inactive)
REMARK    1  A    between atoms: C_11  and  C_13
REMARK    2  A    between atoms: C_13  and  N_14
REMARK    3  A    between atoms: N_24  and  C_27
REMARK                            x       y       z     vdW  Elec       q    Type
REMARK                         _______ _______ _______ _____ _____    ______ ____
ROOT
ATOM      1  N   UNL     1       2.331   3.873  -0.001  0.00  0.00    -0.243 N 
ATOM      2  C   UNL     1       1.149   3.149  -0.029  0.00  0.00    +0.065 A 
ATOM      3  C   UNL     1       1.153   1.759  -0.066  0.00  0.00    +0.025 A 
ATOM      4  C   UNL     1      -0.041   1.068  -0.093  0.00  0.00    +0.002 A 
ATOM      5  C   UNL     1      -1.251   1.739  -0.089  0.00  0.00    +0.002 A 
ATOM      6  C   UNL     1      -1.268   3.126  -0.046  0.00  0.00    +0.031 A 
ATOM      7  C   UNL     1      -0.084   3.805  -0.020  0.00  0.00    +0.131 A 
ATOM      8  S   UNL     1       0.006   5.577   0.028  0.00  0.00    +0.084 S 
ATOM      9  O   UNL     1      -0.561   5.957   1.274  0.00  0.00    -0.149 OA
ATOM     10  O   UNL     1      -0.541   6.022  -1.206  0.00  0.00    -0.149 OA
ATOM     11  N   UNL     1       1.588   6.144   0.055  0.00  0.00    -0.123 N 
ATOM     12  C   UNL     1       2.538   5.180   0.036  0.00  0.00    +0.333 C 
ATOM     13  O   UNL     1       3.696   5.551   0.056  0.00  0.00    -0.250 OA
ENDROOT
BRANCH  11  14
ATOM     14  C   UNL     1       1.899   7.509   0.095  0.00  0.00    +0.061 A 
ATOM     15  C   UNL     1       0.985   8.415   0.616  0.00  0.00    +0.027 A 
ATOM     16  C   UNL     1       1.296   9.760   0.658  0.00  0.00    +0.022 A 
ATOM     17  C   UNL     1       2.513  10.206   0.173  0.00  0.00    +0.041 A 
ATOM     18  C   UNL     1       3.423   9.305  -0.351  0.00  0.00    +0.022 A 
ATOM     19  C   UNL     1       3.119   7.958  -0.391  0.00  0.00    +0.027 A 
ATOM     20 CL   UNL     1       2.897  11.898   0.221  0.00  0.00    -0.084 Cl
ENDBRANCH  11  14
BRANCH   1  21
ATOM     21  C   UNL     1       3.550   3.060  -0.013  0.00  0.00    +0.211 C 
BRANCH  21  32
ATOM     22  C   UNL     1       6.059   1.100  -5.625  0.00  0.00    +0.000 A 
ATOM     23  C   UNL     1       4.851   1.718  -5.357  0.00  0.00    +0.002 A 
ATOM     24  C   UNL     1       4.484   1.974  -4.051  0.00  0.00    +0.024 A 
ATOM     25  C   UNL     1       5.325   1.607  -3.007  0.00  0.00    +0.039 A 
ATOM     26  C   UNL     1       6.537   0.990  -3.276  0.00  0.00    -0.026 A 
ATOM     27  C   UNL     1       6.898   0.738  -4.590  0.00  0.00    +0.005 A 
ATOM     28  C   UNL     1       7.474   0.579  -2.172  0.00  0.00    +0.038 C 
ATOM     29  C   UNL     1       7.172   1.363  -0.894  0.00  0.00    +0.024 C 
ATOM     30  C   UNL     1       5.674   1.248  -0.586  0.00  0.00    +0.114 C 
ATOM     31  N   UNL     1       4.939   1.883  -1.688  0.00  0.00    -0.270 N 
ATOM     32  C   UNL     1       3.907   2.713  -1.436  0.00  0.00    +0.238 C 
ATOM     33  O   UNL     1       3.266   3.180  -2.353  0.00  0.00    -0.274 OA
ENDBRANCH  21  32
ENDBRANCH   1  21
TORSDOF 3
