REMARK  Name = ZINC02707393
REMARK  9 active torsions:
REMARK  status: ('A' for Active; 'I' for Inactive)
REMARK    1  A    between atoms: C_1  and  C_2
REMARK    2  A    between atoms: C_2  and  O_3
REMARK    3  A    between atoms: O_3  and  C_4
REMARK    4  A    between atoms: C_9  and  C_10
REMARK    5  A    between atoms: C_21  and  C_23
REMARK    6  A    between atoms: C_26  and  O_31
REMARK    7  A    between atoms: C_27  and  O_29
REMARK    8  A    between atoms: O_29  and  C_30
REMARK    9  A    between atoms: O_31  and  C_32
REMARK                            x       y       z     vdW  Elec       q    Type
REMARK                         _______ _______ _______ _____ _____    ______ ____
ROOT
ATOM      1  C   UNL     1       2.259  -1.582   3.756  0.00  0.00    +0.176 C 
ATOM      2  C   UNL     1       1.416  -1.799   4.988  0.00  0.00    +0.025 C 
ATOM      3  C   UNL     1       1.862  -2.462   6.054  0.00  0.00    +0.050 C 
ATOM      4  C   UNL     1       0.946  -2.653   7.203  0.00  0.00    +0.038 A 
ATOM      5  C   UNL     1       1.427  -3.045   8.451  0.00  0.00    +0.013 A 
ATOM      6  C   UNL     1       0.539  -3.215   9.495  0.00  0.00    +0.001 A 
ATOM      7  C   UNL     1      -0.815  -3.004   9.302  0.00  0.00    +0.004 A 
ATOM      8  C   UNL     1      -1.296  -2.620   8.063  0.00  0.00    +0.046 A 
ATOM      9  C   UNL     1      -0.418  -2.445   7.010  0.00  0.00    +0.131 A 
ATOM     10  O   UNL     1      -0.851  -2.067   5.780  0.00  0.00    -0.479 OA
ATOM     11  C   UNL     1       0.015  -1.231   5.014  0.00  0.00    +0.234 C 
ATOM     12  N   UNL     1       3.157  -2.989   6.114  0.00  0.00    -0.283 N 
ATOM     13  C   UNL     1       4.060  -2.572   5.149  0.00  0.00    +0.219 A 
ATOM     14  N   UNL     1       3.652  -1.905   4.040  0.00  0.00    -0.221 N 
ATOM     15  N   UNL     1       4.802  -1.629   3.300  0.00  0.00    -0.156 NA
ATOM     16  C   UNL     1       5.811  -2.129   3.969  0.00  0.00    +0.247 A 
ATOM     17  N   UNL     1       5.357  -2.701   5.089  0.00  0.00    -0.201 NA
ATOM     18  H   UNL     1       3.413  -3.621   6.805  0.00  0.00    +0.155 HD
ENDROOT
BRANCH   1  24
ATOM     19  C   UNL     1       1.301  -1.906   1.462  0.00  0.00    +0.126 A 
ATOM     20  C   UNL     1       0.845  -2.725   0.439  0.00  0.00    +0.046 A 
ATOM     21  C   UNL     1       0.842  -4.096   0.603  0.00  0.00    +0.004 A 
ATOM     22  C   UNL     1       1.294  -4.654   1.785  0.00  0.00    +0.001 A 
ATOM     23  C   UNL     1       1.749  -3.840   2.806  0.00  0.00    +0.009 A 
ATOM     24  C   UNL     1       1.758  -2.468   2.645  0.00  0.00    +0.023 A 
BRANCH  19  25
ATOM     25  O   UNL     1       1.304  -0.556   1.304  0.00  0.00    -0.492 OA
BRANCH  25  27
ATOM     26  C   UNL     1       0.904   1.479   0.064  0.00  0.00    +0.048 C 
ATOM     27  C   UNL     1       0.825  -0.049   0.057  0.00  0.00    +0.225 C 
ENDBRANCH  25  27
ENDBRANCH  19  25
ENDBRANCH   1  24
BRANCH  11  28
ATOM     28  C   UNL     1       0.049   0.145   5.628  0.00  0.00    +0.001 A 
ATOM     29  C   UNL     1       0.182   0.286   6.997  0.00  0.00    +0.011 A 
ATOM     30  C   UNL     1       0.219   1.546   7.564  0.00  0.00    +0.050 A 
ATOM     31  C   UNL     1       0.110   2.671   6.762  0.00  0.00    +0.162 A 
ATOM     32  C   UNL     1      -0.030   2.529   5.385  0.00  0.00    +0.162 A 
ATOM     33  C   UNL     1      -0.060   1.263   4.822  0.00  0.00    +0.057 A 
BRANCH  32  34
ATOM     34  O   UNL     1      -0.136   3.629   4.593  0.00  0.00    -0.491 OA
ATOM     35  C   UNL     1      -0.277   3.407   3.189  0.00  0.00    +0.277 C 
ENDBRANCH  32  34
BRANCH  31  36
ATOM     36  O   UNL     1       0.140   3.911   7.319  0.00  0.00    -0.491 OA
ATOM     37  C   UNL     1       0.287   3.981   8.739  0.00  0.00    +0.277 C 
ENDBRANCH  31  36
ENDBRANCH  11  28
TORSDOF 6
