REMARK  Name = ZINC54642140
REMARK  11 active torsions:
REMARK  status: ('A' for Active; 'I' for Inactive)
REMARK    1  A    between atoms: C_1  and  C_2
REMARK    2  A    between atoms: C_2  and  C_3
REMARK    3  A    between atoms: C_6  and  C_9
REMARK    4  A    between atoms: C_11  and  C_29
REMARK    5  A    between atoms: C_12  and  C_28
REMARK    6  A    between atoms: C_17  and  S_19
REMARK    7  A    between atoms: S_19  and  C_20
REMARK    8  A    between atoms: C_20  and  C_21
REMARK    9  A    between atoms: N_31  and  C_32
REMARK   10  A    between atoms: C_36  and  C_39
REMARK   11  A    between atoms: C_37  and  C_38
REMARK                            x       y       z     vdW  Elec       q    Type
REMARK                         _______ _______ _______ _____ _____    ______ ____
ROOT
ATOM      1  C   UNL     1       2.922  -1.928   4.688  0.00  0.00    +0.177 C 
ATOM      2  C   UNL     1       2.330  -3.262   5.058  0.00  0.00    +0.060 C 
ATOM      3  C   UNL     1       1.546  -3.443   6.130  0.00  0.00    +0.018 C 
ATOM      4  N   UNL     1       1.231  -2.417   6.987  0.00  0.00    -0.287 N 
ATOM      5  C   UNL     1       1.956  -1.239   6.869  0.00  0.00    +0.219 A 
ATOM      6  N   UNL     1       2.755  -0.997   5.801  0.00  0.00    -0.220 N 
ATOM      7  N   UNL     1       3.329   0.257   6.008  0.00  0.00    -0.141 NA
ATOM      8  C   UNL     1       2.860   0.703   7.154  0.00  0.00    +0.211 A 
ATOM      9  N   UNL     1       2.026  -0.211   7.670  0.00  0.00    -0.187 NA
ATOM     10  C   UNL     1       0.992  -4.817   6.404  0.00  0.00    +0.061 C 
ATOM     11  H   UNL     1       0.529  -2.512   7.650  0.00  0.00    +0.155 HD
ENDROOT
BRANCH   1  15
ATOM     12  C   UNL     1       0.931  -0.394   1.234  0.00  0.00    -0.048 A 
ATOM     13  C   UNL     1       2.293  -0.630   1.199  0.00  0.00    +0.004 A 
ATOM     14  C   UNL     1       2.937  -1.126   2.317  0.00  0.00    +0.006 A 
ATOM     15  C   UNL     1       2.220  -1.386   3.470  0.00  0.00    -0.018 A 
ATOM     16  C   UNL     1       0.859  -1.149   3.505  0.00  0.00    +0.006 A 
ATOM     17  C   UNL     1       0.215  -0.649   2.389  0.00  0.00    +0.004 A 
BRANCH  12  19
ATOM     18  C   UNL     1       0.242   1.676   0.056  0.00  0.00    +0.009 C 
ATOM     19  C   UNL     1       0.229   0.147   0.016  0.00  0.00    +0.032 C 
ENDBRANCH  12  19
ENDBRANCH   1  15
BRANCH   2  20
ATOM     20  C   UNL     1       2.614  -4.377   4.234  0.00  0.00    +0.248 C 
ATOM     21  O   UNL     1       3.707  -4.912   4.289  0.00  0.00    -0.270 OA
ATOM     22  N   UNL     1       1.675  -4.846   3.389  0.00  0.00    -0.281 N 
ATOM     23  H   UNL     1       0.828  -4.383   3.299  0.00  0.00    +0.155 HD
BRANCH  22  24
ATOM     24  C   UNL     1       1.923  -6.001   2.640  0.00  0.00    +0.037 A 
ATOM     25  C   UNL     1       3.205  -6.269   2.177  0.00  0.00    +0.023 A 
ATOM     26  C   UNL     1       3.447  -7.410   1.439  0.00  0.00    +0.002 A 
ATOM     27  C   UNL     1       2.414  -8.286   1.159  0.00  0.00    +0.004 A 
ATOM     28  C   UNL     1       1.137  -8.023   1.618  0.00  0.00    -0.046 A 
ATOM     29  C   UNL     1       0.889  -6.886   2.363  0.00  0.00    -0.026 A 
ATOM     30  C   UNL     1      -0.502  -6.603   2.869  0.00  0.00    +0.046 C 
ATOM     31  C   UNL     1       0.014  -8.980   1.312  0.00  0.00    +0.044 C 
ENDBRANCH  22  24
ENDBRANCH   2  20
BRANCH   8  32
ATOM     32  S   UNL     1       3.264   2.252   7.891  0.00  0.00    -0.080 S 
BRANCH  32  33
ATOM     33  C   UNL     1       2.306   2.268   9.431  0.00  0.00    +0.115 C 
BRANCH  33  34
ATOM     34  C   UNL     1       2.563   3.556  10.169  0.00  0.00    -0.002 A 
ATOM     35  C   UNL     1       3.601   3.636  11.079  0.00  0.00    +0.007 A 
ATOM     36  C   UNL     1       3.837   4.817  11.757  0.00  0.00    +0.000 A 
ATOM     37  C   UNL     1       3.036   5.920  11.525  0.00  0.00    +0.003 A 
ATOM     38  C   UNL     1       1.999   5.843  10.616  0.00  0.00    +0.038 A 
ATOM     39  C   UNL     1       1.764   4.662   9.933  0.00  0.00    +0.127 A 
ATOM     40  F   UNL     1       0.753   4.586   9.040  0.00  0.00    -0.205 F 
ENDBRANCH  33  34
ENDBRANCH  32  33
ENDBRANCH   8  32
TORSDOF 7
