REMARK  Name = ZINC19733875
REMARK  8 active torsions:
REMARK  status: ('A' for Active; 'I' for Inactive)
REMARK    1  A    between atoms: C_1  and  C_2
REMARK    2  A    between atoms: C_2  and  C_3
REMARK    3  A    between atoms: C_2  and  C_4
REMARK    4  A    between atoms: C_2  and  C_5
REMARK    5  A    between atoms: C_8  and  C_11
REMARK    6  A    between atoms: C_11  and  S_12
REMARK    7  A    between atoms: S_12  and  C_13
REMARK    8  A    between atoms: C_19  and  N_22
REMARK                            x       y       z     vdW  Elec       q    Type
REMARK                         _______ _______ _______ _____ _____    ______ ____
ROOT
ATOM      1  S   UNL     1       1.957  -2.000  -0.027  0.00  0.00    -0.081 S 
ENDROOT
BRANCH   1   2
ATOM      2  C   UNL     1       1.318  -0.358  -0.013  0.00  0.00    +0.196 A 
ATOM      3  N   UNL     1       2.022   0.752  -0.013  0.00  0.00    -0.122 NA
ATOM      4  N   UNL     1       1.242   1.774  -0.000  0.00  0.00    -0.129 NA
ATOM      5  C   UNL     1      -0.017   1.373   0.010  0.00  0.00    +0.162 A 
ATOM      6  N   UNL     1       0.002  -0.004   0.002  0.00  0.00    -0.276 N 
ATOM      7  C   UNL     1      -1.170  -0.714   0.010  0.00  0.00    +0.118 A 
ATOM      8  C   UNL     1      -2.360  -0.070   0.025  0.00  0.00    +0.042 A 
ATOM      9  C   UNL     1      -2.406   1.341   0.034  0.00  0.00    +0.028 A 
ATOM     10  C   UNL     1      -1.250   2.055   0.030  0.00  0.00    +0.050 A 
BRANCH   8  11
ATOM     11  N   UNL     1      -3.552  -0.806   0.033  0.00  0.00    -0.357 N 
ATOM     12  H   UNL     1      -4.521  -0.285   0.046  0.00  0.00    +0.142 HD
ATOM     13  H   UNL     1      -3.520  -1.906   0.027  0.00  0.00    +0.142 HD
ENDBRANCH   8  11
ENDBRANCH   1   2
BRANCH   1  14
ATOM     14  C   UNL     1       3.757  -1.771  -0.043  0.00  0.00    +0.112 C 
BRANCH  14  18
ATOM     15  C   UNL     1       5.679  -5.585  -0.081  0.00  0.00    -0.042 A 
ATOM     16  C   UNL     1       5.356  -4.962  -1.272  0.00  0.00    +0.004 A 
ATOM     17  C   UNL     1       4.734  -3.728  -1.260  0.00  0.00    +0.005 A 
ATOM     18  C   UNL     1       4.435  -3.116  -0.056  0.00  0.00    -0.037 A 
ATOM     19  C   UNL     1       4.762  -3.737   1.135  0.00  0.00    +0.005 A 
ATOM     20  C   UNL     1       5.380  -4.974   1.122  0.00  0.00    +0.004 A 
BRANCH  15  22
ATOM     21  C   UNL     1       7.695  -6.821  -0.829  0.00  0.00    +0.015 C 
ATOM     22  C   UNL     1       6.357  -6.931  -0.094  0.00  0.00    -0.013 C 
ATOM     23  C   UNL     1       6.601  -7.393   1.344  0.00  0.00    +0.015 C 
ATOM     24  C   UNL     1       5.463  -7.945  -0.811  0.00  0.00    +0.015 C 
ENDBRANCH  15  22
ENDBRANCH  14  18
ENDBRANCH   1  14
TORSDOF 5
