REMARK  Name = ZINC06198308
REMARK  9 active torsions:
REMARK  status: ('A' for Active; 'I' for Inactive)
REMARK    1  A    between atoms: C_1  and  C_2
REMARK    2  A    between atoms: C_2  and  C_3
REMARK    3  A    between atoms: C_10  and  C_15
REMARK    4  A    between atoms: C_15  and  C_17
REMARK    5  A    between atoms: C_15  and  N_74
REMARK    6  A    between atoms: N_21  and  C_22
REMARK    7  A    between atoms: C_22  and  C_23
REMARK    8  A    between atoms: C_31  and  C_34
REMARK    9  A    between atoms: C_34  and  C_35
REMARK                            x       y       z     vdW  Elec       q    Type
REMARK                         _______ _______ _______ _____ _____    ______ ____
ROOT
ATOM      1  C   UNL     1       1.187  -2.235  -0.022  0.00  0.00    +0.039 C 
ENDROOT
BRANCH   1   9
ATOM      2  C   UNL     1       3.541   3.487  -0.013  0.00  0.00    -0.047 A 
ATOM      3  C   UNL     1       2.325   4.156   0.002  0.00  0.00    +0.005 A 
ATOM      4  C   UNL     1       1.138   3.457   0.010  0.00  0.00    +0.026 A 
ATOM      5  C   UNL     1       1.156   2.065   0.002  0.00  0.00    +0.049 A 
ATOM      6  C   UNL     1       2.392   1.391  -0.013  0.00  0.00    -0.001 A 
ATOM      7  C   UNL     1       3.584   2.122  -0.021  0.00  0.00    +0.013 A 
ATOM      8  C   UNL     1       2.401  -0.073  -0.022  0.00  0.00    +0.017 A 
ATOM      9  C   UNL     1       1.213  -0.728  -0.014  0.00  0.00    +0.011 A 
ATOM     10  C   UNL     1       0.002  -0.004   0.002  0.00  0.00    +0.251 A 
ATOM     11  O   UNL     1      -1.054  -0.613   0.009  0.00  0.00    -0.268 OA
ATOM     12  N   UNL     1      -0.016   1.340   0.009  0.00  0.00    -0.322 N 
ATOM     13  H   UNL     1      -0.893   1.821   0.020  0.00  0.00    +0.169 HD
BRANCH   2  15
ATOM     14  C   UNL     1       5.247   4.549  -1.467  0.00  0.00    +0.009 C 
ATOM     15  C   UNL     1       4.826   4.275  -0.022  0.00  0.00    +0.032 C 
ENDBRANCH   2  15
ENDBRANCH   1   9
BRANCH   1  21
ATOM     16  C   UNL     1       0.915  -2.181   2.383  0.00  0.00    -0.077 C 
ATOM     17  C   UNL     1      -0.016  -2.584   3.529  0.00  0.00    -0.015 C 
ATOM     18  C   UNL     1      -0.103  -4.111   3.597  0.00  0.00    -0.010 C 
ATOM     19  C   UNL     1      -0.600  -4.647   2.252  0.00  0.00    -0.015 C 
ATOM     20  C   UNL     1       0.348  -4.184   1.143  0.00  0.00    -0.077 C 
ATOM     21  N   UNL     1       0.368  -2.706   1.114  0.00  0.00    +0.389 N 
ATOM     22  H   UNL     1      -0.592  -2.363   0.997  0.00  0.00    -0.080 HD
BRANCH  18  23
ATOM     23  C   UNL     1      -1.079  -4.520   4.702  0.00  0.00    +0.038 C 
BRANCH  23  24
ATOM     24  C   UNL     1      -0.528  -4.099   6.040  0.00  0.00    -0.047 A 
ATOM     25  C   UNL     1       0.278  -4.963   6.759  0.00  0.00    +0.003 A 
ATOM     26  C   UNL     1       0.787  -4.575   7.984  0.00  0.00    +0.000 A 
ATOM     27  C   UNL     1       0.482  -3.327   8.495  0.00  0.00    +0.000 A 
ATOM     28  C   UNL     1      -0.328  -2.466   7.779  0.00  0.00    +0.000 A 
ATOM     29  C   UNL     1      -0.833  -2.852   6.552  0.00  0.00    +0.003 A 
ENDBRANCH  23  24
ENDBRANCH  18  23
ENDBRANCH   1  21
BRANCH   1  30
ATOM     30  C   UNL     1       0.566  -2.720  -1.306  0.00  0.00    +0.143 A 
ATOM     31  N   UNL     1      -0.709  -2.706  -1.613  0.00  0.00    -0.115 NA
ATOM     32  N   UNL     1      -0.839  -3.201  -2.795  0.00  0.00    -0.023 NA
ATOM     33  N   UNL     1       0.318  -3.538  -3.247  0.00  0.00    -0.044 NA
ATOM     34  N   UNL     1       1.210  -3.257  -2.358  0.00  0.00    -0.228 N 
BRANCH  34  35
ATOM     35  C   UNL     1       2.654  -3.481  -2.473  0.00  0.00    +0.178 C 
BRANCH  35  36
ATOM     36  C   UNL     1       2.998  -4.872  -1.939  0.00  0.00    +0.140 C 
ATOM     37  C   UNL     1       4.514  -5.150  -2.101  0.00  0.00    +0.035 C 
ATOM     38  C   UNL     1       4.740  -6.208  -0.987  0.00  0.00    +0.031 C 
ATOM     39  C   UNL     1       3.752  -5.749   0.107  0.00  0.00    +0.160 C 
ATOM     40  O   UNL     1       2.754  -4.938  -0.525  0.00  0.00    -0.375 OA
ENDBRANCH  35  36
ENDBRANCH  34  35
ENDBRANCH   1  30
TORSDOF 8
