REMARK  Name = ZINC23353528
REMARK  6 active torsions:
REMARK  status: ('A' for Active; 'I' for Inactive)
REMARK    1  A    between atoms: C_1  and  N_2
REMARK    2  A    between atoms: C_5  and  C_7
REMARK    3  A    between atoms: C_16  and  N_20
REMARK    4  A    between atoms: N_20  and  C_21
REMARK    5  A    between atoms: C_21  and  C_22
REMARK    6  A    between atoms: C_22  and  N_28
REMARK                            x       y       z     vdW  Elec       q    Type
REMARK                         _______ _______ _______ _____ _____    ______ ____
ROOT
ATOM      1  C   UNL     1       0.318   0.732   1.260  0.00  0.00    +0.172 C 
ATOM      2  N   UNL     1      -0.034  -0.655   0.944  0.00  0.00    -0.270 N 
ATOM      3  C   UNL     1      -0.229  -1.137  -0.294  0.00  0.00    +0.043 A 
ATOM      4  C   UNL     1      -0.538  -2.451  -0.169  0.00  0.00    +0.004 A 
ATOM      5  C   UNL     1      -0.513  -2.724   1.209  0.00  0.00    +0.151 A 
ATOM      6  N   UNL     1      -0.197  -1.592   1.813  0.00  0.00    -0.166 NA
ATOM      7  C   UNL     1      -0.838  -3.372  -1.320  0.00  0.00    +0.023 C 
ATOM      8  C   UNL     1      -1.133  -2.514  -2.558  0.00  0.00    -0.067 C 
ATOM      9  C   UNL     1      -0.030  -1.466  -2.729  0.00  0.00    -0.009 C 
ATOM     10  C   UNL     1      -0.138  -0.417  -1.615  0.00  0.00    +0.054 C 
ENDROOT
BRANCH   5  11
ATOM     11  C   UNL     1      -0.783  -4.025   1.855  0.00  0.00    +0.267 C 
ATOM     12  O   UNL     1      -0.953  -5.018   1.175  0.00  0.00    -0.268 OA
ATOM     13  N   UNL     1      -0.839  -4.110   3.199  0.00  0.00    -0.296 N 
ATOM     14  C   UNL     1      -0.792  -2.898   4.029  0.00  0.00    +0.108 C 
ATOM     15  C   UNL     1      -1.999  -2.900   4.973  0.00  0.00    +0.019 C 
ATOM     16  C   UNL     1      -2.017  -4.207   5.769  0.00  0.00    +0.003 C 
ATOM     17  C   UNL     1      -2.154  -5.390   4.808  0.00  0.00    +0.019 C 
ATOM     18  C   UNL     1      -0.956  -5.416   3.862  0.00  0.00    +0.108 C 
ENDBRANCH   5  11
BRANCH   8  19
ATOM     19  N   UNL     1      -1.181  -3.373  -3.749  0.00  0.00    +0.382 N 
ATOM     20  H   UNL     1      -0.269  -3.773  -3.912  0.00  0.00    -0.085 HD
ATOM     21  H   UNL     1      -1.851  -4.113  -3.603  0.00  0.00    -0.085 HD
BRANCH  19  22
ATOM     22  C   UNL     1      -1.581  -2.573  -4.914  0.00  0.00    -0.060 C 
BRANCH  22  23
ATOM     23  C   UNL     1      -1.775  -3.493  -6.122  0.00  0.00    +0.007 C 
ATOM     24  C   UNL     1      -2.018  -2.647  -7.373  0.00  0.00    +0.020 C 
ATOM     25  C   UNL     1      -3.271  -1.792  -7.176  0.00  0.00    +0.002 C 
ATOM     26  C   UNL     1      -4.477  -2.703  -6.935  0.00  0.00    +0.000 C 
ATOM     27  C   UNL     1      -4.234  -3.549  -5.683  0.00  0.00    +0.002 C 
ATOM     28  C   UNL     1      -2.981  -4.404  -5.880  0.00  0.00    +0.020 C 
BRANCH  23  29
ATOM     29  N   UNL     1      -0.572  -4.314  -6.311  0.00  0.00    -0.294 NA
ATOM     30  C   UNL     1       0.615  -3.470  -6.511  0.00  0.00    +0.113 C 
ATOM     31  C   UNL     1       1.852  -4.362  -6.644  0.00  0.00    +0.175 C 
ATOM     32  O   UNL     1       1.656  -5.284  -7.719  0.00  0.00    -0.377 OA
ATOM     33  C   UNL     1       0.508  -6.122  -7.557  0.00  0.00    +0.175 C 
ATOM     34  C   UNL     1      -0.742  -5.248  -7.433  0.00  0.00    +0.113 C 
ENDBRANCH  23  29
ENDBRANCH  22  23
ENDBRANCH  19  22
ENDBRANCH   8  19
TORSDOF 5
