REMARK  Name = ZINC45384073
REMARK  3 active torsions:
REMARK  status: ('A' for Active; 'I' for Inactive)
REMARK    1  A    between atoms: C_7  and  C_11
REMARK    2  A    between atoms: C_11  and  C_12
REMARK    3  A    between atoms: C_12  and  N_13
REMARK                            x       y       z     vdW  Elec       q    Type
REMARK                         _______ _______ _______ _____ _____    ______ ____
ROOT
ATOM      1  C   UNL     1       2.684  -2.517   2.634  0.00  0.00    +0.095 C 
ENDROOT
BRANCH   1   8
ATOM      2  C   UNL     1      -0.029   1.525   0.015  0.00  0.00    +0.002 C 
ATOM      3  C   UNL     1       1.393   2.080   0.003  0.00  0.00    +0.008 C 
ATOM      4  C   UNL     1       2.300   1.149  -0.807  0.00  0.00    +0.076 C 
ATOM      5  C   UNL     1       2.855   0.086   0.105  0.00  0.00    +0.133 A 
ATOM      6  N   UNL     1       4.094  -0.308   0.193  0.00  0.00    -0.134 NA
ATOM      7  N   UNL     1       4.186  -1.247   1.069  0.00  0.00    -0.134 NA
ATOM      8  C   UNL     1       3.009  -1.488   1.582  0.00  0.00    +0.135 A 
ATOM      9  N   UNL     1       2.136  -0.641   0.992  0.00  0.00    -0.315 N 
ATOM     10  C   UNL     1       0.704  -0.516   1.262  0.00  0.00    +0.125 C 
ATOM     11  C   UNL     1      -0.007  -0.002   0.006  0.00  0.00    +0.022 C 
ENDBRANCH   1   8
BRANCH   1  12
ATOM     12  C   UNL     1       2.824  -1.888   4.022  0.00  0.00    +0.113 C 
BRANCH  12  13
ATOM     13  N   UNL     1       2.509  -2.889   5.045  0.00  0.00    -0.299 N 
ATOM     14  C   UNL     1       2.566  -2.559   6.351  0.00  0.00    +0.302 C 
ATOM     15  O   UNL     1       2.967  -1.460   6.683  0.00  0.00    -0.253 OA
ATOM     16  N   UNL     1       2.178  -3.446   7.288  0.00  0.00    -0.284 N 
ATOM     17  C   UNL     1       1.808  -4.805   6.887  0.00  0.00    +0.120 C 
ATOM     18  C   UNL     1       2.820  -5.801   7.466  0.00  0.00    +0.088 C 
ATOM     19  S   UNL     1       2.863  -5.603   9.273  0.00  0.00    -0.158 S 
ATOM     20  C   UNL     1       3.182  -3.826   9.487  0.00  0.00    +0.088 C 
ATOM     21  C   UNL     1       2.137  -3.042   8.694  0.00  0.00    +0.120 C 
ATOM     22  H   UNL     1       2.260  -3.789   4.783  0.00  0.00    +0.150 HD
ENDBRANCH  12  13
ENDBRANCH   1  12
TORSDOF 3
