REMARK  Name = ZINC20758630
REMARK  5 active torsions:
REMARK  status: ('A' for Active; 'I' for Inactive)
REMARK    1  A    between atoms: C_1  and  C_2
REMARK    2  A    between atoms: C_2  and  C_3
REMARK    3  A    between atoms: C_2  and  C_4
REMARK    4  A    between atoms: N_12  and  C_15
REMARK    5  A    between atoms: C_15  and  C_16
REMARK                            x       y       z     vdW  Elec       q    Type
REMARK                         _______ _______ _______ _____ _____    ______ ____
ROOT
ATOM      1  C   UNL     1       0.718  -0.497  -1.257  0.00  0.00    +0.070 C 
ATOM      2  C   UNL     1       0.717  -2.041  -1.305  0.00  0.00    +0.107 C 
ATOM      3  C   UNL     1       0.525  -2.391  -2.807  0.00  0.00    +0.122 C 
ATOM      4  C   UNL     1       1.833  -3.050  -3.182  0.00  0.00    +0.228 C 
ATOM      5  O   UNL     1       2.111  -3.480  -4.281  0.00  0.00    -0.275 OA
ATOM      6  N   UNL     1       2.636  -3.085  -2.112  0.00  0.00    -0.239 N 
ATOM      7  C   UNL     1       2.107  -2.547  -0.989  0.00  0.00    +0.227 C 
ATOM      8  O   UNL     1       2.648  -2.476   0.093  0.00  0.00    -0.275 OA
ATOM      9  C   UNL     1       0.392  -1.034  -3.508  0.00  0.00    +0.136 C 
ATOM     10  N   UNL     1      -0.025  -0.075  -2.474  0.00  0.00    -0.295 NA
ATOM     11  C   UNL     1      -0.583  -1.094  -4.649  0.00  0.00    +0.003 A 
ATOM     12  C   UNL     1      -1.918  -1.419  -4.740  0.00  0.00    +0.008 A 
ATOM     13  C   UNL     1      -2.559  -1.379  -5.965  0.00  0.00    +0.000 A 
ATOM     14  C   UNL     1      -1.855  -1.014  -7.098  0.00  0.00    +0.002 A 
ATOM     15  C   UNL     1      -0.517  -0.689  -7.013  0.00  0.00    +0.023 A 
ATOM     16  C   UNL     1       0.136  -0.726  -5.783  0.00  0.00    +0.039 A 
ATOM     17  N   UNL     1       1.461  -0.446  -5.444  0.00  0.00    -0.283 N 
ATOM     18  C   UNL     1       1.694  -0.604  -4.127  0.00  0.00    +0.243 C 
ATOM     19  O   UNL     1       2.748  -0.433  -3.552  0.00  0.00    -0.273 OA
ATOM     20  H   UNL     1      -1.021  -0.129  -2.326  0.00  0.00    +0.124 HD
ATOM     21  H   UNL     1       2.137  -0.171  -6.084  0.00  0.00    +0.155 HD
ENDROOT
BRANCH   1  23
ATOM     22  C   UNL     1      -0.019   1.526   0.010  0.00  0.00    +0.009 C 
ATOM     23  C   UNL     1       0.002  -0.004   0.002  0.00  0.00    +0.001 C 
ATOM     24  C   UNL     1      -1.433  -0.534   0.013  0.00  0.00    +0.009 C 
ENDBRANCH   1  23
BRANCH   6  25
ATOM     25  C   UNL     1       3.980  -3.665  -2.150  0.00  0.00    +0.148 C 
BRANCH  25  26
ATOM     26  C   UNL     1       4.993  -2.583  -2.529  0.00  0.00    +0.136 C 
ATOM     27  C   UNL     1       6.419  -3.184  -2.609  0.00  0.00    +0.035 C 
ATOM     28  C   UNL     1       7.106  -2.185  -3.580  0.00  0.00    +0.031 C 
ATOM     29  C   UNL     1       5.950  -1.803  -4.529  0.00  0.00    +0.160 C 
ATOM     30  O   UNL     1       4.719  -2.085  -3.849  0.00  0.00    -0.375 OA
ENDBRANCH  25  26
ENDBRANCH   6  25
TORSDOF 3
