REMARK  Name = ZINC21241790
REMARK  7 active torsions:
REMARK  status: ('A' for Active; 'I' for Inactive)
REMARK    1  A    between atoms: C_1  and  C_2
REMARK    2  A    between atoms: C_2  and  C_3
REMARK    3  A    between atoms: C_2  and  C_4
REMARK    4  A    between atoms: C_4  and  O_5
REMARK    5  A    between atoms: O_5  and  C_6
REMARK    6  A    between atoms: C_9  and  C_12
REMARK    7  A    between atoms: C_17  and  C_23
REMARK                            x       y       z     vdW  Elec       q    Type
REMARK                         _______ _______ _______ _____ _____    ______ ____
ROOT
ATOM      1  C   UNL     1      -2.214   4.767   3.274  0.00  0.00    +0.032 C 
ATOM      2  C   UNL     1      -0.941   5.083   2.485  0.00  0.00    +0.059 C 
ATOM      3  C   UNL     1      -0.877   4.209   1.257  0.00  0.00    +0.018 C 
ATOM      4  C   UNL     1      -1.420   2.974   1.258  0.00  0.00    +0.020 C 
ATOM      5  C   UNL     1      -1.333   2.112   0.020  0.00  0.00    +0.063 C 
ATOM      6  C   UNL     1      -1.433   2.998  -1.223  0.00  0.00    +0.109 C 
ATOM      7  C   UNL     1      -0.487   4.162  -1.076  0.00  0.00    +0.218 C 
ATOM      8  O   UNL     1       0.062   4.622  -2.055  0.00  0.00    -0.275 OA
ATOM      9  N   UNL     1      -0.251   4.692   0.136  0.00  0.00    -0.289 N 
ATOM     10  C   UNL     1      -2.073   2.462   2.392  0.00  0.00    +0.162 C 
ATOM     11  O   UNL     1      -2.541   1.341   2.358  0.00  0.00    -0.292 OA
ATOM     12  C   UNL     1      -2.201   3.281   3.648  0.00  0.00    +0.088 C 
ATOM     13  H   UNL     1       0.459   5.529   0.220  0.00  0.00    +0.155 HD
ENDROOT
BRANCH   5  14
ATOM     14  C   UNL     1      -0.017   1.378   0.010  0.00  0.00    -0.036 A 
ATOM     15  C   UNL     1       1.169   2.089   0.002  0.00  0.00    +0.008 A 
ATOM     16  C   UNL     1       2.379   1.420  -0.012  0.00  0.00    +0.050 A 
ATOM     17  C   UNL     1       2.405   0.035  -0.021  0.00  0.00    +0.166 A 
ATOM     18  C   UNL     1       1.211  -0.681  -0.014  0.00  0.00    +0.167 A 
ATOM     19  C   UNL     1       0.002  -0.004   0.002  0.00  0.00    +0.053 A 
ATOM     20  O   UNL     1       1.501  -2.015  -0.025  0.00  0.00    -0.453 OA
ATOM     21  C   UNL     1       2.873  -2.106  -0.451  0.00  0.00    +0.466 C 
ATOM     22  O   UNL     1       3.444  -0.851  -0.037  0.00  0.00    -0.453 OA
ENDBRANCH   5  14
BRANCH   1  26
ATOM     23  C   UNL     1      -2.325   7.140   6.826  0.00  0.00    +0.121 A 
ATOM     24  C   UNL     1      -3.337   7.253   5.884  0.00  0.00    +0.046 A 
ATOM     25  C   UNL     1      -3.298   6.485   4.736  0.00  0.00    +0.007 A 
ATOM     26  C   UNL     1      -2.253   5.604   4.527  0.00  0.00    -0.043 A 
ATOM     27  C   UNL     1      -1.246   5.486   5.467  0.00  0.00    +0.007 A 
ATOM     28  C   UNL     1      -1.277   6.256   6.614  0.00  0.00    +0.046 A 
BRANCH  23  29
ATOM     29  O   UNL     1      -2.361   7.894   7.957  0.00  0.00    -0.492 OA
BRANCH  29  30
ATOM     30  C   UNL     1      -1.286   7.726   8.883  0.00  0.00    +0.232 C 
BRANCH  30  32
ATOM     31  C   UNL     1      -2.755   8.222  10.841  0.00  0.00    +0.010 C 
ATOM     32  C   UNL     1      -1.497   8.650  10.083  0.00  0.00    +0.020 C 
ATOM     33  C   UNL     1      -0.286   8.563  11.014  0.00  0.00    +0.010 C 
ENDBRANCH  30  32
ENDBRANCH  29  30
ENDBRANCH  23  29
ENDBRANCH   1  26
TORSDOF 5
