REMARK  Name = ZINC13878972
REMARK  1 active torsions:
REMARK  status: ('A' for Active; 'I' for Inactive)
REMARK    1  A    between atoms: C_4  and  C_7
REMARK                            x       y       z     vdW  Elec       q    Type
REMARK                         _______ _______ _______ _____ _____    ______ ____
ROOT
ATOM      1  C   UNL     1       3.198  -0.418   0.311  0.00  0.00    +0.166 C 
ATOM      2  C   UNL     1       3.809  -1.001   1.562  0.00  0.00    -0.020 C 
ATOM      3  C   UNL     1       3.596  -2.285   1.875  0.00  0.00    +0.039 C 
ATOM      4  C   UNL     1       4.165  -2.873   3.095  0.00  0.00    -0.006 C 
ATOM      5  C   UNL     1       3.772  -4.095   3.529  0.00  0.00    +0.046 C 
ATOM      6  S   UNL     1       4.766  -5.034   4.655  0.00  0.00    -0.118 S 
ATOM      7  C   UNL     1       3.572  -5.522   5.934  0.00  0.00    +0.076 C 
ATOM      8  C   UNL     1       2.416  -6.286   5.295  0.00  0.00    +0.022 C 
ATOM      9  C   UNL     1       1.478  -5.340   4.552  0.00  0.00    +0.076 C 
ATOM     10  S   UNL     1       2.242  -4.812   2.997  0.00  0.00    -0.118 S 
ATOM     11  C   UNL     1       5.204  -2.074   3.852  0.00  0.00    +0.039 C 
ATOM     12  C   UNL     1       4.728  -0.614   3.862  0.00  0.00    +0.009 C 
ATOM     13  C   UNL     1       4.660  -0.105   2.425  0.00  0.00    +0.035 C 
ATOM     14  N   UNL     1       2.824  -3.091   1.029  0.00  0.00    -0.293 N 
ATOM     15  C   UNL     1       2.607  -2.691  -0.270  0.00  0.00    +0.165 C 
ATOM     16  S   UNL     1       2.084  -3.871  -1.469  0.00  0.00    -0.014 SA
ATOM     17  N   UNL     1       2.783  -1.456  -0.619  0.00  0.00    -0.250 NA
ATOM     18  H   UNL     1       2.447  -3.923   1.355  0.00  0.00    +0.154 HD
ENDROOT
BRANCH   1  22
ATOM     19  C   UNL     1      -0.206   1.928   1.385  0.00  0.00    +0.000 A 
ATOM     20  C   UNL     1       1.008   2.542   1.141  0.00  0.00    +0.000 A 
ATOM     21  C   UNL     1       2.109   1.783   0.793  0.00  0.00    +0.006 A 
ATOM     22  C   UNL     1       1.997   0.409   0.691  0.00  0.00    -0.019 A 
ATOM     23  C   UNL     1       0.784  -0.205   0.937  0.00  0.00    +0.006 A 
ATOM     24  C   UNL     1      -0.318   0.554   1.283  0.00  0.00    +0.000 A 
ENDBRANCH   1  22
TORSDOF 1
