REMARK  Name = ZINC16807954
REMARK  9 active torsions:
REMARK  status: ('A' for Active; 'I' for Inactive)
REMARK    1  A    between atoms: C_1  and  C_2
REMARK    2  A    between atoms: C_10  and  C_16
REMARK    3  A    between atoms: C_16  and  O_18
REMARK    4  A    between atoms: O_18  and  C_19
REMARK    5  A    between atoms: C_19  and  C_20
REMARK    6  A    between atoms: N_22  and  C_23
REMARK    7  A    between atoms: N_22  and  C_28
REMARK    8  A    between atoms: C_23  and  C_24
REMARK    9  A    between atoms: C_24  and  C_25
REMARK                            x       y       z     vdW  Elec       q    Type
REMARK                         _______ _______ _______ _____ _____    ______ ____
ROOT
ATOM      1  O   UNL     1      -3.957   4.637   6.718  0.00  0.00    -0.452 OA
ENDROOT
BRANCH   1   2
ATOM      2  C   UNL     1      -3.713   4.769   5.399  0.00  0.00    +0.340 C 
ATOM      3  O   UNL     1      -4.445   5.453   4.712  0.00  0.00    -0.245 OA
BRANCH   2  12
ATOM      4  C   UNL     1      -0.566   4.483  -2.108  0.00  0.00    +0.008 C 
ATOM      5  C   UNL     1      -0.016   4.072  -0.741  0.00  0.00    -0.009 C 
ATOM      6  C   UNL     1       0.538   2.646  -0.820  0.00  0.00    +0.009 C 
ATOM      7  C   UNL     1       1.308   2.326   0.466  0.00  0.00    +0.054 C 
ATOM      8  C   UNL     1       0.440   2.678   1.652  0.00  0.00    +0.020 A 
ATOM      9  C   UNL     1      -0.651   3.474   1.569  0.00  0.00    -0.019 A 
ATOM     10  C   UNL     1      -1.211   3.563   2.903  0.00  0.00    +0.004 A 
ATOM     11  C   UNL     1      -2.319   4.234   3.420  0.00  0.00    +0.025 A 
ATOM     12  C   UNL     1      -2.556   4.085   4.790  0.00  0.00    +0.060 A 
ATOM     13  C   UNL     1      -1.723   3.302   5.598  0.00  0.00    +0.017 A 
ATOM     14  C   UNL     1      -0.633   2.640   5.098  0.00  0.00    +0.027 A 
ATOM     15  C   UNL     1      -0.373   2.771   3.733  0.00  0.00    +0.047 A 
ATOM     16  N   UNL     1       0.608   2.255   2.942  0.00  0.00    -0.358 N 
ATOM     17  H   UNL     1       1.323   1.675   3.248  0.00  0.00    +0.166 HD
ATOM     18  C   UNL     1      -1.142   4.121   0.299  0.00  0.00    +0.040 C 
ENDBRANCH   2  12
ENDBRANCH   1   2
BRANCH   1  19
ATOM     19  C   UNL     1      -5.112   5.338   7.248  0.00  0.00    +0.328 C 
BRANCH  19  20
ATOM     20  C   UNL     1      -5.224   5.074   8.728  0.00  0.00    +0.258 C 
ATOM     21  O   UNL     1      -4.411   4.364   9.280  0.00  0.00    -0.272 OA
ATOM     22  N   UNL     1      -6.229   5.627   9.437  0.00  0.00    -0.268 N 
BRANCH  22  23
ATOM     23  C   UNL     1      -6.393   5.301  10.789  0.00  0.00    +0.037 A 
ATOM     24  C   UNL     1      -6.782   4.019  11.153  0.00  0.00    +0.026 A 
ATOM     25  C   UNL     1      -6.937   3.699  12.487  0.00  0.00    +0.040 A 
ATOM     26  C   UNL     1      -6.717   4.658  13.461  0.00  0.00    +0.124 A 
ATOM     27  C   UNL     1      -6.334   5.939  13.100  0.00  0.00    +0.040 A 
ATOM     28  C   UNL     1      -6.171   6.262  11.767  0.00  0.00    +0.026 A 
ATOM     29  F   UNL     1      -6.875   4.344  14.765  0.00  0.00    -0.205 F 
ENDBRANCH  22  23
BRANCH  22  30
ATOM     30  C   UNL     1      -7.148   6.567   8.793  0.00  0.00    +0.123 C 
BRANCH  30  31
ATOM     31  C   UNL     1      -8.331   5.799   8.200  0.00  0.00    +0.115 C 
BRANCH  31  32
ATOM     32  C   UNL     1      -9.278   6.767   7.537  0.00  0.00    +0.212 C 
ATOM     33  O   UNL     1      -9.030   7.954   7.539  0.00  0.00    -0.276 OA
ATOM     34  N   UNL     1     -10.399   6.313   6.943  0.00  0.00    -0.329 N 
ATOM     35  H   UNL     1     -10.597   5.364   6.942  0.00  0.00    +0.145 HD
ATOM     36  H   UNL     1     -11.008   6.936   6.517  0.00  0.00    +0.145 HD
ENDBRANCH  31  32
ENDBRANCH  30  31
ENDBRANCH  22  30
ENDBRANCH  19  20
ENDBRANCH   1  19
TORSDOF 8
