REMARK  Name = ZINC36597435
REMARK  18 active torsions:
REMARK  status: ('A' for Active; 'I' for Inactive)
REMARK    1  A    between atoms: C_1  and  C_2
REMARK    2  A    between atoms: C_5  and  C_7
REMARK    3  A    between atoms: C_7  and  N_8
REMARK    4  A    between atoms: N_8  and  C_9
REMARK    5  A    between atoms: C_9  and  C_11
REMARK    6  A    between atoms: C_9  and  C_18
REMARK    7  A    between atoms: C_15  and  O_17
REMARK    8  A    between atoms: N_20  and  C_21
REMARK    9  A    between atoms: C_21  and  C_22
REMARK   10  A    between atoms: C_21  and  C_23
REMARK   11  A    between atoms: C_21  and  C_24
REMARK   12  A    between atoms: C_24  and  C_25
REMARK   13  A    between atoms: C_25  and  C_26
REMARK   14  A    between atoms: C_25  and  C_27
REMARK   15  A    between atoms: C_25  and  C_28
REMARK   16  A    between atoms: C_29  and  C_31
REMARK   17  A    between atoms: C_32  and  O_38
REMARK   18  A    between atoms: C_36  and  O_37
REMARK                            x       y       z     vdW  Elec       q    Type
REMARK                         _______ _______ _______ _____ _____    ______ ____
ROOT
ATOM      1  C   UNL     1       2.587  -1.528  -1.879  0.00  0.00    +0.193 C 
ENDROOT
BRANCH   1   2
ATOM      2  C   UNL     1       3.570  -1.829  -0.777  0.00  0.00    -0.015 A 
ATOM      3  C   UNL     1       3.465  -1.178   0.438  0.00  0.00    +0.006 A 
ATOM      4  C   UNL     1       4.364  -1.451   1.452  0.00  0.00    +0.004 A 
ATOM      5  C   UNL     1       5.372  -2.376   1.252  0.00  0.00    +0.045 A 
ATOM      6  C   UNL     1       5.479  -3.030   0.033  0.00  0.00    +0.117 A 
ATOM      7  C   UNL     1       4.571  -2.758  -0.980  0.00  0.00    +0.051 A 
BRANCH   6   8
ATOM      8  O   UNL     1       6.469  -3.940  -0.166  0.00  0.00    -0.507 OA
ATOM      9  H   UNL     1       6.226  -4.844   0.074  0.00  0.00    +0.292 HD
ENDBRANCH   6   8
ENDBRANCH   1   2
BRANCH   1  10
ATOM     10  C   UNL     1       2.913  -0.190  -2.492  0.00  0.00    +0.239 C 
ATOM     11  O   UNL     1       2.124   0.727  -2.401  0.00  0.00    -0.273 OA
ATOM     12  N   UNL     1       4.081  -0.012  -3.140  0.00  0.00    -0.308 N 
ATOM     13  H   UNL     1       4.712  -0.745  -3.213  0.00  0.00    +0.149 HD
BRANCH  12  14
ATOM     14  C   UNL     1       4.398   1.288  -3.735  0.00  0.00    +0.030 C 
ATOM     15  C   UNL     1       3.443   1.563  -4.899  0.00  0.00    +0.031 C 
ATOM     16  C   UNL     1       4.242   2.384  -2.679  0.00  0.00    +0.031 C 
BRANCH  14  17
ATOM     17  C   UNL     1       5.839   1.277  -4.250  0.00  0.00    +0.031 C 
BRANCH  17  18
ATOM     18  C   UNL     1       6.720   0.489  -3.279  0.00  0.00    -0.036 C 
ATOM     19  C   UNL     1       6.669  -0.998  -3.635  0.00  0.00    +0.010 C 
ATOM     20  C   UNL     1       8.163   0.988  -3.380  0.00  0.00    +0.010 C 
ATOM     21  C   UNL     1       6.210   0.688  -1.850  0.00  0.00    +0.010 C 
ENDBRANCH  17  18
ENDBRANCH  14  17
ENDBRANCH  12  14
ENDBRANCH   1  10
BRANCH   1  22
ATOM     22  N   UNL     1       1.230  -1.495  -1.329  0.00  0.00    -0.274 N 
ATOM     23  C   UNL     1       0.663  -2.627  -0.866  0.00  0.00    +0.255 C 
ATOM     24  O   UNL     1       1.278  -3.676  -0.906  0.00  0.00    -0.270 OA
BRANCH  23  25
ATOM     25  C   UNL     1      -0.701  -2.595  -0.312  0.00  0.00    +0.119 A 
ATOM     26  C   UNL     1      -1.807  -2.808  -1.147  0.00  0.00    +0.133 A 
ATOM     27  C   UNL     1      -3.086  -2.776  -0.616  0.00  0.00    +0.046 A 
ATOM     28  C   UNL     1      -3.274  -2.534   0.733  0.00  0.00    +0.007 A 
ATOM     29  C   UNL     1      -2.190  -2.321   1.565  0.00  0.00    +0.046 A 
ATOM     30  C   UNL     1      -0.902  -2.355   1.055  0.00  0.00    +0.133 A 
BRANCH  30  31
ATOM     31  O   UNL     1       0.160  -2.153   1.875  0.00  0.00    -0.506 OA
ATOM     32  H   UNL     1       0.424  -1.226   1.954  0.00  0.00    +0.292 HD
ENDBRANCH  30  31
BRANCH  26  33
ATOM     33  O   UNL     1      -1.626  -3.045  -2.470  0.00  0.00    -0.506 OA
ATOM     34  H   UNL     1      -1.528  -3.981  -2.692  0.00  0.00    +0.292 HD
ENDBRANCH  26  33
ENDBRANCH  23  25
BRANCH  22  35
ATOM     35  C   UNL     1       0.489  -0.232  -1.280  0.00  0.00    +0.183 C 
BRANCH  35  40
ATOM     36  C   UNL     1      -0.376   1.323  -6.000  0.00  0.00    +0.086 C 
ATOM     37  C   UNL     1      -0.574   0.674  -4.654  0.00  0.00    +0.102 A 
ATOM     38  C   UNL     1      -1.671   0.005  -4.257  0.00  0.00    +0.045 A 
ATOM     39  C   UNL     1      -1.428  -0.431  -2.934  0.00  0.00    +0.046 A 
ATOM     40  C   UNL     1      -0.198  -0.002  -2.602  0.00  0.00    +0.122 A 
ATOM     41  O   UNL     1       0.317   0.662  -3.650  0.00  0.00    -0.463 OA
ENDBRANCH  35  40
ENDBRANCH  22  35
ENDBRANCH   1  22
TORSDOF 12
