REMARK  Name = ZINC01839653
REMARK  5 active torsions:
REMARK  status: ('A' for Active; 'I' for Inactive)
REMARK    1  A    between atoms: C_3  and  C_6
REMARK    2  A    between atoms: C_6  and  N_7
REMARK    3  A    between atoms: C_15  and  C_19
REMARK    4  A    between atoms: C_15  and  N_23
REMARK    5  A    between atoms: C_24  and  C_26
REMARK                            x       y       z     vdW  Elec       q    Type
REMARK                         _______ _______ _______ _____ _____    ______ ____
ROOT
ATOM      1  N   UNL     1       3.288  -0.210   1.024  0.00  0.00    -0.274 N 
ATOM      2  C   UNL     1       3.809  -1.177   1.858  0.00  0.00    +0.121 A 
ATOM      3  C   UNL     1       4.434  -0.776   3.002  0.00  0.00    +0.096 A 
ATOM      4  C   UNL     1       4.535   0.586   3.310  0.00  0.00    +0.262 A 
ATOM      5  N   UNL     1       4.009   1.496   2.463  0.00  0.00    -0.275 N 
ATOM      6  C   UNL     1       3.399   1.093   1.333  0.00  0.00    +0.331 A 
ATOM      7  O   UNL     1       2.935   1.925   0.578  0.00  0.00    -0.246 OA
ATOM      8  O   UNL     1       5.092   0.947   4.332  0.00  0.00    -0.267 OA
ATOM      9  C   UNL     1       4.896  -2.031   3.704  0.00  0.00    +0.240 C 
ATOM     10  C   UNL     1       4.435  -3.143   2.783  0.00  0.00    +0.256 C 
ATOM     11  O   UNL     1       4.591  -4.334   2.947  0.00  0.00    -0.272 OA
ATOM     12  N   UNL     1       3.819  -2.546   1.747  0.00  0.00    -0.269 N 
ATOM     13  H   UNL     1       4.073   2.442   2.667  0.00  0.00    +0.173 HD
ATOM     14  H   UNL     1       3.425  -3.029   1.004  0.00  0.00    +0.156 HD
ENDROOT
BRANCH   9  15
ATOM     15  C   UNL     1       6.420  -2.042   3.841  0.00  0.00    +0.424 C 
ATOM     16  F   UNL     1       6.820  -1.000   4.684  0.00  0.00    -0.167 F 
ATOM     17  F   UNL     1       6.831  -3.265   4.382  0.00  0.00    -0.167 F 
ATOM     18  F   UNL     1       7.002  -1.871   2.580  0.00  0.00    -0.167 F 
ENDBRANCH   9  15
BRANCH   9  19
ATOM     19  N   UNL     1       4.258  -2.152   5.018  0.00  0.00    -0.290 N 
ATOM     20  C   UNL     1       2.914  -2.134   5.119  0.00  0.00    +0.217 C 
ATOM     21  O   UNL     1       2.231  -2.109   4.117  0.00  0.00    -0.275 OA
ATOM     22  H   UNL     1       4.803  -2.246   5.815  0.00  0.00    +0.150 HD
BRANCH  20  23
ATOM     23  C   UNL     1       2.261  -2.145   6.476  0.00  0.00    +0.075 C 
ATOM     24  C   UNL     1       2.671  -3.412   7.230  0.00  0.00    +0.013 C 
ATOM     25  C   UNL     1       2.007  -3.422   8.608  0.00  0.00    +0.001 C 
ATOM     26  C   UNL     1       0.486  -3.397   8.442  0.00  0.00    +0.000 C 
ATOM     27  C   UNL     1       0.076  -2.130   7.689  0.00  0.00    +0.001 C 
ATOM     28  C   UNL     1       0.740  -2.120   6.310  0.00  0.00    +0.013 C 
ENDBRANCH  20  23
ENDBRANCH   9  19
BRANCH   1  29
ATOM     29  C   UNL     1       2.611  -0.608  -0.213  0.00  0.00    +0.202 C 
BRANCH  29  32
ATOM     30  C   UNL     1      -1.035  -0.487   0.308  0.00  0.00    +0.041 A 
ATOM     31  C   UNL     1       0.189   0.134  -0.032  0.00  0.00    +0.046 A 
ATOM     32  C   UNL     1       1.143  -0.810   0.059  0.00  0.00    +0.125 A 
ATOM     33  O   UNL     1       0.565  -1.962   0.435  0.00  0.00    -0.466 OA
ATOM     34  C   UNL     1      -0.755  -1.773   0.587  0.00  0.00    +0.195 A 
ENDBRANCH  29  32
ENDBRANCH   1  29
TORSDOF 5
