REMARK  Name = ZINC39934298
REMARK  5 active torsions:
REMARK  status: ('A' for Active; 'I' for Inactive)
REMARK    1  A    between atoms: C_1  and  C_2
REMARK    2  A    between atoms: C_2  and  C_3
REMARK    3  A    between atoms: N_8  and  C_9
REMARK    4  A    between atoms: C_9  and  C_11
REMARK    5  A    between atoms: C_20  and  O_23
REMARK                            x       y       z     vdW  Elec       q    Type
REMARK                         _______ _______ _______ _____ _____    ______ ____
ROOT
ATOM      1  C   UNL     1      -2.423  -1.486  -6.468  0.00  0.00    +0.052 C 
ATOM      2  C   UNL     1      -1.499  -2.322  -7.356  0.00  0.00    +0.020 C 
ATOM      3  C   UNL     1      -2.256  -2.758  -8.612  0.00  0.00    -0.007 C 
ATOM      4  C   UNL     1      -3.472  -3.595  -8.210  0.00  0.00    +0.007 C 
ATOM      5  C   UNL     1      -4.396  -2.759  -7.322  0.00  0.00    -0.007 C 
ATOM      6  C   UNL     1      -3.639  -2.323  -6.066  0.00  0.00    +0.020 C 
ATOM      7  C   UNL     1      -4.861  -1.521  -8.092  0.00  0.00    +0.038 C 
ATOM      8  C   UNL     1      -3.645  -0.684  -8.495  0.00  0.00    +0.068 C 
ATOM      9  C   UNL     1      -2.721  -1.521  -9.382  0.00  0.00    +0.038 C 
ATOM     10  C   UNL     1      -2.888  -0.248  -7.239  0.00  0.00    +0.051 C 
ENDROOT
BRANCH   1  11
ATOM     11  C   UNL     1      -1.677  -1.056  -5.231  0.00  0.00    +0.245 C 
ATOM     12  O   UNL     1      -1.532   0.125  -4.989  0.00  0.00    -0.273 OA
BRANCH  11  17
ATOM     13  C   UNL     1       0.718  -0.497  -1.257  0.00  0.00    +0.192 C 
ATOM     14  N   UNL     1       0.644  -1.972  -1.379  0.00  0.00    -0.171 NA
ATOM     15  N   UNL     1       0.056  -2.389  -2.356  0.00  0.00    -0.129 NA
ATOM     16  C   UNL     1      -0.521  -1.597  -3.314  0.00  0.00    +0.203 C 
ATOM     17  N   UNL     1      -1.177  -1.974  -4.401  0.00  0.00    -0.153 NA
ATOM     18  S   UNL     1      -0.200  -0.026  -2.782  0.00  0.00    -0.058 S 
BRANCH  13  20
ATOM     19  C   UNL     1      -0.019   1.526   0.010  0.00  0.00    +0.007 C 
ATOM     20  C   UNL     1       0.002  -0.004   0.002  0.00  0.00    +0.037 C 
ENDBRANCH  13  20
ENDBRANCH  11  17
ENDBRANCH   1  11
BRANCH   8  21
ATOM     21  O   UNL     1      -4.079   0.471  -9.214  0.00  0.00    -0.389 OA
ATOM     22  H   UNL     1      -4.567   0.270 -10.024  0.00  0.00    +0.210 HD
ENDBRANCH   8  21
TORSDOF 4
