REMARK  Name = ZINC09647341
REMARK  5 active torsions:
REMARK  status: ('A' for Active; 'I' for Inactive)
REMARK    1  A    between atoms: C_1  and  C_2
REMARK    2  A    between atoms: C_2  and  C_28
REMARK    3  A    between atoms: N_5  and  C_9
REMARK    4  A    between atoms: C_9  and  C_10
REMARK    5  A    between atoms: C_16  and  C_19
REMARK                            x       y       z     vdW  Elec       q    Type
REMARK                         _______ _______ _______ _____ _____    ______ ____
ROOT
ATOM      1  C   UNL     1      -2.001   1.672   1.269  0.00  0.00    +0.047 C 
ATOM      2  C   UNL     1      -1.235   2.107   0.018  0.00  0.00    +0.136 C 
ATOM      3  C   UNL     1       0.083   1.365  -0.085  0.00  0.00    +0.251 C 
ATOM      4  O   UNL     1       0.243   0.168  -0.191  0.00  0.00    -0.272 OA
ATOM      5  N   UNL     1       1.040   2.313  -0.041  0.00  0.00    -0.215 N 
ATOM      6  C   UNL     1       0.515   3.538   0.080  0.00  0.00    +0.310 C 
ATOM      7  O   UNL     1       1.179   4.554   0.141  0.00  0.00    -0.252 OA
ATOM      8  N   UNL     1      -0.829   3.519   0.127  0.00  0.00    -0.281 N 
ATOM      9  H   UNL     1      -1.417   4.286   0.212  0.00  0.00    +0.152 HD
ENDROOT
BRANCH   2  10
ATOM     10  C   UNL     1      -2.067   1.885  -1.218  0.00  0.00    -0.008 A 
ATOM     11  C   UNL     1      -2.385   2.934  -2.026  0.00  0.00    +0.007 A 
ATOM     12  C   UNL     1      -3.152   2.748  -3.174  0.00  0.00    +0.001 A 
ATOM     13  C   UNL     1      -3.607   1.513  -3.521  0.00  0.00    +0.008 A 
ATOM     14  C   UNL     1      -3.299   0.406  -2.712  0.00  0.00    -0.018 A 
ATOM     15  C   UNL     1      -2.513   0.594  -1.547  0.00  0.00    -0.012 A 
ATOM     16  C   UNL     1      -2.200  -0.513  -0.741  0.00  0.00    +0.009 A 
ATOM     17  C   UNL     1      -2.650  -1.749  -1.090  0.00  0.00    +0.001 A 
ATOM     18  C   UNL     1      -3.418  -1.935  -2.239  0.00  0.00    +0.001 A 
ATOM     19  C   UNL     1      -3.750  -0.884  -3.038  0.00  0.00    +0.008 A 
ENDBRANCH   2  10
BRANCH   5  20
ATOM     20  C   UNL     1       2.476   2.037  -0.116  0.00  0.00    +0.213 C 
BRANCH  20  21
ATOM     21  C   UNL     1       2.917   2.060  -1.557  0.00  0.00    +0.234 C 
ATOM     22  O   UNL     1       2.111   2.285  -2.434  0.00  0.00    -0.274 OA
ATOM     23  N   UNL     1       4.208   1.831  -1.870  0.00  0.00    -0.300 N 
ATOM     24  C   UNL     1       5.197   1.562  -0.818  0.00  0.00    +0.108 C 
ATOM     25  C   UNL     1       5.919   0.247  -1.150  0.00  0.00    +0.020 C 
ATOM     26  C   UNL     1       6.509   0.338  -2.559  0.00  0.00    +0.013 C 
ATOM     27  C   UNL     1       5.382   0.537  -3.575  0.00  0.00    +0.062 C 
ATOM     28  C   UNL     1       4.653   1.850  -3.271  0.00  0.00    +0.118 C 
BRANCH  27  29
ATOM     29  C   UNL     1       5.960   0.593  -4.965  0.00  0.00    +0.084 A 
ATOM     30  N   UNL     1       5.709  -0.189  -5.977  0.00  0.00    -0.244 NA
ATOM     31  C   UNL     1       6.299  -0.029  -7.180  0.00  0.00    +0.078 A 
ATOM     32  C   UNL     1       6.133  -0.786  -8.361  0.00  0.00    +0.029 A 
ATOM     33  C   UNL     1       6.822  -0.471  -9.491  0.00  0.00    +0.002 A 
ATOM     34  C   UNL     1       7.708   0.597  -9.530  0.00  0.00    +0.001 A 
ATOM     35  C   UNL     1       7.898   1.363  -8.395  0.00  0.00    +0.017 A 
ATOM     36  C   UNL     1       7.207   1.052  -7.248  0.00  0.00    +0.039 A 
ATOM     37  S   UNL     1       7.115   1.720  -5.606  0.00  0.00    -0.072 S 
ENDBRANCH  27  29
ENDBRANCH  20  21
ENDBRANCH   5  20
TORSDOF 4
