REMARK  Name = ZINC45891397
REMARK  5 active torsions:
REMARK  status: ('A' for Active; 'I' for Inactive)
REMARK    1  A    between atoms: C_1  and  C_2
REMARK    2  A    between atoms: C_6  and  C_23
REMARK    3  A    between atoms: C_16  and  C_17
REMARK    4  A    between atoms: N_25  and  C_26
REMARK    5  A    between atoms: C_32  and  C_34
REMARK                            x       y       z     vdW  Elec       q    Type
REMARK                         _______ _______ _______ _____ _____    ______ ____
ROOT
ATOM      1  C   UNL     1       0.036   2.256  -0.116  0.00  0.00    +0.008 C 
ATOM      2  C   UNL     1       0.126   0.780   0.279  0.00  0.00    -0.005 C 
ATOM      3  C   UNL     1      -1.278   0.190   0.367  0.00  0.00    +0.041 C 
ATOM      4  C   UNL     1      -1.244  -1.221   0.884  0.00  0.00    -0.009 A 
ATOM      5  C   UNL     1      -2.310  -2.064   0.599  0.00  0.00    +0.051 A 
ATOM      6  C   UNL     1      -2.253  -3.430   1.120  0.00  0.00    +0.013 A 
ATOM      7  C   UNL     1      -3.282  -4.347   0.882  0.00  0.00    +0.011 A 
ATOM      8  C   UNL     1      -3.189  -5.611   1.386  0.00  0.00    +0.001 A 
ATOM      9  C   UNL     1      -2.082  -6.000   2.137  0.00  0.00    +0.002 A 
ATOM     10  C   UNL     1      -1.063  -5.133   2.387  0.00  0.00    +0.028 A 
ATOM     11  C   UNL     1      -1.123  -3.820   1.883  0.00  0.00    +0.072 A 
ATOM     12  N   UNL     1      -0.142  -2.949   2.110  0.00  0.00    -0.247 NA
ATOM     13  C   UNL     1      -0.167  -1.708   1.647  0.00  0.00    +0.072 A 
ATOM     14  C   UNL     1       0.975  -0.819   1.941  0.00  0.00    -0.018 C 
ATOM     15  C   UNL     1       2.124  -1.306   2.456  0.00  0.00    +0.052 C 
ATOM     16  C   UNL     1       0.816   0.656   1.643  0.00  0.00    +0.041 C 
ENDROOT
BRANCH  15  17
ATOM     17  C   UNL     1       3.183  -0.389   2.878  0.00  0.00    +0.128 A 
ATOM     18  C   UNL     1       4.454  -0.741   3.240  0.00  0.00    +0.049 A 
ATOM     19  C   UNL     1       5.125   0.450   3.567  0.00  0.00    +0.042 A 
ATOM     20  C   UNL     1       4.247   1.461   3.394  0.00  0.00    +0.195 A 
ATOM     21  O   UNL     1       3.079   0.952   2.973  0.00  0.00    -0.464 OA
ENDBRANCH  15  17
BRANCH   5  22
ATOM     22  C   UNL     1      -3.462  -1.597  -0.202  0.00  0.00    +0.245 C 
ATOM     23  O   UNL     1      -3.451  -1.720  -1.411  0.00  0.00    -0.270 OA
ATOM     24  N   UNL     1      -4.524  -1.036   0.409  0.00  0.00    -0.308 N 
ATOM     25  H   UNL     1      -4.533  -0.937   1.374  0.00  0.00    +0.149 HD
BRANCH  24  26
ATOM     26  C   UNL     1      -5.666  -0.573  -0.385  0.00  0.00    +0.076 C 
ATOM     27  C   UNL     1      -5.392   0.844  -0.894  0.00  0.00    +0.041 C 
ATOM     28  C   UNL     1      -6.572   1.311  -1.752  0.00  0.00    +0.110 C 
ATOM     29  N   UNL     1      -7.808   1.179  -0.968  0.00  0.00    -0.297 N 
ATOM     30  C   UNL     1      -8.122  -0.119  -0.356  0.00  0.00    +0.110 C 
ATOM     31  C   UNL     1      -6.924  -0.570   0.486  0.00  0.00    +0.041 C 
ATOM     32  C   UNL     1      -8.638   2.230  -0.812  0.00  0.00    +0.250 C 
ATOM     33  O   UNL     1      -9.597   2.142  -0.070  0.00  0.00    -0.270 OA
BRANCH  32  34
ATOM     34  C   UNL     1      -8.382   3.485  -1.540  0.00  0.00    +0.074 A 
ATOM     35  C   UNL     1      -7.728   3.636  -2.849  0.00  0.00    +0.054 A 
ATOM     36  C   UNL     1      -7.719   4.953  -3.107  0.00  0.00    +0.195 A 
ATOM     37  O   UNL     1      -8.299   5.605  -2.087  0.00  0.00    -0.470 OA
ATOM     38  C   UNL     1      -8.707   4.750  -1.144  0.00  0.00    +0.207 A 
ENDBRANCH  32  34
ENDBRANCH  24  26
ENDBRANCH   5  22
TORSDOF 4
