REMARK  Name = ZINC02432065
REMARK  8 active torsions:
REMARK  status: ('A' for Active; 'I' for Inactive)
REMARK    1  A    between atoms: C_1  and  C_2
REMARK    2  A    between atoms: C_5  and  S_8
REMARK    3  A    between atoms: S_8  and  C_11
REMARK    4  A    between atoms: N_22  and  C_25
REMARK    5  A    between atoms: C_23  and  N_24
REMARK    6  A    between atoms: C_25  and  C_26
REMARK    7  A    between atoms: C_26  and  N_27
REMARK    8  A    between atoms: C_28  and  C_30
REMARK                            x       y       z     vdW  Elec       q    Type
REMARK                         _______ _______ _______ _____ _____    ______ ____
ROOT
ATOM      1  C   UNL     1      -2.001   2.483   1.708  0.00  0.00    +0.160 A 
ATOM      2  C   UNL     1      -2.776   1.602   2.499  0.00  0.00    +0.135 A 
ATOM      3  C   UNL     1      -2.875   2.231   3.823  0.00  0.00    +0.163 A 
ATOM      4  N   UNL     1      -3.544   1.629   4.781  0.00  0.00    -0.226 NA
ATOM      5  C   UNL     1      -4.138   0.453   4.542  0.00  0.00    +0.092 A 
ATOM      6  C   UNL     1      -4.861  -0.195   5.560  0.00  0.00    +0.030 A 
ATOM      7  C   UNL     1      -5.455  -1.393   5.311  0.00  0.00    +0.002 A 
ATOM      8  C   UNL     1      -5.360  -1.994   4.057  0.00  0.00    +0.002 A 
ATOM      9  C   UNL     1      -4.671  -1.398   3.048  0.00  0.00    +0.030 A 
ATOM     10  C   UNL     1      -4.042  -0.158   3.266  0.00  0.00    +0.090 A 
ATOM     11  N   UNL     1      -3.362   0.436   2.279  0.00  0.00    -0.240 NA
ATOM     12  N   UNL     1      -2.180   3.419   3.739  0.00  0.00    -0.310 N 
ATOM     13  C   UNL     1      -1.668   3.550   2.472  0.00  0.00    +0.126 A 
ENDROOT
BRANCH   1  14
ATOM     14  S   UNL     1      -1.554   2.238   0.022  0.00  0.00    +0.030 S 
ATOM     15  O   UNL     1      -1.304   3.526  -0.523  0.00  0.00    -0.164 OA
ATOM     16  O   UNL     1      -2.519   1.353  -0.529  0.00  0.00    -0.164 OA
BRANCH  14  21
ATOM     17  C   UNL     1       3.711  -0.707  -0.037  0.00  0.00    +0.044 C 
ATOM     18  C   UNL     1       2.396   0.029  -0.021  0.00  0.00    -0.050 A 
ATOM     19  C   UNL     1       1.208  -0.679  -0.013  0.00  0.00    +0.005 A 
ATOM     20  C   UNL     1       0.002  -0.004   0.002  0.00  0.00    +0.027 A 
ATOM     21  C   UNL     1      -0.017   1.378   0.010  0.00  0.00    +0.094 A 
ATOM     22  C   UNL     1       1.171   2.086   0.002  0.00  0.00    +0.027 A 
ATOM     23  C   UNL     1       2.377   1.411  -0.015  0.00  0.00    +0.005 A 
ENDBRANCH  14  21
ENDBRANCH   1  14
BRANCH  13  24
ATOM     24  N   UNL     1      -0.914   4.625   2.036  0.00  0.00    -0.343 N 
ATOM     25  H   UNL     1      -0.585   4.649   1.124  0.00  0.00    +0.144 HD
ATOM     26  H   UNL     1      -0.715   5.355   2.643  0.00  0.00    +0.144 HD
ENDBRANCH  13  24
BRANCH  12  27
ATOM     27  C   UNL     1      -2.015   4.386   4.827  0.00  0.00    +0.144 C 
BRANCH  27  28
ATOM     28  C   UNL     1      -3.163   5.397   4.788  0.00  0.00    +0.126 C 
BRANCH  28  29
ATOM     29  N   UNL     1      -2.998   6.364   5.876  0.00  0.00    -0.310 N 
ATOM     30  C   UNL     1      -3.897   7.355   6.039  0.00  0.00    +0.244 C 
ATOM     31  O   UNL     1      -4.845   7.446   5.283  0.00  0.00    -0.270 OA
ATOM     32  H   UNL     1      -2.242   6.292   6.479  0.00  0.00    +0.149 HD
BRANCH  30  33
ATOM     33  C   UNL     1      -3.731   8.331   7.136  0.00  0.00    +0.037 A 
ATOM     34  C   UNL     1      -2.647   8.225   8.010  0.00  0.00    +0.014 A 
ATOM     35  C   UNL     1      -2.494   9.142   9.028  0.00  0.00    +0.021 A 
ATOM     36  C   UNL     1      -3.419  10.159   9.193  0.00  0.00    +0.041 A 
ATOM     37  C   UNL     1      -4.500  10.265   8.333  0.00  0.00    +0.021 A 
ATOM     38  C   UNL     1      -4.661   9.358   7.308  0.00  0.00    +0.014 A 
ATOM     39 CL   UNL     1      -3.224  11.306  10.481  0.00  0.00    -0.084 Cl
ENDBRANCH  30  33
ENDBRANCH  28  29
ENDBRANCH  27  28
ENDBRANCH  12  27
TORSDOF 7
