REMARK  Name = ZINC02503807
REMARK  8 active torsions:
REMARK  status: ('A' for Active; 'I' for Inactive)
REMARK    1  A    between atoms: C_1  and  C_2
REMARK    2  A    between atoms: C_4  and  N_20
REMARK    3  A    between atoms: C_5  and  C_19
REMARK    4  A    between atoms: C_6  and  S_9
REMARK    5  A    between atoms: C_7  and  O_8
REMARK    6  A    between atoms: S_9  and  C_12
REMARK    7  A    between atoms: N_20  and  S_21
REMARK    8  A    between atoms: S_21  and  C_24
REMARK                            x       y       z     vdW  Elec       q    Type
REMARK                         _______ _______ _______ _____ _____    ______ ____
ROOT
ATOM      1  C   UNL     1       5.687   3.491  -1.956  0.00  0.00    +0.047 C 
ATOM      2  C   UNL     1       5.174   2.260  -2.659  0.00  0.00    -0.005 A 
ATOM      3  C   UNL     1       5.107   1.057  -1.984  0.00  0.00    +0.031 A 
ATOM      4  C   UNL     1       4.639  -0.077  -2.634  0.00  0.00    +0.053 A 
ATOM      5  C   UNL     1       4.228   0.001  -3.958  0.00  0.00    +0.001 A 
ATOM      6  C   UNL     1       4.290   1.207  -4.629  0.00  0.00    +0.140 A 
ATOM      7  C   UNL     1       4.763   2.338  -3.981  0.00  0.00    +0.145 A 
ATOM      8  C   UNL     1       3.715  -1.228  -4.662  0.00  0.00    +0.048 C 
ENDROOT
BRANCH   6   9
ATOM      9  S   UNL     1       3.769   1.307  -6.309  0.00  0.00    +0.029 S 
ATOM     10  O   UNL     1       2.794   0.290  -6.494  0.00  0.00    -0.164 OA
ATOM     11  O   UNL     1       3.499   2.678  -6.570  0.00  0.00    -0.164 OA
BRANCH   9  12
ATOM     12  C   UNL     1       5.151   0.867  -7.310  0.00  0.00    +0.094 A 
ATOM     13  C   UNL     1       6.029   1.843  -7.744  0.00  0.00    +0.029 A 
ATOM     14  C   UNL     1       7.116   1.497  -8.524  0.00  0.00    +0.022 A 
ATOM     15  C   UNL     1       7.319   0.176  -8.881  0.00  0.00    +0.041 A 
ATOM     16  C   UNL     1       6.437  -0.800  -8.451  0.00  0.00    +0.022 A 
ATOM     17  C   UNL     1       5.354  -0.454  -7.666  0.00  0.00    +0.029 A 
ATOM     18 CL   UNL     1       8.681  -0.258  -9.867  0.00  0.00    -0.084 Cl
ENDBRANCH   9  12
ENDBRANCH   6   9
BRANCH   7  19
ATOM     19  O   UNL     1       4.824   3.525  -4.643  0.00  0.00    -0.505 OA
ATOM     20  H   UNL     1       4.021   4.059  -4.568  0.00  0.00    +0.292 HD
ENDBRANCH   7  19
BRANCH   4  21
ATOM     21  N   UNL     1       4.577  -1.298  -1.953  0.00  0.00    -0.216 N 
ATOM     22  H   UNL     1       4.761  -2.126  -2.424  0.00  0.00    +0.174 HD
BRANCH  21  23
ATOM     23  S   UNL     1       4.187  -1.330  -0.344  0.00  0.00    +0.072 S 
ATOM     24  O   UNL     1       5.081  -0.438   0.308  0.00  0.00    -0.150 OA
ATOM     25  O   UNL     1       4.077  -2.699   0.021  0.00  0.00    -0.150 OA
BRANCH  23  26
ATOM     26  C   UNL     1       2.576  -0.635  -0.184  0.00  0.00    +0.108 A 
ATOM     27  C   UNL     1       1.461  -1.448  -0.259  0.00  0.00    +0.029 A 
ATOM     28  C   UNL     1       0.198  -0.903  -0.134  0.00  0.00    +0.002 A 
ATOM     29  C   UNL     1       0.048   0.457   0.066  0.00  0.00    +0.000 A 
ATOM     30  C   UNL     1       1.163   1.271   0.142  0.00  0.00    +0.002 A 
ATOM     31  C   UNL     1       2.427   0.725   0.017  0.00  0.00    +0.029 A 
ENDBRANCH  23  26
ENDBRANCH  21  23
ENDBRANCH   4  21
TORSDOF 6
