REMARK  Name = ZINC05245804
REMARK  4 active torsions:
REMARK  status: ('A' for Active; 'I' for Inactive)
REMARK    1  A    between atoms: C_1  and  O_2
REMARK    2  A    between atoms: O_2  and  C_3
REMARK    3  A    between atoms: C_6  and  C_9
REMARK    4  A    between atoms: C_14  and  C_19
REMARK                            x       y       z     vdW  Elec       q    Type
REMARK                         _______ _______ _______ _____ _____    ______ ____
ROOT
ATOM      1  C   UNL     1       2.587  -2.550   4.310  0.00  0.00    +0.175 C 
ATOM      2  C   UNL     1       1.597  -3.432   5.039  0.00  0.00    +0.041 C 
ATOM      3  C   UNL     1       1.625  -4.778   4.938  0.00  0.00    +0.020 C 
ATOM      4  C   UNL     1       0.624  -5.633   5.678  0.00  0.00    +0.060 C 
ATOM      5  C   UNL     1      -0.694  -4.872   5.828  0.00  0.00    +0.032 C 
ATOM      6  C   UNL     1      -0.414  -3.567   6.582  0.00  0.00    +0.088 C 
ATOM      7  C   UNL     1       0.633  -2.788   5.836  0.00  0.00    +0.164 C 
ATOM      8  O   UNL     1       0.648  -1.576   5.924  0.00  0.00    -0.292 OA
ATOM      9  N   UNL     1       2.560  -5.428   4.168  0.00  0.00    -0.287 N 
ATOM     10  C   UNL     1       3.663  -4.707   3.739  0.00  0.00    +0.218 A 
ATOM     11  N   UNL     1       3.691  -3.355   3.804  0.00  0.00    -0.221 N 
ATOM     12  N   UNL     1       4.933  -2.964   3.306  0.00  0.00    -0.156 NA
ATOM     13  C   UNL     1       5.568  -4.060   2.971  0.00  0.00    +0.247 A 
ATOM     14  N   UNL     1       4.796  -5.111   3.234  0.00  0.00    -0.201 NA
ATOM     15  H   UNL     1       2.452  -6.362   3.933  0.00  0.00    +0.155 HD
ENDROOT
BRANCH   1  19
ATOM     16  C   UNL     1       0.626  -0.618   1.042  0.00  0.00    +0.120 A 
ATOM     17  C   UNL     1       1.202   0.138   2.051  0.00  0.00    +0.046 A 
ATOM     18  C   UNL     1       1.835  -0.488   3.107  0.00  0.00    +0.009 A 
ATOM     19  C   UNL     1       1.895  -1.869   3.158  0.00  0.00    -0.018 A 
ATOM     20  C   UNL     1       1.322  -2.625   2.152  0.00  0.00    +0.009 A 
ATOM     21  C   UNL     1       0.682  -2.003   1.098  0.00  0.00    +0.046 A 
BRANCH  16  23
ATOM     22  C   UNL     1      -0.017   1.425   0.010  0.00  0.00    +0.277 C 
ATOM     23  O   UNL     1       0.002  -0.004   0.002  0.00  0.00    -0.495 OA
ENDBRANCH  16  23
ENDBRANCH   1  19
BRANCH   5  24
ATOM     24  C   UNL     1      -1.679  -5.707   6.605  0.00  0.00    -0.044 A 
ATOM     25  C   UNL     1      -1.382  -6.102   7.896  0.00  0.00    +0.004 A 
ATOM     26  C   UNL     1      -2.285  -6.869   8.609  0.00  0.00    +0.000 A 
ATOM     27  C   UNL     1      -3.485  -7.240   8.031  0.00  0.00    +0.000 A 
ATOM     28  C   UNL     1      -3.782  -6.844   6.740  0.00  0.00    +0.000 A 
ATOM     29  C   UNL     1      -2.881  -6.074   6.029  0.00  0.00    +0.004 A 
ENDBRANCH   5  24
TORSDOF 3
