REMARK  Name = ZINC45067896
REMARK  7 active torsions:
REMARK  status: ('A' for Active; 'I' for Inactive)
REMARK    1  A    between atoms: C_5  and  C_6
REMARK    2  A    between atoms: C_6  and  N_7
REMARK    3  A    between atoms: N_7  and  C_8
REMARK    4  A    between atoms: C_8  and  C_9
REMARK    5  A    between atoms: C_9  and  C_10
REMARK    6  A    between atoms: C_10  and  S_11
REMARK    7  A    between atoms: S_11  and  N_14
REMARK                            x       y       z     vdW  Elec       q    Type
REMARK                         _______ _______ _______ _____ _____    ______ ____
ROOT
ATOM      1  N   UNL     1      -1.546  -1.275  -1.375  0.00  0.00    +0.382 N 
ATOM      2  H   UNL     1      -1.819  -0.424  -1.843  0.00  0.00    -0.085 HD
ATOM      3  H   UNL     1      -0.764  -1.690  -1.860  0.00  0.00    -0.085 HD
ENDROOT
BRANCH   1   4
ATOM      4  C   UNL     1      -1.156  -0.969   0.008  0.00  0.00    -0.039 C 
BRANCH   4   9
ATOM      5  C   UNL     1      -0.016   1.351   0.009  0.00  0.00    +0.024 A 
ATOM      6  C   UNL     1       1.184   2.038   0.002  0.00  0.00    +0.025 A 
ATOM      7  C   UNL     1       2.343   1.335  -0.013  0.00  0.00    +0.060 A 
ATOM      8  S   UNL     1       1.753  -0.350  -0.017  0.00  0.00    -0.102 S 
ATOM      9  C   UNL     1       0.002  -0.004   0.002  0.00  0.00    -0.026 A 
ATOM     10 BR   UNL     1       1.208   3.929   0.011  0.00  0.00    -0.050 Br
ENDBRANCH   4   9
ENDBRANCH   1   4
BRANCH   1  11
ATOM     11  C   UNL     1      -2.674  -2.215  -1.368  0.00  0.00    -0.081 C 
BRANCH  11  12
ATOM     12  C   UNL     1      -3.080  -2.534  -2.809  0.00  0.00    +0.005 C 
BRANCH  12  13
ATOM     13  C   UNL     1      -4.255  -3.514  -2.802  0.00  0.00    +0.183 C 
BRANCH  13  14
ATOM     14  S   UNL     1      -4.737  -3.891  -4.510  0.00  0.00    +0.027 S 
ATOM     15  O   UNL     1      -5.293  -2.739  -5.128  0.00  0.00    -0.158 OA
ATOM     16  O   UNL     1      -3.712  -4.636  -5.154  0.00  0.00    -0.158 OA
BRANCH  14  17
ATOM     17  N   UNL     1      -6.004  -4.949  -4.371  0.00  0.00    -0.208 NA
ATOM     18  H   UNL     1      -6.315  -5.220  -3.493  0.00  0.00    +0.144 HD
ATOM     19  H   UNL     1      -6.435  -5.297  -5.167  0.00  0.00    +0.144 HD
ENDBRANCH  14  17
ENDBRANCH  13  14
ENDBRANCH  12  13
ENDBRANCH  11  12
ENDBRANCH   1  11
TORSDOF 7
