REMARK  Name = ZINC35543559
REMARK  10 active torsions:
REMARK  status: ('A' for Active; 'I' for Inactive)
REMARK    1  A    between atoms: C_1  and  C_2
REMARK    2  A    between atoms: C_2  and  C_3
REMARK    3  A    between atoms: C_3  and  C_5
REMARK    4  A    between atoms: C_3  and  N_6
REMARK    5  A    between atoms: C_7  and  C_9
REMARK    6  A    between atoms: N_22  and  C_25
REMARK    7  A    between atoms: C_25  and  C_26
REMARK    8  A    between atoms: N_28  and  C_29
REMARK    9  A    between atoms: C_29  and  C_30
REMARK   10  A    between atoms: C_29  and  C_31
REMARK                            x       y       z     vdW  Elec       q    Type
REMARK                         _______ _______ _______ _____ _____    ______ ____
ROOT
ATOM      1  C   UNL     1      -0.234   0.422  -4.849  0.00  0.00    +0.098 C 
ATOM      2  C   UNL     1      -0.924   1.740  -4.564  0.00  0.00    +0.051 C 
ATOM      3  C   UNL     1       0.021   2.903  -4.657  0.00  0.00    -0.026 A 
ATOM      4  C   UNL     1      -0.204   4.033  -3.892  0.00  0.00    +0.005 A 
ATOM      5  C   UNL     1       0.658   5.110  -3.973  0.00  0.00    +0.000 A 
ATOM      6  C   UNL     1       1.750   5.062  -4.821  0.00  0.00    +0.002 A 
ATOM      7  C   UNL     1       1.981   3.937  -5.587  0.00  0.00    +0.023 A 
ATOM      8  C   UNL     1       1.116   2.851  -5.506  0.00  0.00    +0.033 A 
ATOM      9  N   UNL     1       1.356   1.717  -6.271  0.00  0.00    -0.329 N 
ATOM     10  C   UNL     1       0.691   0.446  -6.035  0.00  0.00    +0.069 C 
ATOM     11  C   UNL     1      -0.007   0.008  -7.323  0.00  0.00    -0.055 C 
ATOM     12  N   UNL     1       0.980  -0.025  -8.412  0.00  0.00    +0.388 N 
ATOM     13  C   UNL     1       1.528   1.315  -8.652  0.00  0.00    -0.059 C 
ATOM     14  C   UNL     1       2.291   1.785  -7.412  0.00  0.00    +0.087 C 
ATOM     15  H   UNL     1       1.730  -0.652  -8.163  0.00  0.00    -0.081 HD
ENDROOT
BRANCH   1  17
ATOM     16  N   UNL     1      -0.055  -0.114  -2.441  0.00  0.00    -0.312 N 
ATOM     17  C   UNL     1       0.561   0.028  -3.631  0.00  0.00    +0.218 C 
ATOM     18  O   UNL     1       1.755  -0.162  -3.722  0.00  0.00    -0.275 OA
ATOM     19  H   UNL     1      -1.010   0.038  -2.368  0.00  0.00    +0.149 HD
BRANCH  16  20
ATOM     20  C   UNL     1       0.718  -0.497  -1.257  0.00  0.00    +0.070 C 
ATOM     21  C   UNL     1       0.849  -2.021  -1.205  0.00  0.00    +0.028 C 
BRANCH  20  23
ATOM     22  C   UNL     1      -0.019   1.526   0.010  0.00  0.00    +0.005 C 
ATOM     23  C   UNL     1       0.002  -0.004   0.002  0.00  0.00    +0.018 C 
ENDBRANCH  20  23
ENDBRANCH  16  20
ENDBRANCH   1  17
BRANCH  12  24
ATOM     24  C   UNL     1       0.332  -0.510  -9.638  0.00  0.00    +0.019 C 
BRANCH  24  25
ATOM     25  C   UNL     1       1.364  -0.662 -10.726  0.00  0.00    +0.197 C 
ATOM     26  O   UNL     1       2.525  -0.394 -10.501  0.00  0.00    -0.278 OA
ATOM     27  N   UNL     1       0.997  -1.097 -11.947  0.00  0.00    -0.315 N 
ATOM     28  H   UNL     1       0.068  -1.312 -12.127  0.00  0.00    +0.149 HD
BRANCH  27  29
ATOM     29  C   UNL     1       2.000  -1.245 -13.004  0.00  0.00    +0.067 C 
ATOM     30  C   UNL     1       2.673  -2.614 -12.881  0.00  0.00    +0.027 C 
ATOM     31  C   UNL     1       1.322  -1.132 -14.371  0.00  0.00    +0.027 C 
ENDBRANCH  27  29
ENDBRANCH  24  25
ENDBRANCH  12  24
TORSDOF 6
