REMARK  Name = ZINC38704076
REMARK  10 active torsions:
REMARK  status: ('A' for Active; 'I' for Inactive)
REMARK    1  A    between atoms: C_1  and  C_2
REMARK    2  A    between atoms: C_2  and  C_3
REMARK    3  A    between atoms: N_9  and  S_10
REMARK    4  A    between atoms: S_10  and  C_13
REMARK    5  A    between atoms: C_16  and  N_19
REMARK    6  A    between atoms: C_20  and  C_22
REMARK    7  A    between atoms: C_24  and  C_28
REMARK    8  A    between atoms: C_29  and  C_36
REMARK    9  A    between atoms: C_31  and  C_35
REMARK   10  A    between atoms: C_33  and  O_34
REMARK                            x       y       z     vdW  Elec       q    Type
REMARK                         _______ _______ _______ _____ _____    ______ ____
ROOT
ATOM      1  N   UNL     1       0.521   6.692  -2.707  0.00  0.00    -0.280 N 
ATOM      2  C   UNL     1       0.026   7.487  -3.676  0.00  0.00    +0.266 C 
ATOM      3  O   UNL     1      -0.859   7.079  -4.405  0.00  0.00    -0.268 OA
ATOM      4  H   UNL     1       1.170   7.042  -2.077  0.00  0.00    +0.155 HD
ENDROOT
BRANCH   1   8
ATOM      5  C   UNL     1      -0.737   2.732  -2.418  0.00  0.00    +0.106 A 
ATOM      6  C   UNL     1      -0.428   3.443  -1.273  0.00  0.00    +0.030 A 
ATOM      7  C   UNL     1      -0.011   4.756  -1.366  0.00  0.00    +0.025 A 
ATOM      8  C   UNL     1       0.099   5.362  -2.610  0.00  0.00    +0.034 A 
ATOM      9  C   UNL     1      -0.211   4.645  -3.759  0.00  0.00    +0.025 A 
ATOM     10  C   UNL     1      -0.624   3.331  -3.660  0.00  0.00    +0.030 A 
BRANCH   5  11
ATOM     11  S   UNL     1      -1.269   1.056  -2.296  0.00  0.00    +0.061 S 
ATOM     12  O   UNL     1      -2.143   0.827  -3.393  0.00  0.00    -0.153 OA
ATOM     13  O   UNL     1      -1.670   0.855  -0.948  0.00  0.00    -0.153 OA
BRANCH  11  19
ATOM     14  C   UNL     1       1.015  -0.149  -1.454  0.00  0.00    +0.080 C 
ATOM     15  C   UNL     1       1.196  -1.662  -1.291  0.00  0.00    +0.021 C 
ATOM     16  C   UNL     1       1.603  -2.270  -2.635  0.00  0.00    +0.003 C 
ATOM     17  C   UNL     1       0.497  -2.025  -3.664  0.00  0.00    +0.017 C 
ATOM     18  C   UNL     1       0.307  -0.516  -3.854  0.00  0.00    +0.110 C 
ATOM     19  N   UNL     1       0.061   0.101  -2.543  0.00  0.00    -0.174 NA
BRANCH  14  21
ATOM     20  C   UNL     1       1.526   0.299   0.950  0.00  0.00    +0.005 C 
ATOM     21  C   UNL     1       0.475   0.446  -0.152  0.00  0.00    +0.017 C 
ENDBRANCH  14  21
ENDBRANCH  11  19
ENDBRANCH   5  11
ENDBRANCH   1   8
BRANCH   2  22
ATOM     22  C   UNL     1       0.556   8.848  -3.853  0.00  0.00    +0.121 A 
ATOM     23  C   UNL     1       0.150   9.779  -4.791  0.00  0.00    +0.062 A 
ATOM     24  C   UNL     1       0.949  10.914  -4.558  0.00  0.00    +0.097 A 
ATOM     25  N   UNL     1       1.751  10.635  -3.552  0.00  0.00    -0.173 NA
ATOM     26  N   UNL     1       1.542   9.444  -3.118  0.00  0.00    -0.272 N 
ATOM     27  H   UNL     1       2.015   9.029  -2.381  0.00  0.00    +0.189 HD
BRANCH  24  28
ATOM     28  C   UNL     1       0.896  12.192  -5.310  0.00  0.00    +0.046 A 
ATOM     29  C   UNL     1       1.753  13.237  -4.973  0.00  0.00    -0.037 A 
ATOM     30  C   UNL     1       1.701  14.424  -5.676  0.00  0.00    +0.007 A 
ATOM     31  C   UNL     1       0.799  14.580  -6.713  0.00  0.00    -0.047 A 
ATOM     32  C   UNL     1      -0.056  13.550  -7.055  0.00  0.00    +0.049 A 
ATOM     33  C   UNL     1      -0.010  12.351  -6.362  0.00  0.00    +0.127 A 
ATOM     34  C   UNL     1       0.749  15.880  -7.474  0.00  0.00    +0.044 C 
ATOM     35  C   UNL     1       2.737  13.071  -3.844  0.00  0.00    +0.044 C 
BRANCH  33  36
ATOM     36  O   UNL     1      -0.847  11.335  -6.700  0.00  0.00    -0.506 OA
ATOM     37  H   UNL     1      -1.692  11.350  -6.232  0.00  0.00    +0.292 HD
ENDBRANCH  33  36
ENDBRANCH  24  28
ENDBRANCH   2  22
TORSDOF 7
