REMARK  Name = ZINC01425685
REMARK  8 active torsions:
REMARK  status: ('A' for Active; 'I' for Inactive)
REMARK    1  A    between atoms: C_1  and  O_2
REMARK    2  A    between atoms: O_2  and  C_3
REMARK    3  A    between atoms: C_3  and  C_4
REMARK    4  A    between atoms: C_11  and  N_29
REMARK    5  A    between atoms: C_12  and  C_27
REMARK    6  A    between atoms: C_13  and  C_15
REMARK    7  A    between atoms: C_18  and  O_21
REMARK    8  A    between atoms: O_21  and  C_22
REMARK                            x       y       z     vdW  Elec       q    Type
REMARK                         _______ _______ _______ _____ _____    ______ ____
ROOT
ATOM      1  C   UNL     1       0.812  -1.618   1.007  0.00  0.00    +0.069 A 
ATOM      2  C   UNL     1       1.167  -2.655   1.780  0.00  0.00    +0.051 A 
ATOM      3  C   UNL     1       0.775  -3.844   1.127  0.00  0.00    +0.245 A 
ATOM      4  N   UNL     1       0.204  -3.517   0.005  0.00  0.00    -0.135 NA
ATOM      5  N   UNL     1       0.208  -2.117  -0.096  0.00  0.00    -0.276 N 
ATOM      6  H   UNL     1      -0.156  -1.598  -0.830  0.00  0.00    +0.189 HD
ATOM      7  O   UNL     1       1.004  -5.072   1.666  0.00  0.00    -0.421 OA
ATOM      8  C   UNL     1       1.854  -5.143   2.709  0.00  0.00    +0.201 C 
ATOM      9  C   UNL     1       2.289  -4.079   3.417  0.00  0.00    +0.098 C 
ATOM     10  C   UNL     1       1.862  -2.664   3.118  0.00  0.00    +0.101 C 
ENDROOT
BRANCH  10  11
ATOM     11  C   UNL     1       0.915  -2.183   4.187  0.00  0.00    -0.034 A 
ATOM     12  C   UNL     1      -0.262  -2.869   4.426  0.00  0.00    +0.008 A 
ATOM     13  C   UNL     1      -1.132  -2.430   5.404  0.00  0.00    +0.046 A 
ATOM     14  C   UNL     1      -0.825  -1.300   6.148  0.00  0.00    +0.121 A 
ATOM     15  C   UNL     1       0.356  -0.614   5.907  0.00  0.00    +0.046 A 
ATOM     16  C   UNL     1       1.226  -1.060   4.931  0.00  0.00    +0.008 A 
BRANCH  14  17
ATOM     17  O   UNL     1      -1.680  -0.866   7.111  0.00  0.00    -0.489 OA
BRANCH  17  18
ATOM     18  C   UNL     1      -2.816  -1.688   7.388  0.00  0.00    +0.173 C 
ATOM     19  C   UNL     1      -3.975  -1.324   6.437  0.00  0.00    +0.044 C 
ATOM     20  C   UNL     1      -5.244  -1.457   7.316  0.00  0.00    +0.004 C 
ATOM     21  C   UNL     1      -4.770  -0.909   8.685  0.00  0.00    +0.004 C 
ATOM     22  C   UNL     1      -3.321  -1.424   8.818  0.00  0.00    +0.044 C 
ENDBRANCH  17  18
ENDBRANCH  14  17
ENDBRANCH  10  11
BRANCH   8  23
ATOM     23  N   UNL     1       2.310  -6.384   3.079  0.00  0.00    -0.328 N 
ATOM     24  H   UNL     1       2.018  -7.172   2.594  0.00  0.00    +0.145 HD
ATOM     25  H   UNL     1       2.923  -6.474   3.825  0.00  0.00    +0.145 HD
ENDBRANCH   8  23
BRANCH   9  26
ATOM     26  C   UNL     1       3.197  -4.304   4.501  0.00  0.00    +0.101 C 
ATOM     27  N   UNL     1       3.917  -4.483   5.361  0.00  0.00    -0.191 NA
ENDBRANCH   9  26
BRANCH   1  28
ATOM     28  C   UNL     1       1.038  -0.160   1.315  0.00  0.00    +0.214 C 
BRANCH  28  30
ATOM     29  C   UNL     1       0.676   2.044   0.447  0.00  0.00    +0.194 C 
ATOM     30  O   UNL     1       0.513   0.638   0.253  0.00  0.00    -0.377 OA
ENDBRANCH  28  30
ENDBRANCH   1  28
TORSDOF 7
