REMARK  Name = ZINC19228088
REMARK  3 active torsions:
REMARK  status: ('A' for Active; 'I' for Inactive)
REMARK    1  A    between atoms: C_14  and  N_17
REMARK    2  A    between atoms: N_17  and  C_18
REMARK    3  A    between atoms: C_18  and  C_19
REMARK                            x       y       z     vdW  Elec       q    Type
REMARK                         _______ _______ _______ _____ _____    ______ ____
ROOT
ATOM      1  C   UNL     1      -7.501  10.092  -0.110  0.00  0.00    +0.002 A 
ATOM      2  C   UNL     1      -7.445  11.476  -0.176  0.00  0.00    +0.001 A 
ATOM      3  C   UNL     1      -6.238  12.093  -0.448  0.00  0.00    +0.017 A 
ATOM      4  C   UNL     1      -5.116  11.329  -0.649  0.00  0.00    +0.041 A 
ATOM      5  C   UNL     1      -5.135   9.917  -0.590  0.00  0.00    +0.080 A 
ATOM      6  C   UNL     1      -6.386   9.320  -0.310  0.00  0.00    +0.029 A 
ATOM      7  N   UNL     1      -3.951   9.305  -0.816  0.00  0.00    -0.225 NA
ATOM      8  C   UNL     1      -2.848   9.974  -1.063  0.00  0.00    +0.162 A 
ATOM      9  S   UNL     1      -3.411  11.670  -1.013  0.00  0.00    -0.052 S 
ATOM     10  N   UNL     1      -1.579   9.490  -1.306  0.00  0.00    -0.311 N 
ATOM     11  C   UNL     1      -1.064   9.984  -2.589  0.00  0.00    +0.107 C 
ATOM     12  C   UNL     1       0.394   9.549  -2.757  0.00  0.00    +0.017 C 
ATOM     13  C   UNL     1       0.474   8.020  -2.708  0.00  0.00    -0.013 C 
ATOM     14  C   UNL     1      -0.113   7.529  -1.382  0.00  0.00    -0.054 C 
ATOM     15  C   UNL     1      -1.556   8.023  -1.254  0.00  0.00    +0.091 C 
ENDROOT
BRANCH  14  16
ATOM     16  N   UNL     1      -0.093   6.061  -1.351  0.00  0.00    +0.385 N 
ATOM     17  H   UNL     1      -0.990   5.671  -1.853  0.00  0.00    -0.085 HD
ATOM     18  H   UNL     1       0.806   5.695  -1.869  0.00  0.00    -0.085 HD
BRANCH  16  19
ATOM     19  C   UNL     1      -0.073   5.564   0.032  0.00  0.00    -0.043 C 
BRANCH  19  20
ATOM     20  C   UNL     1      -0.053   4.057   0.023  0.00  0.00    -0.028 A 
ATOM     21  C   UNL     1       1.148   3.365   0.009  0.00  0.00    +0.117 A 
ATOM     22  N   UNL     1       1.131   2.042   0.002  0.00  0.00    -0.223 NA
ATOM     23  C   UNL     1      -0.017   1.380   0.010  0.00  0.00    +0.212 A 
ATOM     24  N   UNL     1      -1.182   2.011   0.019  0.00  0.00    -0.223 NA
ATOM     25  C   UNL     1      -1.235   3.332   0.031  0.00  0.00    +0.117 A 
ATOM     26  N   UNL     1       0.002  -0.004   0.002  0.00  0.00    -0.327 N 
ATOM     27  H   UNL     1      -0.943  -0.567   0.008  0.00  0.00    +0.145 HD
ATOM     28  H   UNL     1       0.962  -0.541  -0.010  0.00  0.00    +0.145 HD
ENDBRANCH  19  20
ENDBRANCH  16  19
ENDBRANCH  14  16
TORSDOF 3
