REMARK  Name = ZINC32535605
REMARK  11 active torsions:
REMARK  status: ('A' for Active; 'I' for Inactive)
REMARK    1  A    between atoms: C_1  and  C_2
REMARK    2  A    between atoms: C_3  and  C_27
REMARK    3  A    between atoms: C_8  and  C_10
REMARK    4  A    between atoms: C_10  and  C_12
REMARK    5  A    between atoms: C_10  and  N_13
REMARK    6  A    between atoms: C_17  and  S_18
REMARK    7  A    between atoms: S_18  and  C_19
REMARK    8  A    between atoms: C_19  and  C_20
REMARK    9  A    between atoms: C_27  and  O_29
REMARK   10  A    between atoms: O_29  and  C_30
REMARK   11  A    between atoms: C_30  and  C_31
REMARK                            x       y       z     vdW  Elec       q    Type
REMARK                         _______ _______ _______ _____ _____    ______ ____
ROOT
ATOM      1  C   UNL     1       9.573   1.139  -9.770  0.00  0.00    +0.067 C 
ATOM      2  C   UNL     1       9.447   0.729  -8.325  0.00  0.00    +0.062 A 
ATOM      3  C   UNL     1      10.418   1.076  -7.394  0.00  0.00    +0.120 A 
ATOM      4  S   UNL     1       9.735   0.335  -5.918  0.00  0.00    -0.045 S 
ATOM      5  C   UNL     1       8.302  -0.329  -6.639  0.00  0.00    +0.165 A 
ATOM      6  N   UNL     1       8.425   0.031  -7.907  0.00  0.00    -0.229 NA
ATOM      7  N   UNL     1       7.288  -1.057  -6.040  0.00  0.00    -0.263 N 
ATOM      8  C   UNL     1       7.344  -1.331  -4.722  0.00  0.00    +0.241 C 
ATOM      9  O   UNL     1       8.282  -0.940  -4.060  0.00  0.00    -0.273 OA
ATOM     10  H   UNL     1       6.438  -1.412  -6.640  0.00  0.00    +0.157 HD
ENDROOT
BRANCH   8  11
ATOM     11  C   UNL     1       6.241  -2.124  -4.070  0.00  0.00    +0.175 C 
ATOM     12  C   UNL     1       6.144  -3.501  -4.730  0.00  0.00    +0.041 C 
BRANCH  11  13
ATOM     13  N   UNL     1       6.533  -2.286  -2.643  0.00  0.00    -0.279 N 
ATOM     14  C   UNL     1       7.633  -2.900  -2.114  0.00  0.00    +0.216 A 
ATOM     15  N   UNL     1       7.537  -2.846  -0.808  0.00  0.00    -0.113 NA
ATOM     16  N   UNL     1       6.349  -2.176  -0.488  0.00  0.00    -0.121 NA
ATOM     17  C   UNL     1       5.754  -1.850  -1.609  0.00  0.00    +0.194 A 
ATOM     18  N   UNL     1       8.670  -3.479  -2.833  0.00  0.00    -0.328 N 
ATOM     19  H   UNL     1       9.512  -3.949  -2.303  0.00  0.00    +0.145 HD
ATOM     20  H   UNL     1       8.650  -3.468  -3.933  0.00  0.00    +0.145 HD
BRANCH  17  21
ATOM     21  S   UNL     1       4.221  -0.993  -1.756  0.00  0.00    -0.081 S 
BRANCH  21  22
ATOM     22  C   UNL     1       3.711  -0.707  -0.039  0.00  0.00    +0.112 C 
BRANCH  22  23
ATOM     23  C   UNL     1       2.396   0.029  -0.022  0.00  0.00    -0.037 A 
ATOM     24  C   UNL     1       1.208  -0.679  -0.014  0.00  0.00    +0.004 A 
ATOM     25  C   UNL     1       0.002  -0.004   0.002  0.00  0.00    +0.000 A 
ATOM     26  C   UNL     1      -0.017   1.378   0.010  0.00  0.00    +0.000 A 
ATOM     27  C   UNL     1       1.171   2.086   0.002  0.00  0.00    +0.000 A 
ATOM     28  C   UNL     1       2.377   1.411  -0.014  0.00  0.00    +0.004 A 
ENDBRANCH  22  23
ENDBRANCH  21  22
ENDBRANCH  17  21
ENDBRANCH  11  13
ENDBRANCH   8  11
BRANCH   3  29
ATOM     29  C   UNL     1      11.653   1.835  -7.571  0.00  0.00    +0.348 C 
ATOM     30  O   UNL     1      11.951   2.265  -8.670  0.00  0.00    -0.244 OA
BRANCH  29  31
ATOM     31  O   UNL     1      12.464   2.060  -6.517  0.00  0.00    -0.456 OA
BRANCH  31  32
ATOM     32  C   UNL     1      13.656   2.810  -6.763  0.00  0.00    +0.268 C 
BRANCH  32  33
ATOM     33  C   UNL     1      14.429   2.960  -5.478  0.00  0.00    -0.010 A 
ATOM     34  C   UNL     1      14.199   4.046  -4.655  0.00  0.00    +0.007 A 
ATOM     35  C   UNL     1      14.905   4.181  -3.474  0.00  0.00    +0.000 A 
ATOM     36  C   UNL     1      15.849   3.235  -3.122  0.00  0.00    +0.000 A 
ATOM     37  C   UNL     1      16.084   2.152  -3.948  0.00  0.00    +0.000 A 
ATOM     38  C   UNL     1      15.374   2.014  -5.126  0.00  0.00    +0.007 A 
ENDBRANCH  32  33
ENDBRANCH  31  32
ENDBRANCH  29  31
ENDBRANCH   3  29
TORSDOF 9
