REMARK  Name = ZINC08921102
REMARK  9 active torsions:
REMARK  status: ('A' for Active; 'I' for Inactive)
REMARK    1  A    between atoms: C_1  and  C_2
REMARK    2  A    between atoms: C_5  and  S_27
REMARK    3  A    between atoms: N_6  and  N_7
REMARK    4  A    between atoms: C_8  and  C_9
REMARK    5  A    between atoms: C_11  and  O_25
REMARK    6  A    between atoms: C_12  and  O_16
REMARK    7  A    between atoms: O_16  and  C_17
REMARK    8  A    between atoms: C_17  and  C_18
REMARK    9  A    between atoms: O_25  and  C_26
REMARK                            x       y       z     vdW  Elec       q    Type
REMARK                         _______ _______ _______ _____ _____    ______ ____
ROOT
ATOM      1  C   UNL     1       1.078   3.535   0.011  0.00  0.00    -0.001 A 
ATOM      2  C   UNL     1       2.278   4.252   0.003  0.00  0.00    +0.059 A 
ATOM      3  C   UNL     1       2.254   5.633   0.011  0.00  0.00    +0.163 A 
ATOM      4  C   UNL     1       1.035   6.309   0.026  0.00  0.00    +0.176 A 
ATOM      5  C   UNL     1      -0.156   5.598   0.034  0.00  0.00    +0.064 A 
ATOM      6  C   UNL     1      -0.140   4.218   0.020  0.00  0.00    +0.028 A 
ATOM      7 BR   UNL     1      -1.806   6.522   0.055  0.00  0.00    -0.046 Br
ENDROOT
BRANCH   1   9
ATOM      8  N   UNL     1      -0.017   1.397   0.010  0.00  0.00    -0.171 NA
ATOM      9  C   UNL     1       1.098   2.061   0.003  0.00  0.00    +0.141 C 
BRANCH   8  15
ATOM     10  C   UNL     1       0.031  -0.418   2.536  0.00  0.00    +0.090 C 
ATOM     11  C   UNL     1       0.024  -0.838   1.089  0.00  0.00    +0.152 A 
ATOM     12  N   UNL     1       0.036  -2.061   0.639  0.00  0.00    -0.132 NA
ATOM     13  N   UNL     1       0.024  -2.060  -0.646  0.00  0.00    -0.121 NA
ATOM     14  C   UNL     1      -0.003  -0.825  -1.093  0.00  0.00    +0.209 A 
ATOM     15  N   UNL     1       0.002  -0.004   0.002  0.00  0.00    -0.192 N 
BRANCH  14  16
ATOM     16  S   UNL     1      -0.036  -0.322  -2.781  0.00  0.00    -0.102 S 
ATOM     17  H   UNL     1       1.348  -0.232  -3.037  0.00  0.00    +0.110 HD
ENDBRANCH  14  16
ENDBRANCH   8  15
ENDBRANCH   1   9
BRANCH   3  18
ATOM     18  O   UNL     1       3.420   6.334   0.004  0.00  0.00    -0.491 OA
ATOM     19  C   UNL     1       4.631   5.576  -0.011  0.00  0.00    +0.277 C 
ENDBRANCH   3  18
BRANCH   4  20
ATOM     20  O   UNL     1       1.014   7.668   0.033  0.00  0.00    -0.483 OA
BRANCH  20  21
ATOM     21  C   UNL     1       0.992   8.323  -1.236  0.00  0.00    +0.264 C 
BRANCH  21  22
ATOM     22  C   UNL     1       0.970   9.816  -1.031  0.00  0.00    -0.010 A 
ATOM     23  C   UNL     1      -0.237  10.483  -0.931  0.00  0.00    +0.008 A 
ATOM     24  C   UNL     1      -0.257  11.851  -0.738  0.00  0.00    +0.015 A 
ATOM     25  C   UNL     1       0.930  12.555  -0.656  0.00  0.00    +0.018 A 
ATOM     26  C   UNL     1       2.138  11.889  -0.761  0.00  0.00    +0.015 A 
ATOM     27  C   UNL     1       2.157  10.520  -0.949  0.00  0.00    +0.008 A 
ATOM     28 BR   UNL     1       0.903  14.429  -0.398  0.00  0.00    -0.050 Br
ENDBRANCH  21  22
ENDBRANCH  20  21
ENDBRANCH   4  20
TORSDOF 7
