REMARK  Name = ZINC35147876
REMARK  8 active torsions:
REMARK  status: ('A' for Active; 'I' for Inactive)
REMARK    1  A    between atoms: C_1  and  C_2
REMARK    2  A    between atoms: C_2  and  C_3
REMARK    3  A    between atoms: C_3  and  C_5
REMARK    4  A    between atoms: C_3  and  C_6
REMARK    5  A    between atoms: C_6  and  C_8
REMARK    6  A    between atoms: C_6  and  N_23
REMARK    7  A    between atoms: C_14  and  C_16
REMARK    8  A    between atoms: N_26  and  C_27
REMARK                            x       y       z     vdW  Elec       q    Type
REMARK                         _______ _______ _______ _____ _____    ______ ____
ROOT
ATOM      1  C   UNL     1       0.826  -1.992  -1.250  0.00  0.00    +0.163 C 
ENDROOT
BRANCH   1   2
ATOM      2  C   UNL     1      -0.558  -2.549  -1.460  0.00  0.00    +0.239 C 
ATOM      3  O   UNL     1      -1.095  -3.187  -0.579  0.00  0.00    -0.273 OA
ATOM      4  N   UNL     1      -1.200  -2.339  -2.626  0.00  0.00    -0.262 N 
ATOM      5  C   UNL     1      -2.431  -2.939  -2.861  0.00  0.00    +0.188 A 
ATOM      6  N   UNL     1      -3.150  -3.740  -2.085  0.00  0.00    -0.125 NA
ATOM      7  N   UNL     1      -4.263  -4.205  -2.455  0.00  0.00    -0.140 NA
ATOM      8  C   UNL     1      -4.780  -3.920  -3.644  0.00  0.00    +0.134 A 
ATOM      9  S   UNL     1      -3.502  -2.847  -4.292  0.00  0.00    -0.030 S 
ATOM     10  H   UNL     1      -0.802  -1.768  -3.303  0.00  0.00    +0.157 HD
BRANCH   8  11
ATOM     11  C   UNL     1      -6.053  -4.359  -4.255  0.00  0.00    +0.009 A 
ATOM     12  C   UNL     1      -6.396  -3.934  -5.540  0.00  0.00    +0.013 A 
ATOM     13  C   UNL     1      -7.584  -4.346  -6.105  0.00  0.00    +0.039 A 
ATOM     14  C   UNL     1      -8.436  -5.182  -5.401  0.00  0.00    +0.123 A 
ATOM     15  C   UNL     1      -8.100  -5.607  -4.126  0.00  0.00    +0.039 A 
ATOM     16  C   UNL     1      -6.912  -5.205  -3.553  0.00  0.00    +0.013 A 
ATOM     17  F   UNL     1      -9.599  -5.583  -5.960  0.00  0.00    -0.205 F 
ENDBRANCH   8  11
ENDBRANCH   1   2
BRANCH   1  18
ATOM     18  N   UNL     1       1.534  -2.804  -0.257  0.00  0.00    -0.288 N 
ATOM     19  C   UNL     1       2.881  -2.845  -0.258  0.00  0.00    +0.301 C 
ATOM     20  O   UNL     1       3.509  -2.208  -1.082  0.00  0.00    -0.253 OA
ATOM     21  N   UNL     1       3.533  -3.592   0.655  0.00  0.00    -0.294 N 
ATOM     22  H   UNL     1       1.034  -3.312   0.400  0.00  0.00    +0.151 HD
ATOM     23  H   UNL     1       3.032  -4.100   1.313  0.00  0.00    +0.151 HD
BRANCH  21  24
ATOM     24  C   UNL     1       4.997  -3.637   0.654  0.00  0.00    +0.037 C 
ATOM     25  C   UNL     1       5.490  -4.181  -0.688  0.00  0.00    +0.029 C 
ATOM     26  C   UNL     1       7.020  -4.228  -0.689  0.00  0.00    -0.008 C 
ATOM     27  C   UNL     1       7.502  -5.141   0.440  0.00  0.00    +0.007 C 
ATOM     28  C   UNL     1       7.009  -4.597   1.782  0.00  0.00    -0.008 C 
ATOM     29  C   UNL     1       5.480  -4.551   1.783  0.00  0.00    +0.029 C 
ATOM     30  C   UNL     1       7.563  -3.187   1.996  0.00  0.00    +0.007 C 
ATOM     31  C   UNL     1       7.080  -2.274   0.867  0.00  0.00    -0.008 C 
ATOM     32  C   UNL     1       7.573  -2.817  -0.475  0.00  0.00    +0.007 C 
ATOM     33  C   UNL     1       5.551  -2.227   0.868  0.00  0.00    +0.029 C 
ENDBRANCH  21  24
ENDBRANCH   1  18
BRANCH   1  34
ATOM     34  C   UNL     1       0.724  -0.549  -0.750  0.00  0.00    +0.015 C 
ATOM     35  C   UNL     1       0.081  -0.535   0.639  0.00  0.00    +0.010 C 
BRANCH  34  37
ATOM     36  C   UNL     1       2.014   1.541  -0.290  0.00  0.00    +0.004 C 
ATOM     37  C   UNL     1       2.124   0.063  -0.670  0.00  0.00    +0.002 C 
ENDBRANCH  34  37
ENDBRANCH   1  34
TORSDOF 6
