REMARK  Name = ZINC49424031
REMARK  8 active torsions:
REMARK  status: ('A' for Active; 'I' for Inactive)
REMARK    1  A    between atoms: C_1  and  C_2
REMARK    2  A    between atoms: C_2  and  C_3
REMARK    3  A    between atoms: C_2  and  C_4
REMARK    4  A    between atoms: C_4  and  C_5
REMARK    5  A    between atoms: C_5  and  C_7
REMARK    6  A    between atoms: C_5  and  N_17
REMARK    7  A    between atoms: C_18  and  O_20
REMARK    8  A    between atoms: O_20  and  C_21
REMARK                            x       y       z     vdW  Elec       q    Type
REMARK                         _______ _______ _______ _____ _____    ______ ____
ROOT
ATOM      1  C   UNL     1       2.007   0.035  -1.232  0.00  0.00    +0.163 C 
ENDROOT
BRANCH   1   2
ATOM      2  C   UNL     1       2.666  -0.301  -2.546  0.00  0.00    +0.239 C 
ATOM      3  O   UNL     1       2.970   0.585  -3.316  0.00  0.00    -0.273 OA
ATOM      4  N   UNL     1       2.915  -1.586  -2.865  0.00  0.00    -0.269 N 
ATOM      5  C   UNL     1       3.609  -1.892  -4.035  0.00  0.00    +0.126 A 
ATOM      6  C   UNL     1       3.763  -3.220  -4.417  0.00  0.00    +0.044 A 
ATOM      7  C   UNL     1       4.453  -3.510  -5.580  0.00  0.00    +0.006 A 
ATOM      8  C   UNL     1       4.967  -2.458  -6.325  0.00  0.00    +0.035 A 
ATOM      9  C   UNL     1       4.776  -1.162  -5.887  0.00  0.00    +0.108 A 
ATOM     10  N   UNL     1       4.109  -0.916  -4.774  0.00  0.00    -0.225 NA
ATOM     11 BR   UNL     1       5.474   0.278  -6.895  0.00  0.00    -0.029 Br
ATOM     12  H   UNL     1       2.612  -2.299  -2.280  0.00  0.00    +0.156 HD
ENDBRANCH   1   2
BRANCH   1  13
ATOM     13  N   UNL     1       2.240   1.447  -0.917  0.00  0.00    -0.270 N 
ATOM     14  C   UNL     1       2.292   1.851   0.367  0.00  0.00    +0.401 C 
ATOM     15  O   UNL     1       2.237   1.033   1.264  0.00  0.00    -0.226 OA
ATOM     16  H   UNL     1       2.356   2.091  -1.634  0.00  0.00    +0.153 HD
BRANCH  14  17
ATOM     17  O   UNL     1       2.404   3.161   0.657  0.00  0.00    -0.454 OA
ATOM     18  C   UNL     1       2.453   3.518   2.040  0.00  0.00    +0.282 C 
ENDBRANCH  14  17
ENDBRANCH   1  13
BRANCH   1  19
ATOM     19  C   UNL     1       0.503  -0.224  -1.335  0.00  0.00    +0.035 C 
BRANCH  19  21
ATOM     20  C   UNL     1       0.700  -2.487  -0.295  0.00  0.00    +0.007 C 
ATOM     21  C   UNL     1       0.256  -1.719  -1.542  0.00  0.00    -0.015 C 
ATOM     22  C   UNL     1      -1.235  -1.961  -1.785  0.00  0.00    +0.007 C 
ENDBRANCH  19  21
ENDBRANCH   1  19
TORSDOF 5
