REMARK  Name = ZINC15677234
REMARK  3 active torsions:
REMARK  status: ('A' for Active; 'I' for Inactive)
REMARK    1  A    between atoms: C_6  and  S_7
REMARK    2  A    between atoms: S_7  and  N_10
REMARK    3  A    between atoms: N_10  and  C_11
REMARK                            x       y       z     vdW  Elec       q    Type
REMARK                         _______ _______ _______ _____ _____    ______ ____
ROOT
ATOM      1  S   UNL     1       3.950  -0.782  -0.057  0.00  0.00    +0.059 S 
ATOM      2  O   UNL     1       4.911   0.111   0.489  0.00  0.00    -0.153 OA
ATOM      3  O   UNL     1       3.716  -2.074   0.487  0.00  0.00    -0.153 OA
ENDROOT
BRANCH   1   9
ATOM      4  C   UNL     1       2.378   1.445  -0.017  0.00  0.00    +0.030 A 
ATOM      5  C   UNL     1       1.166   2.111   0.002  0.00  0.00    +0.018 A 
ATOM      6  C   UNL     1      -0.017   1.392   0.010  0.00  0.00    +0.030 A 
ATOM      7  C   UNL     1       0.002  -0.004   0.002  0.00  0.00    +0.049 A 
ATOM      8  C   UNL     1       1.227  -0.661  -0.019  0.00  0.00    +0.053 A 
ATOM      9  C   UNL     1       2.404   0.063  -0.029  0.00  0.00    +0.107 A 
ATOM     10  N   UNL     1      -1.174  -0.749   0.020  0.00  0.00    -0.284 N 
ATOM     11  C   UNL     1      -2.379  -0.326  -0.353  0.00  0.00    +0.227 C 
ATOM     12  O   UNL     1      -3.306  -1.106  -0.286  0.00  0.00    -0.275 OA
ATOM     13  C   UNL     1      -2.655   1.065  -0.855  0.00  0.00    +0.170 C 
ATOM     14  S   UNL     1      -1.570   2.230   0.022  0.00  0.00    -0.114 S 
ATOM     15  H   UNL     1      -1.109  -1.664   0.336  0.00  0.00    +0.155 HD
ENDBRANCH   1   9
BRANCH   1  16
ATOM     16  N   UNL     1       4.358  -1.004  -1.646  0.00  0.00    -0.187 NA
ATOM     17  H   UNL     1       4.412  -1.901  -2.012  0.00  0.00    +0.148 HD
BRANCH  16  18
ATOM     18  C   UNL     1       4.639   0.153  -2.499  0.00  0.00    +0.077 C 
ATOM     19  C   UNL     1       3.371   0.546  -3.259  0.00  0.00    +0.020 C 
ATOM     20  C   UNL     1       3.534   1.957  -3.829  0.00  0.00    +0.002 C 
ATOM     21  C   UNL     1       4.155   2.868  -2.768  0.00  0.00    +0.000 C 
ATOM     22  C   UNL     1       5.559   3.285  -3.212  0.00  0.00    +0.000 C 
ATOM     23  C   UNL     1       6.526   2.117  -3.007  0.00  0.00    +0.000 C 
ATOM     24  C   UNL     1       6.311   1.077  -4.108  0.00  0.00    +0.002 C 
ATOM     25  C   UNL     1       5.742  -0.204  -3.498  0.00  0.00    +0.020 C 
ENDBRANCH  16  18
ENDBRANCH   1  16
TORSDOF 3
