REMARK  Name = ZINC09488541
REMARK  3 active torsions:
REMARK  status: ('A' for Active; 'I' for Inactive)
REMARK    1  A    between atoms: C_1  and  C_2
REMARK    2  A    between atoms: C_5  and  C_8
REMARK    3  A    between atoms: C_8  and  C_10
REMARK                            x       y       z     vdW  Elec       q    Type
REMARK                         _______ _______ _______ _____ _____    ______ ____
ROOT
ATOM      1  C   UNL     1       2.295   0.683   0.004  0.00  0.00    +0.066 C 
ATOM      2  C   UNL     1       1.323  -0.386   0.559  0.00  0.00    -0.055 C 
ATOM      3  C   UNL     1       1.644  -1.745  -0.088  0.00  0.00    -0.016 C 
ATOM      4  C   UNL     1       0.777  -1.813  -1.360  0.00  0.00    -0.020 C 
ATOM      5  C   UNL     1       0.022  -0.470  -1.406  0.00  0.00    -0.076 C 
ATOM      6  C   UNL     1      -0.012   1.488   0.007  0.00  0.00    +0.060 C 
ATOM      7  C   UNL     1       1.437   1.960  -0.000  0.00  0.00    +0.085 C 
ATOM      8  C   UNL     1       1.744   2.816  -1.197  0.00  0.00    -0.011 A 
ATOM      9  C   UNL     1       1.665   2.608  -2.556  0.00  0.00    +0.006 A 
ATOM     10  C   UNL     1       2.025   3.616  -3.433  0.00  0.00    +0.000 A 
ATOM     11  C   UNL     1       2.465   4.831  -2.941  0.00  0.00    +0.002 A 
ATOM     12  C   UNL     1       2.546   5.044  -1.580  0.00  0.00    +0.023 A 
ATOM     13  C   UNL     1       2.185   4.035  -0.691  0.00  0.00    +0.038 A 
ATOM     14  N   UNL     1       2.179   4.008   0.706  0.00  0.00    -0.285 N 
ATOM     15  C   UNL     1       1.752   2.826   1.190  0.00  0.00    +0.228 C 
ATOM     16  O   UNL     1       1.642   2.519   2.358  0.00  0.00    -0.275 OA
ATOM     17  C   UNL     1      -0.756   2.011   1.206  0.00  0.00    -0.025 A 
ATOM     18  C   UNL     1      -0.571   1.878   2.565  0.00  0.00    +0.005 A 
ATOM     19  C   UNL     1      -1.443   2.491   3.446  0.00  0.00    +0.002 A 
ATOM     20  C   UNL     1      -2.501   3.237   2.960  0.00  0.00    +0.022 A 
ATOM     21  C   UNL     1      -2.690   3.374   1.599  0.00  0.00    +0.062 A 
ATOM     22  C   UNL     1      -1.815   2.760   0.705  0.00  0.00    +0.054 A 
ATOM     23  N   UNL     1      -1.795   2.750  -0.692  0.00  0.00    -0.285 N 
ATOM     24  C   UNL     1      -0.770   2.027  -1.180  0.00  0.00    +0.212 C 
ATOM     25  O   UNL     1      -0.506   1.845  -2.349  0.00  0.00    -0.277 OA
ATOM     26 CL   UNL     1      -4.022   4.314   1.001  0.00  0.00    -0.082 Cl
ATOM     27  H   UNL     1       2.450   4.755   1.263  0.00  0.00    +0.155 HD
ATOM     28  H   UNL     1      -2.445   3.211  -1.245  0.00  0.00    +0.155 HD
ATOM     29  N   UNL     1       0.052   0.019  -0.015  0.00  0.00    +0.395 N 
ATOM     30  H   UNL     1      -0.731  -0.377   0.519  0.00  0.00    -0.079 HD
ENDROOT
BRANCH   1  31
ATOM     31  C   UNL     1       2.737   0.329  -1.392  0.00  0.00    +0.166 C 
ATOM     32  O   UNL     1       2.042  -0.383  -2.086  0.00  0.00    -0.292 OA
BRANCH  31  37
ATOM     33  C   UNL     1       7.719   2.347  -3.430  0.00  0.00    +0.044 C 
ATOM     34  C   UNL     1       6.413   1.818  -2.896  0.00  0.00    -0.050 A 
ATOM     35  C   UNL     1       5.573   1.094  -3.724  0.00  0.00    +0.004 A 
ATOM     36  C   UNL     1       4.377   0.606  -3.243  0.00  0.00    +0.011 A 
ATOM     37  C   UNL     1       4.012   0.845  -1.914  0.00  0.00    +0.018 A 
ATOM     38  C   UNL     1       4.863   1.583  -1.085  0.00  0.00    +0.011 A 
ATOM     39  C   UNL     1       6.059   2.059  -1.579  0.00  0.00    +0.004 A 
ENDBRANCH  31  37
ENDBRANCH   1  31
TORSDOF 2
