REMARK  Name = ZINC58515872
REMARK  5 active torsions:
REMARK  status: ('A' for Active; 'I' for Inactive)
REMARK    1  A    between atoms: C_1  and  C_2
REMARK    2  A    between atoms: C_2  and  C_3
REMARK    3  A    between atoms: C_2  and  N_12
REMARK    4  A    between atoms: C_7  and  N_9
REMARK    5  A    between atoms: C_13  and  C_15
REMARK                            x       y       z     vdW  Elec       q    Type
REMARK                         _______ _______ _______ _____ _____    ______ ____
ROOT
ATOM      1  N   UNL     1      -1.372  -0.511   0.012  0.00  0.00    -0.304 N 
ATOM      2  C   UNL     1      -2.051  -0.643  -1.145  0.00  0.00    +0.262 C 
ATOM      3  O   UNL     1      -1.522  -0.340  -2.198  0.00  0.00    -0.269 OA
ATOM      4  H   UNL     1      -1.794  -0.752   0.852  0.00  0.00    +0.150 HD
ENDROOT
BRANCH   2   5
ATOM      5  C   UNL     1      -3.429  -1.151  -1.134  0.00  0.00    +0.121 A 
ATOM      6  C   UNL     1      -4.209  -1.332  -2.235  0.00  0.00    +0.078 A 
ATOM      7  C   UNL     1      -5.491  -1.850  -1.765  0.00  0.00    +0.019 A 
ATOM      8  C   UNL     1      -6.677  -2.225  -2.407  0.00  0.00    +0.011 A 
ATOM      9  C   UNL     1      -7.731  -2.684  -1.671  0.00  0.00    +0.001 A 
ATOM     10  C   UNL     1      -7.636  -2.783  -0.288  0.00  0.00    +0.002 A 
ATOM     11  C   UNL     1      -6.481  -2.420   0.366  0.00  0.00    +0.026 A 
ATOM     12  C   UNL     1      -5.391  -1.949  -0.363  0.00  0.00    +0.048 A 
ATOM     13  N   UNL     1      -4.134  -1.526  -0.006  0.00  0.00    -0.349 N 
ATOM     14  H   UNL     1      -3.793  -1.493   0.901  0.00  0.00    +0.166 HD
ATOM     15 CL   UNL     1      -3.765  -1.010  -3.882  0.00  0.00    -0.081 Cl
ENDBRANCH   2   5
BRANCH   1  17
ATOM     16  C   UNL     1      -0.019   1.526   0.010  0.00  0.00    +0.033 C 
ATOM     17  C   UNL     1       0.002  -0.004   0.002  0.00  0.00    +0.101 C 
BRANCH  17  18
ATOM     18  C   UNL     1       0.731  -0.503   1.223  0.00  0.00    -0.025 A 
ATOM     19  C   UNL     1       0.081  -0.558   2.442  0.00  0.00    +0.005 A 
ATOM     20  C   UNL     1       0.749  -1.016   3.562  0.00  0.00    +0.003 A 
ATOM     21  C   UNL     1       2.068  -1.420   3.463  0.00  0.00    +0.033 A 
ATOM     22  C   UNL     1       2.718  -1.365   2.244  0.00  0.00    +0.127 A 
ATOM     23  C   UNL     1       2.048  -0.911   1.123  0.00  0.00    +0.038 A 
BRANCH  22  24
ATOM     24  N   UNL     1       4.130  -1.796   2.138  0.00  0.00    +0.056 N 
ATOM     25  O   UNL     1       4.715  -2.196   3.118  0.00  0.00    -0.126 OA
ATOM     26  O   UNL     1       4.698  -1.749   1.072  0.00  0.00    -0.126 OA
ENDBRANCH  22  24
ENDBRANCH  17  18
ENDBRANCH   1  17
TORSDOF 4
