REMARK  Name = ZINC11719556
REMARK  9 active torsions:
REMARK  status: ('A' for Active; 'I' for Inactive)
REMARK    1  A    between atoms: C_1  and  C_2
REMARK    2  A    between atoms: C_5  and  N_9
REMARK    3  A    between atoms: C_6  and  C_8
REMARK    4  A    between atoms: C_10  and  C_12
REMARK    5  A    between atoms: C_12  and  C_14
REMARK    6  A    between atoms: C_12  and  N_55
REMARK    7  A    between atoms: C_17  and  N_20
REMARK    8  A    between atoms: N_20  and  S_21
REMARK    9  A    between atoms: S_21  and  C_24
REMARK                            x       y       z     vdW  Elec       q    Type
REMARK                         _______ _______ _______ _____ _____    ______ ____
ROOT
ATOM      1  C   UNL     1      -1.689   6.808   4.431  0.00  0.00    -0.076 C 
ATOM      2  C   UNL     1      -2.705   6.135   3.504  0.00  0.00    +0.002 C 
ATOM      3  C   UNL     1      -1.963   5.247   2.501  0.00  0.00    +0.073 C 
ATOM      4  C   UNL     1      -1.126   4.216   3.264  0.00  0.00    +0.002 C 
ATOM      5  C   UNL     1      -0.157   4.944   4.198  0.00  0.00    -0.076 C 
ATOM      6  N   UNL     1      -0.934   5.763   5.154  0.00  0.00    +0.387 N 
ATOM      7  H   UNL     1      -1.597   5.155   5.650  0.00  0.00    -0.081 HD
ENDROOT
BRANCH   6   8
ATOM      8  C   UNL     1      -0.026   6.386   6.138  0.00  0.00    +0.016 C 
ATOM      9  C   UNL     1       1.026   7.244   5.432  0.00  0.00    -0.004 C 
BRANCH   8  11
ATOM     10  N   UNL     1       1.527   5.622   7.906  0.00  0.00    -0.287 N 
ATOM     11  C   UNL     1       0.659   5.299   6.926  0.00  0.00    +0.203 C 
ATOM     12  O   UNL     1       0.429   4.134   6.679  0.00  0.00    -0.277 OA
ATOM     13  H   UNL     1       1.772   6.549   8.050  0.00  0.00    +0.155 HD
BRANCH  10  18
ATOM     14  C   UNL     1       3.748   1.556  11.180  0.00  0.00    +0.044 C 
ATOM     15  C   UNL     1       3.158   2.636  10.310  0.00  0.00    -0.050 A 
ATOM     16  C   UNL     1       1.942   2.431   9.685  0.00  0.00    +0.005 A 
ATOM     17  C   UNL     1       1.398   3.419   8.887  0.00  0.00    +0.024 A 
ATOM     18  C   UNL     1       2.075   4.619   8.713  0.00  0.00    +0.036 A 
ATOM     19  C   UNL     1       3.298   4.820   9.338  0.00  0.00    -0.029 A 
ATOM     20  C   UNL     1       3.833   3.830  10.140  0.00  0.00    +0.008 A 
ATOM     21  C   UNL     1       4.038   6.119   9.147  0.00  0.00    +0.045 C 
ENDBRANCH  10  18
ENDBRANCH   8  11
ENDBRANCH   6   8
BRANCH   3  22
ATOM     22  N   UNL     1      -2.934   4.555   1.649  0.00  0.00    -0.187 NA
ATOM     23  H   UNL     1      -3.785   4.270   2.016  0.00  0.00    +0.148 HD
BRANCH  22  24
ATOM     24  S   UNL     1      -2.577   4.260   0.059  0.00  0.00    +0.065 S 
ATOM     25  O   UNL     1      -2.107   5.484  -0.486  0.00  0.00    -0.153 OA
ATOM     26  O   UNL     1      -3.689   3.561  -0.484  0.00  0.00    -0.153 OA
BRANCH  24  27
ATOM     27  C   UNL     1      -1.217   3.140   0.030  0.00  0.00    +0.142 A 
ATOM     28  C   UNL     1      -1.227   1.785   0.011  0.00  0.00    +0.036 A 
ATOM     29  C   UNL     1      -0.023   1.105  -0.007  0.00  0.00    +0.010 A 
ATOM     30  C   UNL     1       1.132   1.815  -0.016  0.00  0.00    +0.047 A 
ATOM     31  S   UNL     1       0.533   3.496   0.009  0.00  0.00    -0.077 S 
ENDBRANCH  24  27
ENDBRANCH  22  24
ENDBRANCH   3  22
TORSDOF 6
