REMARK  Name = ZINC19313137
REMARK  8 active torsions:
REMARK  status: ('A' for Active; 'I' for Inactive)
REMARK    1  A    between atoms: C_4  and  C_7
REMARK    2  A    between atoms: C_8  and  C_9
REMARK    3  A    between atoms: C_9  and  N_10
REMARK    4  A    between atoms: N_13  and  C_16
REMARK    5  A    between atoms: C_16  and  C_17
REMARK    6  A    between atoms: C_17  and  C_19
REMARK    7  A    between atoms: C_17  and  O_35
REMARK    8  A    between atoms: C_19  and  N_20
REMARK                            x       y       z     vdW  Elec       q    Type
REMARK                         _______ _______ _______ _____ _____    ______ ____
ROOT
ATOM      1  C   UNL     1      -5.032   6.416  -0.718  0.00  0.00    +0.148 C 
ENDROOT
BRANCH   1   2
ATOM      2  O   UNL     1      -5.494   5.239  -1.384  0.00  0.00    -0.389 OA
ATOM      3  H   UNL     1      -6.421   4.748  -1.053  0.00  0.00    +0.210 HD
ENDBRANCH   1   2
BRANCH   1   4
ATOM      4  C   UNL     1      -3.733   6.894  -1.370  0.00  0.00    +0.117 C 
BRANCH   4   8
ATOM      5  N   UNL     1      -3.743   8.752  -5.163  0.00  0.00    +0.384 N 
ATOM      6  C   UNL     1      -4.997   8.744  -4.397  0.00  0.00    -0.063 C 
ATOM      7  C   UNL     1      -4.687   8.491  -2.920  0.00  0.00    +0.066 C 
ATOM      8  N   UNL     1      -3.981   7.209  -2.783  0.00  0.00    -0.303 NA
ATOM      9  C   UNL     1      -2.727   7.218  -3.549  0.00  0.00    +0.066 C 
ATOM     10  C   UNL     1      -3.037   7.471  -5.026  0.00  0.00    -0.063 C 
ATOM     11  H   UNL     1      -3.098   9.542  -4.750  0.00  0.00    -0.081 HD
BRANCH   5  12
ATOM     12  C   UNL     1      -3.991   9.068  -6.577  0.00  0.00    -0.051 C 
BRANCH  12  14
ATOM     13  C   UNL     1      -2.760   8.021  -8.424  0.00  0.00    +0.002 C 
ATOM     14  C   UNL     1      -2.735   8.829  -7.373  0.00  0.00    -0.045 C 
BRANCH  13  18
ATOM     15  C   UNL     1       0.782   7.348 -10.670  0.00  0.00    +0.000 A 
ATOM     16  C   UNL     1      -0.396   6.723 -11.038  0.00  0.00    +0.001 A 
ATOM     17  C   UNL     1      -1.550   6.938 -10.312  0.00  0.00    +0.008 A 
ATOM     18  C   UNL     1      -1.527   7.787  -9.206  0.00  0.00    -0.025 A 
ATOM     19  C   UNL     1      -0.337   8.418  -8.843  0.00  0.00    +0.008 A 
ATOM     20  C   UNL     1       0.811   8.191  -9.573  0.00  0.00    +0.001 A 
ENDBRANCH  13  18
ENDBRANCH  12  14
ENDBRANCH   5  12
ENDBRANCH   4   8
ENDBRANCH   1   4
BRANCH   1  21
ATOM     21  C   UNL     1      -4.776   6.099   0.757  0.00  0.00    +0.155 C 
BRANCH  21  22
ATOM     22  N   UNL     1      -6.042   5.757   1.410  0.00  0.00    -0.337 N 
ATOM     23  C   UNL     1      -6.565   4.479   1.500  0.00  0.00    +0.050 A 
ATOM     24  C   UNL     1      -6.105   3.245   1.049  0.00  0.00    +0.028 A 
ATOM     25  C   UNL     1      -6.845   2.106   1.282  0.00  0.00    +0.022 A 
ATOM     26  C   UNL     1      -8.050   2.175   1.966  0.00  0.00    +0.042 A 
ATOM     27  C   UNL     1      -8.522   3.389   2.420  0.00  0.00    +0.030 A 
ATOM     28  C   UNL     1      -7.787   4.548   2.185  0.00  0.00    +0.009 A 
ATOM     29  C   UNL     1      -7.992   5.967   2.531  0.00  0.00    +0.009 A 
ATOM     30  C   UNL     1      -6.886   6.665   2.024  0.00  0.00    +0.050 A 
ATOM     31  C   UNL     1      -6.811   8.043   2.200  0.00  0.00    +0.028 A 
ATOM     32  C   UNL     1      -7.816   8.710   2.866  0.00  0.00    +0.022 A 
ATOM     33  C   UNL     1      -8.909   8.019   3.368  0.00  0.00    +0.042 A 
ATOM     34  C   UNL     1      -9.002   6.653   3.203  0.00  0.00    +0.030 A 
ATOM     35 CL   UNL     1     -10.165   8.877   4.204  0.00  0.00    -0.084 Cl
ATOM     36 CL   UNL     1      -8.967   0.729   2.250  0.00  0.00    -0.084 Cl
ENDBRANCH  21  22
ENDBRANCH   1  21
TORSDOF 8
