REMARK  Name = ZINC38705014
REMARK  10 active torsions:
REMARK  status: ('A' for Active; 'I' for Inactive)
REMARK    1  A    between atoms: C_1  and  C_2
REMARK    2  A    between atoms: C_4  and  C_36
REMARK    3  A    between atoms: C_5  and  C_9
REMARK    4  A    between atoms: C_6  and  O_8
REMARK    5  A    between atoms: N_17  and  C_29
REMARK    6  A    between atoms: C_18  and  C_20
REMARK    7  A    between atoms: C_23  and  O_28
REMARK    8  A    between atoms: C_24  and  O_26
REMARK    9  A    between atoms: O_26  and  C_27
REMARK   10  A    between atoms: C_29  and  C_30
REMARK                            x       y       z     vdW  Elec       q    Type
REMARK                         _______ _______ _______ _____ _____    ______ ____
ROOT
ATOM      1  C   UNL     1       0.223  -4.534  -0.150  0.00  0.00    +0.102 A 
ATOM      2  C   UNL     1       0.244  -5.256   1.048  0.00  0.00    +0.035 A 
ATOM      3  C   UNL     1       0.187  -6.588   0.686  0.00  0.00    +0.126 A 
ATOM      4  N   UNL     1       0.136  -6.608  -0.679  0.00  0.00    -0.272 N 
ATOM      5  H   UNL     1       0.089  -7.410  -1.223  0.00  0.00    +0.189 HD
ATOM      6  N   UNL     1       0.153  -5.407  -1.135  0.00  0.00    -0.173 NA
ATOM      7  C   UNL     1       0.205  -7.404   1.905  0.00  0.00    +0.266 C 
ATOM      8  O   UNL     1       0.166  -8.620   1.927  0.00  0.00    -0.268 OA
ATOM      9  N   UNL     1       0.270  -6.618   2.994  0.00  0.00    -0.281 N 
ATOM     10  C   UNL     1       0.300  -5.218   2.551  0.00  0.00    +0.142 C 
ENDROOT
BRANCH   1  15
ATOM     11  C   UNL     1       0.393   1.202  -0.683  0.00  0.00    +0.044 C 
ATOM     12  C   UNL     1       0.347  -0.297  -0.542  0.00  0.00    -0.047 A 
ATOM     13  C   UNL     1       1.213  -1.086  -1.278  0.00  0.00    +0.007 A 
ATOM     14  C   UNL     1       1.177  -2.460  -1.154  0.00  0.00    -0.037 A 
ATOM     15  C   UNL     1       0.266  -3.056  -0.286  0.00  0.00    +0.047 A 
ATOM     16  C   UNL     1      -0.608  -2.257   0.456  0.00  0.00    +0.127 A 
ATOM     17  C   UNL     1      -0.557  -0.878   0.327  0.00  0.00    +0.049 A 
ATOM     18  C   UNL     1       2.123  -3.315  -1.959  0.00  0.00    +0.044 C 
BRANCH  16  19
ATOM     19  O   UNL     1      -1.500  -2.830   1.306  0.00  0.00    -0.506 OA
ATOM     20  H   UNL     1      -1.195  -2.878   2.223  0.00  0.00    +0.292 HD
ENDBRANCH  16  19
ENDBRANCH   1  15
BRANCH  10  21
ATOM     21  C   UNL     1       1.576  -4.556   3.005  0.00  0.00    -0.019 A 
ATOM     22  C   UNL     1       2.792  -5.176   2.783  0.00  0.00    +0.009 A 
ATOM     23  C   UNL     1       3.965  -4.573   3.198  0.00  0.00    +0.049 A 
ATOM     24  C   UNL     1       3.923  -3.345   3.838  0.00  0.00    +0.158 A 
ATOM     25  C   UNL     1       2.700  -2.721   4.061  0.00  0.00    +0.162 A 
ATOM     26  C   UNL     1       1.528  -3.328   3.638  0.00  0.00    +0.055 A 
BRANCH  25  27
ATOM     27  O   UNL     1       2.654  -1.515   4.689  0.00  0.00    -0.491 OA
ATOM     28  C   UNL     1       1.364  -0.934   4.884  0.00  0.00    +0.277 C 
ENDBRANCH  25  27
BRANCH  24  29
ATOM     29  O   UNL     1       5.076  -2.751   4.247  0.00  0.00    -0.503 OA
ATOM     30  H   UNL     1       5.476  -2.170   3.585  0.00  0.00    +0.292 HD
ENDBRANCH  24  29
ENDBRANCH  10  21
BRANCH   9  31
ATOM     31  C   UNL     1       0.305  -7.078   4.385  0.00  0.00    +0.144 C 
BRANCH  31  32
ATOM     32  C   UNL     1       1.736  -7.283   4.811  0.00  0.00    -0.030 A 
ATOM     33  C   UNL     1       2.343  -8.511   4.625  0.00  0.00    +0.005 A 
ATOM     34  C   UNL     1       3.656  -8.699   5.016  0.00  0.00    +0.000 A 
ATOM     35  C   UNL     1       4.361  -7.659   5.591  0.00  0.00    +0.000 A 
ATOM     36  C   UNL     1       3.754  -6.430   5.776  0.00  0.00    +0.000 A 
ATOM     37  C   UNL     1       2.443  -6.241   5.381  0.00  0.00    +0.005 A 
ENDBRANCH  31  32
ENDBRANCH   9  31
TORSDOF 7
