REMARK  Name = ZINC43527217
REMARK  9 active torsions:
REMARK  status: ('A' for Active; 'I' for Inactive)
REMARK    1  A    between atoms: C_1  and  N_2
REMARK    2  A    between atoms: N_5  and  C_8
REMARK    3  A    between atoms: C_8  and  C_9
REMARK    4  A    between atoms: C_18  and  C_20
REMARK    5  A    between atoms: C_20  and  N_21
REMARK    6  A    between atoms: N_21  and  S_22
REMARK    7  A    between atoms: S_22  and  C_25
REMARK    8  A    between atoms: C_28  and  O_31
REMARK    9  A    between atoms: O_31  and  C_32
REMARK                            x       y       z     vdW  Elec       q    Type
REMARK                         _______ _______ _______ _____ _____    ______ ____
ROOT
ATOM      1  C   UNL     1       2.475  -4.439   1.005  0.00  0.00    -0.011 C 
ATOM      2  C   UNL     1       1.927  -4.187   2.412  0.00  0.00    -0.073 C 
ATOM      3  N   UNL     1       1.824  -5.452   3.144  0.00  0.00    +0.383 N 
ATOM      4  C   UNL     1       0.898  -6.364   2.469  0.00  0.00    -0.078 C 
ATOM      5  C   UNL     1       1.412  -6.688   1.064  0.00  0.00    -0.015 C 
ATOM      6  C   UNL     1       2.735  -5.941   0.834  0.00  0.00    -0.012 C 
ATOM      7  C   UNL     1       3.734  -6.386   1.912  0.00  0.00    -0.010 C 
ATOM      8  C   UNL     1       3.143  -6.071   3.291  0.00  0.00    -0.053 C 
ATOM      9  H   UNL     1       1.457  -5.259   4.064  0.00  0.00    -0.081 HD
ENDROOT
BRANCH   1  10
ATOM     10  C   UNL     1       1.453  -3.974  -0.034  0.00  0.00    +0.086 C 
BRANCH  10  15
ATOM     11  C   UNL     1       0.889   1.560  -0.927  0.00  0.00    -0.096 C 
ATOM     12  N   UNL     1       1.038   0.105  -1.062  0.00  0.00    +0.379 N 
ATOM     13  C   UNL     1       2.286  -0.320  -0.415  0.00  0.00    -0.064 C 
ATOM     14  C   UNL     1       2.451  -1.834  -0.571  0.00  0.00    +0.066 C 
ATOM     15  N   UNL     1       1.304  -2.515   0.045  0.00  0.00    -0.306 NA
ATOM     16  C   UNL     1       0.044  -2.080  -0.575  0.00  0.00    +0.066 C 
ATOM     17  C   UNL     1      -0.101  -0.565  -0.419  0.00  0.00    -0.064 C 
ATOM     18  H   UNL     1       1.065  -0.141  -2.040  0.00  0.00    -0.082 HD
ENDBRANCH  10  15
ENDBRANCH   1  10
BRANCH   8  19
ATOM     19  C   UNL     1       3.009  -7.367   4.094  0.00  0.00    +0.090 C 
BRANCH  19  20
ATOM     20  N   UNL     1       2.349  -7.084   5.371  0.00  0.00    -0.191 NA
ATOM     21  H   UNL     1       2.271  -6.169   5.684  0.00  0.00    +0.148 HD
BRANCH  20  22
ATOM     22  S   UNL     1       1.737  -8.326   6.280  0.00  0.00    +0.058 S 
ATOM     23  O   UNL     1       1.194  -7.740   7.455  0.00  0.00    -0.153 OA
ATOM     24  O   UNL     1       0.962  -9.129   5.400  0.00  0.00    -0.153 OA
BRANCH  22  25
ATOM     25  C   UNL     1       3.101  -9.315   6.795  0.00  0.00    +0.105 A 
ATOM     26  C   UNL     1       3.528 -10.367   6.007  0.00  0.00    +0.032 A 
ATOM     27  C   UNL     1       4.596 -11.145   6.409  0.00  0.00    +0.047 A 
ATOM     28  C   UNL     1       5.242 -10.869   7.605  0.00  0.00    +0.120 A 
ATOM     29  C   UNL     1       4.812  -9.812   8.395  0.00  0.00    +0.047 A 
ATOM     30  C   UNL     1       3.747  -9.034   7.986  0.00  0.00    +0.032 A 
BRANCH  28  31
ATOM     31  O   UNL     1       6.293 -11.632   8.004  0.00  0.00    -0.495 OA
ATOM     32  C   UNL     1       6.910 -11.290   9.246  0.00  0.00    +0.277 C 
ENDBRANCH  28  31
ENDBRANCH  22  25
ENDBRANCH  20  22
ENDBRANCH  19  20
ENDBRANCH   8  19
TORSDOF 7
