REMARK  Name = ZINC63663806
REMARK  11 active torsions:
REMARK  status: ('A' for Active; 'I' for Inactive)
REMARK    1  A    between atoms: C_1  and  C_2
REMARK    2  A    between atoms: C_2  and  N_3
REMARK    3  A    between atoms: N_6  and  C_9
REMARK    4  A    between atoms: C_9  and  C_11
REMARK    5  A    between atoms: C_9  and  C_16
REMARK    6  A    between atoms: C_16  and  C_18
REMARK    7  A    between atoms: C_16  and  N_19
REMARK    8  A    between atoms: C_20  and  C_22
REMARK    9  A    between atoms: N_24  and  C_25
REMARK   10  A    between atoms: C_25  and  C_26
REMARK   11  A    between atoms: C_26  and  C_27
REMARK                            x       y       z     vdW  Elec       q    Type
REMARK                         _______ _______ _______ _____ _____    ______ ____
ROOT
ATOM      1  N   UNL     1      -6.156  -4.708  -1.118  0.00  0.00    -0.303 N 
ATOM      2  C   UNL     1      -6.472  -5.891  -0.556  0.00  0.00    +0.299 C 
ATOM      3  O   UNL     1      -5.638  -6.504   0.078  0.00  0.00    -0.265 OA
ATOM      4  H   UNL     1      -6.823  -4.218  -1.625  0.00  0.00    +0.149 HD
ENDROOT
BRANCH   2   5
ATOM      5  C   UNL     1      -7.849  -6.450  -0.713  0.00  0.00    +0.299 C 
ATOM      6  O   UNL     1      -8.683  -5.837  -1.347  0.00  0.00    -0.265 OA
ATOM      7  N   UNL     1      -8.165  -7.633  -0.151  0.00  0.00    -0.307 N 
ATOM      8  H   UNL     1      -7.498  -8.123   0.355  0.00  0.00    +0.149 HD
BRANCH   7   9
ATOM      9  C   UNL     1      -9.515  -8.181  -0.306  0.00  0.00    +0.109 C 
BRANCH   9  10
ATOM     10  C   UNL     1      -9.608  -9.523   0.423  0.00  0.00    +0.052 C 
BRANCH  10  11
ATOM     11  C   UNL     1     -10.997 -10.086   0.264  0.00  0.00    -0.040 C 
ATOM     12  C   UNL     1     -11.412 -10.977  -0.664  0.00  0.00    -0.001 A 
ATOM     13  C   UNL     1     -10.721 -11.663  -1.763  0.00  0.00    +0.010 A 
ATOM     14  C   UNL     1     -11.418 -12.520  -2.543  0.00  0.00    +0.001 A 
ATOM     15  C   UNL     1     -12.781 -12.768  -2.329  0.00  0.00    +0.002 A 
ATOM     16  C   UNL     1     -13.484 -12.177  -1.341  0.00  0.00    +0.026 A 
ATOM     17  C   UNL     1     -12.851 -11.258  -0.459  0.00  0.00    +0.043 A 
ATOM     18  N   UNL     1     -13.307 -10.566   0.557  0.00  0.00    -0.380 N 
ATOM     19  C   UNL     1     -12.207  -9.773   1.115  0.00  0.00    +0.144 C 
ATOM     20  H   UNL     1     -14.220 -10.581   0.886  0.00  0.00    +0.160 HD
ENDBRANCH  10  11
ENDBRANCH   9  10
ENDBRANCH   7   9
ENDBRANCH   2   5
BRANCH   1  21
ATOM     21  C   UNL     1      -4.806  -4.161  -0.964  0.00  0.00    +0.092 C 
ATOM     22  C   UNL     1      -3.891  -4.749  -2.040  0.00  0.00    +0.030 C 
BRANCH  21  23
ATOM     23  C   UNL     1      -4.853  -2.639  -1.111  0.00  0.00    +0.113 C 
BRANCH  23  27
ATOM     24  N   UNL     1      -1.376  -0.512   0.012  0.00  0.00    +0.381 N 
ATOM     25  C   UNL     1      -2.050  -0.124  -1.234  0.00  0.00    -0.063 C 
ATOM     26  C   UNL     1      -3.492  -0.638  -1.215  0.00  0.00    +0.066 C 
ATOM     27  N   UNL     1      -3.486  -2.101  -1.076  0.00  0.00    -0.297 NA
ATOM     28  C   UNL     1      -2.792  -2.506   0.155  0.00  0.00    +0.066 C 
ATOM     29  C   UNL     1      -1.357  -1.977   0.125  0.00  0.00    -0.063 C 
ATOM     30  H   UNL     1      -1.873  -0.121   0.799  0.00  0.00    -0.082 HD
BRANCH  24  32
ATOM     31  C   UNL     1      -0.019   1.526   0.010  0.00  0.00    -0.017 C 
ATOM     32  C   UNL     1       0.002  -0.004   0.002  0.00  0.00    -0.082 C 
ENDBRANCH  24  32
ENDBRANCH  23  27
BRANCH  23  33
ATOM     33  C   UNL     1      -5.500  -2.280  -2.424  0.00  0.00    +0.009 A 
ATOM     34  C   UNL     1      -6.771  -1.879  -2.668  0.00  0.00    +0.013 A 
ATOM     35  C   UNL     1      -7.149  -1.600  -3.968  0.00  0.00    +0.008 A 
ATOM     36  C   UNL     1      -6.236  -1.737  -4.961  0.00  0.00    +0.045 A 
ATOM     37  S   UNL     1      -4.788  -2.268  -4.061  0.00  0.00    -0.100 S 
ENDBRANCH  23  33
ENDBRANCH  21  23
ENDBRANCH   1  21
TORSDOF 9
