REMARK  Name = ZINC02251849
REMARK  8 active torsions:
REMARK  status: ('A' for Active; 'I' for Inactive)
REMARK    1  A    between atoms: C_1  and  O_2
REMARK    2  A    between atoms: O_2  and  C_3
REMARK    3  A    between atoms: C_6  and  C_9
REMARK    4  A    between atoms: C_20  and  C_22
REMARK    5  A    between atoms: C_25  and  O_28
REMARK    6  A    between atoms: O_28  and  C_29
REMARK    7  A    between atoms: C_34  and  S_36
REMARK    8  A    between atoms: S_36  and  C_37
REMARK                            x       y       z     vdW  Elec       q    Type
REMARK                         _______ _______ _______ _____ _____    ______ ____
ROOT
ATOM      1  C   UNL     1       2.505  -2.503  -4.381  0.00  0.00    +0.159 C 
ATOM      2  C   UNL     1       1.436  -2.874  -5.386  0.00  0.00    +0.025 C 
ATOM      3  C   UNL     1       1.312  -4.172  -5.731  0.00  0.00    +0.058 C 
ATOM      4  C   UNL     1       0.253  -4.522  -6.712  0.00  0.00    +0.040 A 
ATOM      5  C   UNL     1       0.246  -5.745  -7.367  0.00  0.00    +0.013 A 
ATOM      6  C   UNL     1      -0.758  -6.029  -8.273  0.00  0.00    +0.001 A 
ATOM      7  C   UNL     1      -1.751  -5.098  -8.526  0.00  0.00    +0.004 A 
ATOM      8  C   UNL     1      -1.752  -3.878  -7.876  0.00  0.00    +0.046 A 
ATOM      9  C   UNL     1      -0.753  -3.581  -6.965  0.00  0.00    +0.131 A 
ATOM     10  O   UNL     1      -0.734  -2.393  -6.309  0.00  0.00    -0.479 OA
ATOM     11  C   UNL     1       0.542  -1.833  -5.993  0.00  0.00    +0.234 C 
ATOM     12  N   UNL     1       2.120  -5.126  -5.207  0.00  0.00    -0.326 N 
ATOM     13  C   UNL     1       3.072  -4.891  -4.330  0.00  0.00    +0.216 C 
ATOM     14  N   UNL     1       3.318  -3.615  -3.872  0.00  0.00    -0.209 N 
ATOM     15  N   UNL     1       4.372  -3.709  -2.960  0.00  0.00    -0.239 N 
ATOM     16  C   UNL     1       4.718  -5.034  -2.907  0.00  0.00    +0.174 C 
ATOM     17  N   UNL     1       3.947  -5.711  -3.720  0.00  0.00    -0.192 NA
ATOM     18  H   UNL     1       1.987  -6.042  -5.497  0.00  0.00    +0.169 HD
ATOM     19  H   UNL     1       4.779  -2.981  -2.464  0.00  0.00    +0.172 HD
ENDROOT
BRANCH   1  23
ATOM     20  C   UNL     1       0.606  -0.607  -1.056  0.00  0.00    +0.120 A 
ATOM     21  C   UNL     1       1.173   0.161  -2.062  0.00  0.00    +0.046 A 
ATOM     22  C   UNL     1       1.786  -0.455  -3.136  0.00  0.00    +0.009 A 
ATOM     23  C   UNL     1       1.835  -1.835  -3.209  0.00  0.00    -0.021 A 
ATOM     24  C   UNL     1       1.270  -2.602  -2.207  0.00  0.00    +0.009 A 
ATOM     25  C   UNL     1       0.661  -1.992  -1.128  0.00  0.00    +0.046 A 
BRANCH  20  27
ATOM     26  C   UNL     1      -0.017   1.425   0.010  0.00  0.00    +0.277 C 
ATOM     27  O   UNL     1       0.002  -0.004   0.002  0.00  0.00    -0.495 OA
ENDBRANCH  20  27
ENDBRANCH   1  23
BRANCH  11  28
ATOM     28  C   UNL     1       1.179  -1.302  -7.252  0.00  0.00    -0.003 A 
ATOM     29  C   UNL     1       0.994  -1.965  -8.451  0.00  0.00    +0.011 A 
ATOM     30  C   UNL     1       1.577  -1.480  -9.606  0.00  0.00    +0.046 A 
ATOM     31  C   UNL     1       2.347  -0.328  -9.562  0.00  0.00    +0.120 A 
ATOM     32  C   UNL     1       2.530   0.336  -8.358  0.00  0.00    +0.046 A 
ATOM     33  C   UNL     1       1.941  -0.149  -7.207  0.00  0.00    +0.011 A 
BRANCH  31  34
ATOM     34  O   UNL     1       2.922   0.151 -10.697  0.00  0.00    -0.495 OA
ATOM     35  C   UNL     1       3.701   1.342 -10.577  0.00  0.00    +0.277 C 
ENDBRANCH  31  34
ENDBRANCH  11  28
BRANCH  16  36
ATOM     36  S   UNL     1       5.999  -5.716  -1.909  0.00  0.00    -0.092 S 
ATOM     37  C   UNL     1       5.952  -7.490  -2.286  0.00  0.00    +0.093 C 
ENDBRANCH  16  36
TORSDOF 5
