REMARK  Name = ZINC00463558
REMARK  2 active torsions:
REMARK  status: ('A' for Active; 'I' for Inactive)
REMARK    1  A    between atoms: C_7  and  C_11
REMARK    2  A    between atoms: N_15  and  C_19
REMARK                            x       y       z     vdW  Elec       q    Type
REMARK                         _______ _______ _______ _____ _____    ______ ____
ROOT
ATOM      1  C   UNL     1      -0.686   6.396   0.043  0.00  0.00    +0.038 C 
ATOM      2  C   UNL     1      -0.230   7.674   0.148  0.00  0.00    +0.099 C 
ATOM      3  C   UNL     1       1.125   8.101   0.159  0.00  0.00    +0.273 C 
ATOM      4  O   UNL     1       2.109   7.389   0.075  0.00  0.00    -0.268 OA
ATOM      5  N   UNL     1       1.115   9.443   0.277  0.00  0.00    -0.189 N 
ATOM      6  C   UNL     1      -0.153   9.881   0.349  0.00  0.00    +0.318 C 
ATOM      7  O   UNL     1      -0.484  11.045   0.464  0.00  0.00    -0.251 OA
ATOM      8  N   UNL     1      -1.003   8.839   0.275  0.00  0.00    -0.264 N 
ATOM      9  H   UNL     1      -1.971   8.885   0.303  0.00  0.00    +0.157 HD
ENDROOT
BRANCH   1  16
ATOM     10  C   UNL     1      -0.342   2.000   1.614  0.00  0.00    +0.001 A 
ATOM     11  C   UNL     1       0.735   1.325   1.057  0.00  0.00    +0.002 A 
ATOM     12  C   UNL     1       1.558   1.949   0.146  0.00  0.00    +0.026 A 
ATOM     13  C   UNL     1       1.316   3.269  -0.219  0.00  0.00    +0.047 A 
ATOM     14  C   UNL     1       0.230   3.952   0.350  0.00  0.00    +0.007 A 
ATOM     15  C   UNL     1      -0.595   3.310   1.270  0.00  0.00    +0.010 A 
ATOM     16  C   UNL     1       0.250   5.306  -0.236  0.00  0.00    +0.002 A 
ATOM     17  C   UNL     1       1.316   5.342  -1.091  0.00  0.00    +0.091 A 
ATOM     18  N   UNL     1       1.948   4.140  -1.083  0.00  0.00    -0.360 N 
ATOM     19  H   UNL     1       2.733   3.924  -1.611  0.00  0.00    +0.165 HD
ENDBRANCH   1  16
BRANCH   5  20
ATOM     20  C   UNL     1       2.255  10.258   0.323  0.00  0.00    +0.047 A 
ATOM     21  C   UNL     1       2.121  11.634   0.453  0.00  0.00    +0.024 A 
ATOM     22  C   UNL     1       3.245  12.435   0.499  0.00  0.00    +0.003 A 
ATOM     23  C   UNL     1       4.503  11.869   0.416  0.00  0.00    +0.020 A 
ATOM     24  C   UNL     1       4.641  10.498   0.287  0.00  0.00    +0.043 A 
ATOM     25  C   UNL     1       3.519   9.691   0.246  0.00  0.00    +0.044 A 
ATOM     26 CL   UNL     1       6.223   9.790   0.183  0.00  0.00    -0.083 Cl
ENDBRANCH   5  20
TORSDOF 2
