REMARK  Name = ZINC23590760
REMARK  10 active torsions:
REMARK  status: ('A' for Active; 'I' for Inactive)
REMARK    1  A    between atoms: C_1  and  C_2
REMARK    2  A    between atoms: C_11  and  N_33
REMARK    3  A    between atoms: C_13  and  S_15
REMARK    4  A    between atoms: S_15  and  C_16
REMARK    5  A    between atoms: C_16  and  C_18
REMARK    6  A    between atoms: C_16  and  C_19
REMARK    7  A    between atoms: N_21  and  C_22
REMARK    8  A    between atoms: C_24  and  N_30
REMARK    9  A    between atoms: C_27  and  O_28
REMARK   10  A    between atoms: O_28  and  C_29
REMARK                            x       y       z     vdW  Elec       q    Type
REMARK                         _______ _______ _______ _____ _____    ______ ____
ROOT
ATOM      1  S   UNL     1       1.137   3.137   0.684  0.00  0.00    -0.073 S 
ENDROOT
BRANCH   1  13
ATOM      2  C   UNL     1       3.463  -6.367  -2.311  0.00  0.00    +0.008 C 
ATOM      3  C   UNL     1       2.888  -4.960  -2.134  0.00  0.00    -0.009 C 
ATOM      4  C   UNL     1       1.846  -4.969  -1.012  0.00  0.00    +0.008 C 
ATOM      5  C   UNL     1       1.093  -3.638  -0.992  0.00  0.00    +0.037 C 
ATOM      6  C   UNL     1       2.107  -2.498  -0.941  0.00  0.00    -0.025 A 
ATOM      7  C   UNL     1       3.393  -2.705  -1.289  0.00  0.00    -0.004 A 
ATOM      8  S   UNL     1       4.187  -1.134  -1.080  0.00  0.00    -0.073 S 
ATOM      9  C   UNL     1       2.787  -0.198  -0.524  0.00  0.00    +0.115 A 
ATOM     10  C   UNL     1       1.742  -1.144  -0.519  0.00  0.00    +0.051 A 
ATOM     11  C   UNL     1       0.473  -0.654  -0.105  0.00  0.00    +0.129 A 
ATOM     12  N   UNL     1       0.352   0.618   0.239  0.00  0.00    -0.207 NA
ATOM     13  C   UNL     1       1.380   1.457   0.211  0.00  0.00    +0.192 A 
ATOM     14  N   UNL     1       2.586   1.056  -0.167  0.00  0.00    -0.214 NA
ATOM     15  C   UNL     1       4.013  -3.988  -1.752  0.00  0.00    +0.046 C 
BRANCH  11  16
ATOM     16  N   UNL     1      -0.623  -1.497  -0.061  0.00  0.00    -0.343 N 
ATOM     17  H   UNL     1      -1.601  -1.112   0.260  0.00  0.00    +0.144 HD
ATOM     18  H   UNL     1      -0.515  -2.554  -0.348  0.00  0.00    +0.144 HD
ENDBRANCH  11  16
ENDBRANCH   1  13
BRANCH   1  19
ATOM     19  C   UNL     1      -0.629   3.100   1.082  0.00  0.00    +0.137 C 
ATOM     20  C   UNL     1      -1.431   2.804  -0.187  0.00  0.00    +0.029 C 
BRANCH  19  21
ATOM     21  C   UNL     1      -1.046   4.436   1.640  0.00  0.00    +0.230 C 
ATOM     22  O   UNL     1      -0.418   5.434   1.358  0.00  0.00    -0.274 OA
ATOM     23  N   UNL     1      -2.118   4.521   2.453  0.00  0.00    -0.282 N 
ATOM     24  H   UNL     1      -2.644   3.608   2.768  0.00  0.00    +0.155 HD
BRANCH  23  25
ATOM     25  C   UNL     1      -2.562   5.774   2.897  0.00  0.00    +0.078 A 
ATOM     26  C   UNL     1      -1.666   6.825   3.022  0.00  0.00    +0.059 A 
ATOM     27  C   UNL     1      -2.108   8.061   3.456  0.00  0.00    +0.128 A 
ATOM     28  C   UNL     1      -3.439   8.250   3.776  0.00  0.00    +0.036 A 
ATOM     29  C   UNL     1      -4.337   7.205   3.659  0.00  0.00    +0.050 A 
ATOM     30  C   UNL     1      -3.904   5.964   3.220  0.00  0.00    +0.141 A 
BRANCH  27  31
ATOM     31  N   UNL     1      -1.151   9.183   3.585  0.00  0.00    +0.056 N 
ATOM     32  O   UNL     1      -1.538  10.271   3.972  0.00  0.00    -0.126 OA
ATOM     33  O   UNL     1       0.022   9.018   3.303  0.00  0.00    -0.126 OA
ENDBRANCH  27  31
BRANCH  30  34
ATOM     34  O   UNL     1      -4.785   4.936   3.106  0.00  0.00    -0.493 OA
ATOM     35  C   UNL     1      -6.145   5.204   3.454  0.00  0.00    +0.277 C 
ENDBRANCH  30  34
ENDBRANCH  23  25
ENDBRANCH  19  21
ENDBRANCH   1  19
TORSDOF 7
