REMARK  Name = ZINC04954519
REMARK  3 active torsions:
REMARK  status: ('A' for Active; 'I' for Inactive)
REMARK    1  A    between atoms: C_9  and  O_25
REMARK    2  A    between atoms: C_10  and  C_11
REMARK    3  A    between atoms: C_12  and  C_13
REMARK                            x       y       z     vdW  Elec       q    Type
REMARK                         _______ _______ _______ _____ _____    ______ ____
ROOT
ATOM      1  C   UNL     1       4.783   1.454  -0.037  0.00  0.00    +0.016 C 
ATOM      2  C   UNL     1       3.610   2.128  -0.021  0.00  0.00    +0.047 C 
ENDROOT
BRANCH   2   3
ATOM      3  C   UNL     1       2.346   1.394  -0.013  0.00  0.00    +0.134 A 
ATOM      4  N   UNL     1       1.173   2.108   0.002  0.00  0.00    -0.307 N 
ATOM      5  H   UNL     1       1.200   3.107   0.007  0.00  0.00    +0.170 HD
ATOM      6  C   UNL     1      -0.018   1.466   0.010  0.00  0.00    +0.259 A 
ATOM      7  O   UNL     1      -1.067   2.083   0.018  0.00  0.00    -0.267 OA
ATOM      8  C   UNL     1       0.002  -0.004   0.002  0.00  0.00    +0.065 A 
ATOM      9  C   UNL     1      -1.173  -0.754   0.009  0.00  0.00    +0.015 A 
ATOM     10  C   UNL     1      -1.097  -2.130   0.000  0.00  0.00    +0.001 A 
ATOM     11  C   UNL     1       0.135  -2.771  -0.015  0.00  0.00    +0.002 A 
ATOM     12  C   UNL     1       1.299  -2.056  -0.022  0.00  0.00    +0.028 A 
ATOM     13  C   UNL     1       1.256  -0.657  -0.013  0.00  0.00    +0.078 A 
ATOM     14  N   UNL     1       2.382   0.080  -0.020  0.00  0.00    -0.230 NA
ENDBRANCH   2   3
BRANCH   1  24
ATOM     15  C   UNL     1       9.161   1.285   2.679  0.00  0.00    +0.001 A 
ATOM     16  C   UNL     1       7.970   0.564   2.718  0.00  0.00    +0.001 A 
ATOM     17  C   UNL     1       6.956   0.839   1.849  0.00  0.00    +0.009 A 
ATOM     18  C   UNL     1       7.112   1.860   0.905  0.00  0.00    -0.007 A 
ATOM     19  C   UNL     1       8.321   2.596   0.863  0.00  0.00    -0.017 A 
ATOM     20  C   UNL     1       9.345   2.285   1.773  0.00  0.00    +0.008 A 
ATOM     21  C   UNL     1       8.476   3.622  -0.087  0.00  0.00    +0.012 A 
ATOM     22  C   UNL     1       7.479   3.916  -0.964  0.00  0.00    +0.046 A 
ATOM     23  C   UNL     1       6.273   3.217  -0.967  0.00  0.00    +0.125 A 
ATOM     24  C   UNL     1       6.050   2.189  -0.045  0.00  0.00    +0.024 A 
BRANCH  23  25
ATOM     25  O   UNL     1       5.309   3.540  -1.864  0.00  0.00    -0.506 OA
ATOM     26  H   UNL     1       4.693   4.218  -1.553  0.00  0.00    +0.292 HD
ENDBRANCH  23  25
ENDBRANCH   1  24
TORSDOF 3
