REMARK  Name = ZINC02879562
REMARK  6 active torsions:
REMARK  status: ('A' for Active; 'I' for Inactive)
REMARK    1  A    between atoms: C_3  and  C_10
REMARK    2  A    between atoms: C_5  and  N_7
REMARK    3  A    between atoms: C_13  and  C_15
REMARK    4  A    between atoms: N_17  and  C_18
REMARK    5  A    between atoms: C_18  and  N_20
REMARK    6  A    between atoms: C_23  and  C_26
REMARK                            x       y       z     vdW  Elec       q    Type
REMARK                         _______ _______ _______ _____ _____    ______ ____
ROOT
ATOM      1  C   UNL     1       1.495   8.580   0.036  0.00  0.00    +0.285 C 
ATOM      2  O   UNL     1       1.019   9.700   0.047  0.00  0.00    -0.266 OA
ATOM      3  N   UNL     1       2.833   8.416   0.023  0.00  0.00    -0.260 N 
ATOM      4  H   UNL     1       3.263   7.404   0.013  0.00  0.00    +0.157 HD
ENDROOT
BRANCH   1   8
ATOM      5  C   UNL     1      -0.070   5.322   0.030  0.00  0.00    +0.136 A 
ATOM      6  C   UNL     1      -1.190   6.103   0.045  0.00  0.00    +0.050 A 
ATOM      7  C   UNL     1      -0.764   7.434   0.049  0.00  0.00    +0.055 A 
ATOM      8  C   UNL     1       0.615   7.410   0.037  0.00  0.00    +0.190 A 
ATOM      9  O   UNL     1       1.011   6.120   0.031  0.00  0.00    -0.450 OA
BRANCH   5  12
ATOM     10  C   UNL     1      -1.222   1.748   0.017  0.00  0.00    +0.003 A 
ATOM     11  C   UNL     1      -1.248   3.127   0.030  0.00  0.00    +0.012 A 
ATOM     12  C   UNL     1      -0.050   3.845   0.022  0.00  0.00    +0.019 A 
ATOM     13  C   UNL     1       1.167   3.160   0.007  0.00  0.00    +0.044 A 
ATOM     14  C   UNL     1       1.178   1.781   0.000  0.00  0.00    +0.127 A 
ATOM     15  C   UNL     1      -0.013   1.076   0.008  0.00  0.00    +0.033 A 
BRANCH  14  16
ATOM     16  N   UNL     1       2.467   1.053  -0.015  0.00  0.00    +0.056 N 
ATOM     17  O   UNL     1       2.479  -0.165  -0.021  0.00  0.00    -0.126 OA
ATOM     18  O   UNL     1       3.516   1.672  -0.021  0.00  0.00    -0.126 OA
ENDBRANCH  14  16
ENDBRANCH   5  12
ENDBRANCH   1   8
BRANCH   3  19
ATOM     19  C   UNL     1       3.643   9.493   0.022  0.00  0.00    +0.163 C 
ATOM     20  S   UNL     1       2.973  11.069   0.038  0.00  0.00    -0.016 S 
BRANCH  19  21
ATOM     21  N   UNL     1       4.981   9.330   0.010  0.00  0.00    -0.169 NA
ATOM     22  C   UNL     1       5.816  10.439   0.009  0.00  0.00    +0.162 A 
ATOM     23  N   UNL     1       7.135  10.492  -0.003  0.00  0.00    -0.335 N 
ATOM     24  C   UNL     1       7.777  11.651  -0.002  0.00  0.00    +0.055 A 
ATOM     25  C   UNL     1       7.060  12.815   0.011  0.00  0.00    +0.074 A 
ATOM     26  S   UNL     1       5.390  12.175   0.015  0.00  0.00    -0.060 S 
ATOM     27  H   UNL     1       7.723   9.562  -0.013  0.00  0.00    +0.168 HD
BRANCH  24  28
ATOM     28  C   UNL     1       9.260  11.685  -0.015  0.00  0.00    -0.001 A 
ATOM     29  C   UNL     1       9.931  12.907  -0.021  0.00  0.00    +0.011 A 
ATOM     30  C   UNL     1      11.310  12.933  -0.029  0.00  0.00    +0.020 A 
ATOM     31  C   UNL     1      12.028  11.749  -0.041  0.00  0.00    +0.041 A 
ATOM     32  C   UNL     1      11.366  10.533  -0.041  0.00  0.00    +0.020 A 
ATOM     33  C   UNL     1       9.987  10.496  -0.028  0.00  0.00    +0.011 A 
ATOM     34 CL   UNL     1      13.763  11.790  -0.058  0.00  0.00    -0.084 Cl
ENDBRANCH  24  28
ENDBRANCH  19  21
ENDBRANCH   3  19
TORSDOF 6
