REMARK  Name = ZINC38596171
REMARK  12 active torsions:
REMARK  status: ('A' for Active; 'I' for Inactive)
REMARK    1  A    between atoms: C_1  and  C_2
REMARK    2  A    between atoms: C_2  and  O_3
REMARK    3  A    between atoms: O_3  and  C_4
REMARK    4  A    between atoms: C_7  and  S_10
REMARK    5  A    between atoms: S_10  and  N_13
REMARK    6  A    between atoms: N_13  and  C_14
REMARK    7  A    between atoms: C_14  and  C_16
REMARK    8  A    between atoms: C_14  and  C_17
REMARK    9  A    between atoms: C_17  and  C_19
REMARK   10  A    between atoms: C_17  and  N_24
REMARK   11  A    between atoms: N_27  and  C_30
REMARK   12  A    between atoms: C_30  and  C_31
REMARK                            x       y       z     vdW  Elec       q    Type
REMARK                         _______ _______ _______ _____ _____    ______ ____
ROOT
ATOM      1  C   UNL     1       4.850  -6.093   0.486  0.00  0.00    +0.112 C 
ENDROOT
BRANCH   1   2
ATOM      2  N   UNL     1       6.196  -6.123   1.073  0.00  0.00    -0.297 NA
ATOM      3  C   UNL     1       7.227  -6.151   0.025  0.00  0.00    +0.066 C 
ATOM      4  C   UNL     1       8.609  -6.241   0.676  0.00  0.00    -0.063 C 
ATOM      5  N   UNL     1       8.813  -5.083   1.556  0.00  0.00    +0.384 N 
ATOM      6  C   UNL     1       7.791  -5.082   2.611  0.00  0.00    -0.063 C 
ATOM      7  C   UNL     1       6.402  -4.982   1.977  0.00  0.00    +0.066 C 
ATOM      8  H   UNL     1       8.739  -4.234   1.016  0.00  0.00    -0.081 HD
BRANCH   5   9
ATOM      9  C   UNL     1      10.146  -5.160   2.166  0.00  0.00    -0.043 C 
BRANCH   9  10
ATOM     10  C   UNL     1      10.404  -3.913   2.971  0.00  0.00    -0.064 A 
ATOM     11  C   UNL     1      10.989  -2.813   2.373  0.00  0.00    +0.002 A 
ATOM     12  C   UNL     1      11.225  -1.668   3.112  0.00  0.00    +0.000 A 
ATOM     13  C   UNL     1      10.875  -1.624   4.449  0.00  0.00    +0.000 A 
ATOM     14  C   UNL     1      10.289  -2.724   5.046  0.00  0.00    +0.000 A 
ATOM     15  C   UNL     1      10.049  -3.866   4.307  0.00  0.00    +0.002 A 
ENDBRANCH   9  10
ENDBRANCH   5   9
ENDBRANCH   1   2
BRANCH   1  16
ATOM     16  C   UNL     1       4.687  -7.259  -0.456  0.00  0.00    +0.008 A 
ATOM     17  C   UNL     1       4.131  -7.286  -1.692  0.00  0.00    +0.013 A 
ATOM     18  C   UNL     1       4.091  -8.483  -2.382  0.00  0.00    +0.008 A 
ATOM     19  C   UNL     1       4.608  -9.594  -1.803  0.00  0.00    +0.045 A 
ATOM     20  S   UNL     1       5.183  -8.960  -0.236  0.00  0.00    -0.100 S 
ENDBRANCH   1  16
BRANCH   1  21
ATOM     21  C   UNL     1       3.806  -6.188   1.600  0.00  0.00    +0.095 C 
ATOM     22  C   UNL     1       4.066  -7.442   2.437  0.00  0.00    +0.027 C 
BRANCH  21  23
ATOM     23  N   UNL     1       2.467  -6.264   1.010  0.00  0.00    -0.185 NA
ATOM     24  H   UNL     1       2.332  -6.737   0.174  0.00  0.00    +0.148 HD
BRANCH  23  25
ATOM     25  S   UNL     1       1.185  -5.543   1.770  0.00  0.00    +0.059 S 
ATOM     26  O   UNL     1       1.236  -5.952   3.129  0.00  0.00    -0.153 OA
ATOM     27  O   UNL     1       0.047  -5.767   0.948  0.00  0.00    -0.153 OA
BRANCH  25  31
ATOM     28  C   UNL     1       1.947  -1.079   1.734  0.00  0.00    +0.121 A 
ATOM     29  C   UNL     1       1.257  -1.674   0.688  0.00  0.00    +0.047 A 
ATOM     30  C   UNL     1       1.026  -3.036   0.701  0.00  0.00    +0.032 A 
ATOM     31  C   UNL     1       1.482  -3.806   1.756  0.00  0.00    +0.105 A 
ATOM     32  C   UNL     1       2.169  -3.215   2.800  0.00  0.00    +0.032 A 
ATOM     33  C   UNL     1       2.408  -1.854   2.789  0.00  0.00    +0.047 A 
BRANCH  28  34
ATOM     34  O   UNL     1       2.176   0.261   1.724  0.00  0.00    -0.492 OA
BRANCH  34  36
ATOM     35  C   UNL     1       2.025   2.476   0.770  0.00  0.00    +0.048 C 
ATOM     36  C   UNL     1       1.673   0.996   0.607  0.00  0.00    +0.225 C 
ENDBRANCH  34  36
ENDBRANCH  28  34
ENDBRANCH  25  31
ENDBRANCH  23  25
ENDBRANCH  21  23
ENDBRANCH   1  21
TORSDOF 10
