REMARK  Name = ZINC04737708
REMARK  5 active torsions:
REMARK  status: ('A' for Active; 'I' for Inactive)
REMARK    1  A    between atoms: C_1  and  C_2
REMARK    2  A    between atoms: C_10  and  O_33
REMARK    3  A    between atoms: N_22  and  N_23
REMARK    4  A    between atoms: N_23  and  C_24
REMARK    5  A    between atoms: C_28  and  N_30
REMARK                            x       y       z     vdW  Elec       q    Type
REMARK                         _______ _______ _______ _____ _____    ______ ____
ROOT
ATOM      1  C   UNL     1       4.032   1.920   2.324  0.00  0.00    +0.018 C 
ATOM      2  C   UNL     1       3.853   2.885   1.154  0.00  0.00    +0.011 C 
ATOM      3  C   UNL     1       2.619   3.735   1.352  0.00  0.00    +0.013 C 
ATOM      4  C   UNL     1       1.377   2.839   1.262  0.00  0.00    +0.009 C 
ATOM      5  C   UNL     1       1.299   2.121  -0.082  0.00  0.00    +0.023 C 
ATOM      6  C   UNL     1       0.080   1.236  -0.118  0.00  0.00    -0.041 A 
ATOM      7  C   UNL     1      -1.162   1.861  -0.146  0.00  0.00    +0.008 A 
ATOM      8  C   UNL     1      -2.322   1.118  -0.196  0.00  0.00    +0.046 A 
ATOM      9  C   UNL     1      -2.251  -0.267  -0.218  0.00  0.00    +0.117 A 
ATOM     10  C   UNL     1      -1.015  -0.890  -0.185  0.00  0.00    +0.049 A 
ATOM     11  C   UNL     1       0.150  -0.139  -0.132  0.00  0.00    -0.040 A 
ATOM     12  C   UNL     1       1.461  -0.883  -0.090  0.00  0.00    +0.036 C 
ATOM     13  C   UNL     1       2.551   0.037   0.477  0.00  0.00    +0.009 C 
ATOM     14  C   UNL     1       2.564   1.305  -0.366  0.00  0.00    +0.001 C 
ATOM     15  C   UNL     1       3.769   2.173  -0.211  0.00  0.00    +0.005 C 
ATOM     16  C   UNL     1       5.161   1.537  -0.307  0.00  0.00    +0.010 C 
ATOM     17  C   UNL     1       6.072   2.669   0.253  0.00  0.00    +0.053 C 
ATOM     18  C   UNL     1       5.157   3.640   0.994  0.00  0.00    +0.043 C 
ATOM     19  N   UNL     1       5.416   4.821   1.394  0.00  0.00    -0.191 NA
ENDROOT
BRANCH  19  20
ATOM     20  N   UNL     1       6.682   5.376   1.165  0.00  0.00    -0.238 N 
ATOM     21  H   UNL     1       7.361   4.861   0.702  0.00  0.00    +0.174 HD
BRANCH  20  22
ATOM     22  C   UNL     1       6.966   6.671   1.603  0.00  0.00    +0.050 A 
ATOM     23  C   UNL     1       5.993   7.412   2.262  0.00  0.00    +0.025 A 
ATOM     24  C   UNL     1       6.279   8.691   2.699  0.00  0.00    +0.004 A 
ATOM     25  C   UNL     1       7.529   9.237   2.472  0.00  0.00    +0.033 A 
ATOM     26  C   UNL     1       8.499   8.504   1.812  0.00  0.00    +0.128 A 
ATOM     27  C   UNL     1       8.221   7.223   1.377  0.00  0.00    +0.057 A 
BRANCH  26  28
ATOM     28  N   UNL     1       9.835   9.093   1.572  0.00  0.00    +0.056 N 
ATOM     29  O   UNL     1      10.690   8.447   0.991  0.00  0.00    -0.126 OA
ATOM     30  O   UNL     1      10.081  10.222   1.955  0.00  0.00    -0.126 OA
ENDBRANCH  26  28
ENDBRANCH  20  22
ENDBRANCH  19  20
BRANCH   9  31
ATOM     31  O   UNL     1      -3.389  -1.009  -0.271  0.00  0.00    -0.507 OA
ATOM     32  H   UNL     1      -3.749  -1.239   0.596  0.00  0.00    +0.292 HD
ENDBRANCH   9  31
TORSDOF 4
