REMARK  Name = ZINC12859609
REMARK  10 active torsions:
REMARK  status: ('A' for Active; 'I' for Inactive)
REMARK    1  A    between atoms: C_1  and  C_2
REMARK    2  A    between atoms: C_4  and  C_34
REMARK    3  A    between atoms: C_6  and  O_8
REMARK    4  A    between atoms: O_8  and  C_9
REMARK    5  A    between atoms: C_9  and  C_10
REMARK    6  A    between atoms: N_12  and  N_13
REMARK    7  A    between atoms: C_14  and  C_15
REMARK    8  A    between atoms: C_17  and  N_22
REMARK    9  A    between atoms: C_20  and  O_21
REMARK   10  A    between atoms: N_23  and  C_24
REMARK                            x       y       z     vdW  Elec       q    Type
REMARK                         _______ _______ _______ _____ _____    ______ ____
ROOT
ATOM      1  C   UNL     1      -0.037  -1.343   8.509  0.00  0.00    +0.038 A 
ATOM      2  C   UNL     1       0.176  -0.807   9.777  0.00  0.00    +0.042 A 
ATOM      3  C   UNL     1       0.156   0.577   9.956  0.00  0.00    +0.087 A 
ATOM      4  C   UNL     1      -0.079   1.419   8.862  0.00  0.00    +0.033 A 
ATOM      5  C   UNL     1      -0.290   0.887   7.609  0.00  0.00    +0.048 A 
ATOM      6  C   UNL     1      -0.265  -0.488   7.420  0.00  0.00    +0.126 A 
ENDROOT
BRANCH   1   8
ATOM      7  N   UNL     1      -0.303  -3.597   9.297  0.00  0.00    -0.188 NA
ATOM      8  C   UNL     1      -0.017  -2.804   8.310  0.00  0.00    +0.142 C 
BRANCH   7  11
ATOM      9  C   UNL     1      -1.055  -3.882  11.538  0.00  0.00    +0.270 C 
ATOM     10  O   UNL     1      -0.745  -5.053  11.478  0.00  0.00    -0.270 OA
ATOM     11  N   UNL     1      -0.862  -3.079  10.473  0.00  0.00    -0.204 N 
ATOM     12  H   UNL     1      -1.110  -2.143  10.520  0.00  0.00    +0.177 HD
BRANCH   9  13
ATOM     13  C   UNL     1      -1.657  -3.325  12.802  0.00  0.00    +0.326 C 
BRANCH  13  14
ATOM     14  O   UNL     1      -1.759  -4.364  13.778  0.00  0.00    -0.483 OA
BRANCH  14  20
ATOM     15  C   UNL     1      -3.674  -0.966  16.713  0.00  0.00    +0.044 C 
ATOM     16  C   UNL     1      -3.229  -2.382  16.452  0.00  0.00    -0.047 A 
ATOM     17  C   UNL     1      -3.357  -3.339  17.442  0.00  0.00    +0.007 A 
ATOM     18  C   UNL     1      -2.950  -4.639  17.205  0.00  0.00    -0.047 A 
ATOM     19  C   UNL     1      -2.414  -4.985  15.979  0.00  0.00    +0.049 A 
ATOM     20  C   UNL     1      -2.286  -4.026  14.985  0.00  0.00    +0.122 A 
ATOM     21  C   UNL     1      -2.700  -2.724  15.223  0.00  0.00    +0.049 A 
ATOM     22  C   UNL     1      -3.090  -5.680  18.286  0.00  0.00    +0.044 C 
ENDBRANCH  14  20
ENDBRANCH  13  14
ENDBRANCH   9  13
ENDBRANCH   7  11
ENDBRANCH   1   8
BRANCH   6  23
ATOM     23  O   UNL     1      -0.468  -1.005   6.182  0.00  0.00    -0.506 OA
ATOM     24  H   UNL     1      -1.384  -1.259   6.007  0.00  0.00    +0.292 HD
ENDBRANCH   6  23
BRANCH   3  25
ATOM     25  N   UNL     1       0.363   1.108  11.196  0.00  0.00    -0.149 NA
ATOM     26  N   UNL     1       0.344   2.387  11.361  0.00  0.00    -0.149 NA
BRANCH  26  27
ATOM     27  C   UNL     1       0.552   2.918  12.598  0.00  0.00    +0.094 A 
ATOM     28  C   UNL     1       0.791   2.094  13.693  0.00  0.00    +0.030 A 
ATOM     29  C   UNL     1       1.002   2.638  14.952  0.00  0.00    +0.003 A 
ATOM     30  C   UNL     1       0.983   3.982  15.166  0.00  0.00    +0.008 A 
ATOM     31  C   UNL     1       0.747   4.874  14.107  0.00  0.00    -0.016 A 
ATOM     32  C   UNL     1       0.533   4.365  12.802  0.00  0.00    +0.009 A 
ATOM     33  C   UNL     1       0.303   5.251  11.743  0.00  0.00    +0.010 A 
ATOM     34  C   UNL     1       0.294   6.594  11.978  0.00  0.00    +0.001 A 
ATOM     35  C   UNL     1       0.511   7.098  13.258  0.00  0.00    +0.001 A 
ATOM     36  C   UNL     1       0.725   6.265  14.313  0.00  0.00    +0.008 A 
ENDBRANCH  26  27
ENDBRANCH   3  25
TORSDOF 8
