REMARK  Name = ZINC14031564
REMARK  8 active torsions:
REMARK  status: ('A' for Active; 'I' for Inactive)
REMARK    1  A    between atoms: C_1  and  C_2
REMARK    2  A    between atoms: C_2  and  C_4
REMARK    3  A    between atoms: C_2  and  O_17
REMARK    4  A    between atoms: N_6  and  N_7
REMARK    5  A    between atoms: C_8  and  C_9
REMARK    6  A    between atoms: C_8  and  C_10
REMARK    7  A    between atoms: C_15  and  O_16
REMARK    8  A    between atoms: O_17  and  C_18
REMARK                            x       y       z     vdW  Elec       q    Type
REMARK                         _______ _______ _______ _____ _____    ______ ____
ROOT
ATOM      1  C   UNL     1       0.693  -0.725   1.266  0.00  0.00    +0.273 C 
ATOM      2  O   UNL     1      -0.005  -1.177   2.150  0.00  0.00    -0.270 OA
ATOM      3  N   UNL     1       2.030  -0.668   1.425  0.00  0.00    -0.204 N 
ATOM      4  H   UNL     1       2.588  -0.307   0.719  0.00  0.00    +0.177 HD
ENDROOT
BRANCH   3   5
ATOM      5  N   UNL     1       2.614  -1.130   2.612  0.00  0.00    -0.184 NA
ATOM      6  C   UNL     1       3.902  -1.075   2.766  0.00  0.00    +0.067 C 
ATOM      7  C   UNL     1       4.768  -0.514   1.668  0.00  0.00    +0.068 C 
BRANCH   6   8
ATOM      8  C   UNL     1       4.516  -1.562   4.014  0.00  0.00    +0.039 A 
ATOM      9  C   UNL     1       5.901  -1.499   4.186  0.00  0.00    +0.013 A 
ATOM     10  C   UNL     1       6.470  -1.956   5.356  0.00  0.00    +0.001 A 
ATOM     11  C   UNL     1       5.673  -2.476   6.362  0.00  0.00    +0.004 A 
ATOM     12  C   UNL     1       4.302  -2.544   6.204  0.00  0.00    +0.046 A 
ATOM     13  C   UNL     1       3.714  -2.084   5.037  0.00  0.00    +0.126 A 
BRANCH  13  14
ATOM     14  O   UNL     1       2.366  -2.145   4.883  0.00  0.00    -0.506 OA
ATOM     15  H   UNL     1       2.052  -2.970   4.487  0.00  0.00    +0.292 HD
ENDBRANCH  13  14
ENDBRANCH   6   8
ENDBRANCH   3   5
BRANCH   1  17
ATOM     16  C   UNL     1       0.290   1.281  -0.136  0.00  0.00    +0.062 C 
ATOM     17  C   UNL     1       0.064  -0.227  -0.010  0.00  0.00    +0.257 C 
BRANCH  17  18
ATOM     18  O   UNL     1      -1.339  -0.499   0.012  0.00  0.00    -0.480 OA
BRANCH  18  19
ATOM     19  C   UNL     1      -1.965  -0.607  -1.189  0.00  0.00    +0.122 A 
ATOM     20  C   UNL     1      -1.255  -0.345  -2.364  0.00  0.00    +0.046 A 
ATOM     21  C   UNL     1      -1.854  -0.444  -3.581  0.00  0.00    +0.012 A 
ATOM     22  C   UNL     1      -3.208  -0.816  -3.662  0.00  0.00    -0.018 A 
ATOM     23  C   UNL     1      -3.858  -0.929  -4.903  0.00  0.00    +0.008 A 
ATOM     24  C   UNL     1      -5.169  -1.292  -4.945  0.00  0.00    +0.001 A 
ATOM     25  C   UNL     1      -5.880  -1.554  -3.775  0.00  0.00    +0.001 A 
ATOM     26  C   UNL     1      -5.283  -1.455  -2.556  0.00  0.00    +0.008 A 
ATOM     27  C   UNL     1      -3.930  -1.083  -2.472  0.00  0.00    -0.014 A 
ATOM     28  C   UNL     1      -3.280  -0.975  -1.232  0.00  0.00    +0.054 A 
ENDBRANCH  18  19
ENDBRANCH  17  18
ENDBRANCH   1  17
TORSDOF 6
