REMARK  Name = ZINC00804255
REMARK  4 active torsions:
REMARK  status: ('A' for Active; 'I' for Inactive)
REMARK    1  A    between atoms: C_1  and  C_2
REMARK    2  A    between atoms: C_5  and  C_8
REMARK    3  A    between atoms: C_13  and  C_17
REMARK    4  A    between atoms: C_13  and  C_18
REMARK                            x       y       z     vdW  Elec       q    Type
REMARK                         _______ _______ _______ _____ _____    ______ ____
ROOT
ATOM      1  C   UNL     1       0.059  -4.275  -0.021  0.00  0.00    +0.175 C 
ATOM      2  C   UNL     1      -1.169  -4.797   0.691  0.00  0.00    +0.041 C 
ATOM      3  C   UNL     1      -1.105  -5.347   1.923  0.00  0.00    +0.020 C 
ATOM      4  C   UNL     1      -2.349  -5.860   2.610  0.00  0.00    +0.058 C 
ATOM      5  C   UNL     1      -3.560  -5.038   2.164  0.00  0.00    -0.023 C 
ATOM      6  C   UNL     1      -3.683  -5.147   0.640  0.00  0.00    +0.086 C 
ATOM      7  C   UNL     1      -2.397  -4.685   0.014  0.00  0.00    +0.164 C 
ATOM      8  O   UNL     1      -2.418  -4.205  -1.102  0.00  0.00    -0.292 OA
ATOM      9  C   UNL     1      -3.364  -3.574   2.562  0.00  0.00    +0.011 C 
ATOM     10  C   UNL     1      -4.826  -5.587   2.824  0.00  0.00    +0.011 C 
ATOM     11  N   UNL     1       0.085  -5.470   2.600  0.00  0.00    -0.287 N 
ATOM     12  C   UNL     1       1.260  -5.303   1.887  0.00  0.00    +0.218 A 
ATOM     13  N   UNL     1       1.262  -4.747   0.652  0.00  0.00    -0.221 N 
ATOM     14  N   UNL     1       2.590  -4.740   0.228  0.00  0.00    -0.156 NA
ATOM     15  C   UNL     1       3.299  -5.266   1.196  0.00  0.00    +0.247 A 
ATOM     16  N   UNL     1       2.491  -5.605   2.197  0.00  0.00    -0.201 NA
ATOM     17  H   UNL     1       0.100  -5.667   3.550  0.00  0.00    +0.155 HD
ENDROOT
BRANCH   1  22
ATOM     18  C   UNL     1      -0.018   1.503   0.010  0.00  0.00    +0.044 C 
ATOM     19  C   UNL     1       0.002  -0.004   0.002  0.00  0.00    -0.050 A 
ATOM     20  C   UNL     1       0.006  -0.689  -1.199  0.00  0.00    +0.004 A 
ATOM     21  C   UNL     1       0.025  -2.071  -1.206  0.00  0.00    +0.006 A 
ATOM     22  C   UNL     1       0.040  -2.768  -0.013  0.00  0.00    -0.018 A 
ATOM     23  C   UNL     1       0.037  -2.084   1.188  0.00  0.00    +0.006 A 
ATOM     24  C   UNL     1       0.023  -0.702   1.195  0.00  0.00    +0.004 A 
ENDBRANCH   1  22
TORSDOF 1
