REMARK  Name = ZINC62124040
REMARK  5 active torsions:
REMARK  status: ('A' for Active; 'I' for Inactive)
REMARK    1  A    between atoms: C_1  and  C_2
REMARK    2  A    between atoms: C_2  and  C_3
REMARK    3  A    between atoms: C_2  and  C_4
REMARK    4  A    between atoms: C_7  and  C_10
REMARK    5  A    between atoms: N_20  and  C_21
REMARK                            x       y       z     vdW  Elec       q    Type
REMARK                         _______ _______ _______ _____ _____    ______ ____
ROOT
ATOM      1  C   UNL     1       2.796  -1.919   4.681  0.00  0.00    +0.194 C 
ATOM      2  C   UNL     1       2.513  -1.008   5.845  0.00  0.00    +0.238 C 
ATOM      3  O   UNL     1       3.029   0.089   5.859  0.00  0.00    -0.273 OA
ATOM      4  N   UNL     1       1.720  -1.352   6.861  0.00  0.00    -0.312 N 
ATOM      5  C   UNL     1       1.108  -2.663   7.024  0.00  0.00    +0.123 C 
ATOM      6  C   UNL     1       1.026  -3.395   5.684  0.00  0.00    +0.129 C 
ATOM      7  N   UNL     1       2.334  -3.275   5.012  0.00  0.00    -0.269 N 
ATOM      8  C   UNL     1       3.075  -4.361   4.714  0.00  0.00    +0.303 C 
ATOM      9  O   UNL     1       2.630  -5.474   4.915  0.00  0.00    -0.253 OA
ATOM     10  N   UNL     1       4.310  -4.212   4.194  0.00  0.00    -0.296 N 
ATOM     11  H   UNL     1       1.540  -0.682   7.538  0.00  0.00    +0.149 HD
ATOM     12  H   UNL     1       4.694  -3.326   4.102  0.00  0.00    +0.151 HD
ENDROOT
BRANCH   1  16
ATOM     13  C   UNL     1       0.728  -0.507   1.220  0.00  0.00    -0.045 A 
ATOM     14  C   UNL     1       2.097  -0.693   1.180  0.00  0.00    +0.004 A 
ATOM     15  C   UNL     1       2.766  -1.149   2.300  0.00  0.00    +0.006 A 
ATOM     16  C   UNL     1       2.067  -1.420   3.461  0.00  0.00    -0.018 A 
ATOM     17  C   UNL     1       0.697  -1.234   3.502  0.00  0.00    +0.006 A 
ATOM     18  C   UNL     1       0.029  -0.774   2.383  0.00  0.00    +0.004 A 
BRANCH  13  20
ATOM     19  C   UNL     1       0.549   1.360  -0.401  0.00  0.00    +0.012 C 
ATOM     20  C   UNL     1      -0.002  -0.010  -0.000  0.00  0.00    +0.013 C 
ATOM     21  C   UNL     1       0.198  -0.997  -1.152  0.00  0.00    +0.012 C 
ENDBRANCH  13  20
ENDBRANCH   1  16
BRANCH  10  22
ATOM     22  C   UNL     1       5.072  -5.388   3.769  0.00  0.00    +0.074 C 
ATOM     23  C   UNL     1       5.809  -5.981   4.971  0.00  0.00    +0.022 C 
ATOM     24  C   UNL     1       6.605  -7.210   4.527  0.00  0.00    +0.002 C 
ATOM     25  C   UNL     1       7.620  -6.800   3.457  0.00  0.00    +0.000 C 
ATOM     26  C   UNL     1       6.883  -6.207   2.255  0.00  0.00    +0.002 C 
ATOM     27  C   UNL     1       6.087  -4.979   2.699  0.00  0.00    +0.022 C 
ENDBRANCH  10  22
TORSDOF 3
