REMARK  Name = ZINC12917005
REMARK  9 active torsions:
REMARK  status: ('A' for Active; 'I' for Inactive)
REMARK    1  A    between atoms: C_10  and  O_12
REMARK    2  A    between atoms: O_12  and  C_13
REMARK    3  A    between atoms: C_13  and  C_14
REMARK    4  A    between atoms: C_14  and  C_16
REMARK    5  A    between atoms: C_14  and  O_36
REMARK    6  A    between atoms: C_16  and  N_17
REMARK    7  A    between atoms: N_20  and  S_23
REMARK    8  A    between atoms: S_23  and  C_26
REMARK    9  A    between atoms: C_29  and  C_32
REMARK                            x       y       z     vdW  Elec       q    Type
REMARK                         _______ _______ _______ _____ _____    ______ ____
ROOT
ATOM      1  N   UNL     1      -1.605   1.849   4.301  0.00  0.00    -0.297 NA
ATOM      2  C   UNL     1      -2.410   3.057   4.073  0.00  0.00    +0.101 C 
ATOM      3  C   UNL     1      -2.995   3.016   2.657  0.00  0.00    +0.125 C 
ATOM      4  N   UNL     1      -1.895   2.812   1.702  0.00  0.00    -0.174 NA
ATOM      5  C   UNL     1      -0.966   1.697   1.939  0.00  0.00    +0.125 C 
ATOM      6  C   UNL     1      -0.457   1.793   3.386  0.00  0.00    +0.101 C 
ENDROOT
BRANCH   4   7
ATOM      7  S   UNL     1      -1.712   3.808   0.392  0.00  0.00    +0.061 S 
ATOM      8  O   UNL     1      -2.991   4.367   0.124  0.00  0.00    -0.153 OA
ATOM      9  O   UNL     1      -0.986   3.069  -0.581  0.00  0.00    -0.153 OA
BRANCH   7  10
ATOM     10  C   UNL     1      -0.674   5.141   0.891  0.00  0.00    +0.106 A 
ATOM     11  C   UNL     1      -1.231   6.290   1.420  0.00  0.00    +0.029 A 
ATOM     12  C   UNL     1      -0.417   7.338   1.805  0.00  0.00    +0.014 A 
ATOM     13  C   UNL     1       0.954   7.238   1.663  0.00  0.00    +0.055 A 
ATOM     14  C   UNL     1       1.511   6.088   1.134  0.00  0.00    +0.014 A 
ATOM     15  C   UNL     1       0.697   5.040   0.748  0.00  0.00    +0.029 A 
BRANCH  13  16
ATOM     16  C   UNL     1       1.842   8.380   2.084  0.00  0.00    +0.417 C 
ATOM     17  F   UNL     1       2.029   9.248   1.003  0.00  0.00    -0.166 F 
ATOM     18  F   UNL     1       1.240   9.073   3.140  0.00  0.00    -0.166 F 
ATOM     19  F   UNL     1       3.080   7.880   2.499  0.00  0.00    -0.166 F 
ENDBRANCH  13  16
ENDBRANCH   7  10
ENDBRANCH   4   7
BRANCH   1  20
ATOM     20  C   UNL     1      -1.167   1.765   5.701  0.00  0.00    +0.118 C 
BRANCH  20  21
ATOM     21  C   UNL     1      -2.344   1.333   6.578  0.00  0.00    +0.154 C 
BRANCH  21  22
ATOM     22  O   UNL     1      -2.809   0.050   6.154  0.00  0.00    -0.388 OA
ATOM     23  H   UNL     1      -3.178  -0.089   5.127  0.00  0.00    +0.210 HD
ENDBRANCH  21  22
BRANCH  21  24
ATOM     24  C   UNL     1      -1.891   1.254   8.037  0.00  0.00    +0.193 C 
BRANCH  24  25
ATOM     25  O   UNL     1      -3.015   0.965   8.870  0.00  0.00    -0.369 OA
BRANCH  25  35
ATOM     26  C   UNL     1      -6.234   2.204  12.366  0.00  0.00    +0.000 A 
ATOM     27  C   UNL     1      -5.850   2.833  11.196  0.00  0.00    +0.000 A 
ATOM     28  C   UNL     1      -4.713   2.415  10.536  0.00  0.00    +0.006 A 
ATOM     29  C   UNL     1      -3.950   1.368  11.037  0.00  0.00    -0.016 A 
ATOM     30  C   UNL     1      -4.335   0.740  12.200  0.00  0.00    -0.042 A 
ATOM     31  C   UNL     1      -5.479   1.163  12.864  0.00  0.00    +0.004 A 
ATOM     32  C   UNL     1      -3.561  -0.406  12.797  0.00  0.00    +0.035 C 
ATOM     33  C   UNL     1      -2.149  -0.462  12.216  0.00  0.00    +0.007 C 
ATOM     34  C   UNL     1      -2.254  -0.426  10.687  0.00  0.00    +0.037 C 
ATOM     35  C   UNL     1      -2.718   0.967  10.268  0.00  0.00    +0.149 C 
ENDBRANCH  25  35
ENDBRANCH  24  25
ENDBRANCH  21  24
ENDBRANCH  20  21
ENDBRANCH   1  20
TORSDOF 9
