REMARK  Name = ZINC16766087
REMARK  7 active torsions:
REMARK  status: ('A' for Active; 'I' for Inactive)
REMARK    1  A    between atoms: C_1  and  C_2
REMARK    2  A    between atoms: C_2  and  C_4
REMARK    3  A    between atoms: C_2  and  O_15
REMARK    4  A    between atoms: N_6  and  C_7
REMARK    5  A    between atoms: O_15  and  C_16
REMARK    6  A    between atoms: C_16  and  C_18
REMARK    7  A    between atoms: C_20  and  N_26
REMARK                            x       y       z     vdW  Elec       q    Type
REMARK                         _______ _______ _______ _____ _____    ______ ____
ROOT
ATOM      1  O   UNL     1       3.624   2.441   0.004  0.00  0.00    -0.448 OA
ENDROOT
BRANCH   1   3
ATOM      2  C   UNL     1       5.309   1.397   1.418  0.00  0.00    +0.062 C 
ATOM      3  C   UNL     1       4.854   1.669  -0.017  0.00  0.00    +0.259 C 
BRANCH   3   4
ATOM      4  C   UNL     1       5.922   2.445  -0.745  0.00  0.00    +0.258 C 
ATOM      5  O   UNL     1       5.699   3.576  -1.121  0.00  0.00    -0.271 OA
ATOM      6  N   UNL     1       7.124   1.881  -0.977  0.00  0.00    -0.280 N 
ATOM      7  H   UNL     1       7.351   0.884  -0.572  0.00  0.00    +0.155 HD
BRANCH   6   8
ATOM      8  C   UNL     1       8.084   2.565  -1.733  0.00  0.00    +0.069 A 
ATOM      9  C   UNL     1       8.178   3.948  -1.651  0.00  0.00    +0.027 A 
ATOM     10  C   UNL     1       9.125   4.620  -2.398  0.00  0.00    +0.017 A 
ATOM     11  C   UNL     1       9.981   3.918  -3.229  0.00  0.00    +0.021 A 
ATOM     12  C   UNL     1       9.891   2.541  -3.314  0.00  0.00    +0.055 A 
ATOM     13  C   UNL     1       8.948   1.861  -2.564  0.00  0.00    +0.146 A 
ATOM     14  F   UNL     1       8.863   0.515  -2.643  0.00  0.00    -0.204 F 
ATOM     15 BR   UNL     1      11.276   4.844  -4.250  0.00  0.00    -0.050 Br
ENDBRANCH   6   8
ENDBRANCH   3   4
ENDBRANCH   1   3
BRANCH   1  16
ATOM     16  C   UNL     1       2.468   1.750   0.022  0.00  0.00    +0.360 C 
ATOM     17  O   UNL     1       2.487   0.535   0.021  0.00  0.00    -0.243 OA
BRANCH  16  18
ATOM     18  C   UNL     1       1.176   2.470   0.044  0.00  0.00    +0.169 A 
ATOM     19  C   UNL     1      -0.015   1.749   0.063  0.00  0.00    +0.095 A 
ATOM     20  C   UNL     1      -1.225   2.443   0.078  0.00  0.00    +0.067 A 
ATOM     21  C   UNL     1      -1.188   3.836   0.084  0.00  0.00    +0.100 A 
ATOM     22  C   UNL     1       0.038   4.482   0.064  0.00  0.00    +0.150 A 
ATOM     23  N   UNL     1       1.163   3.799   0.045  0.00  0.00    -0.226 NA
ATOM     24 CL   UNL     1       0.090   6.218   0.064  0.00  0.00    -0.060 Cl
ATOM     25 CL   UNL     1      -2.663   4.753   0.109  0.00  0.00    -0.078 Cl
ATOM     26 CL   UNL     1       0.006   0.013   0.061  0.00  0.00    -0.079 Cl
BRANCH  20  27
ATOM     27  N   UNL     1      -2.440   1.761   0.092  0.00  0.00    -0.356 N 
ATOM     28  H   UNL     1      -3.386   2.322   0.103  0.00  0.00    +0.142 HD
ATOM     29  H   UNL     1      -2.452   0.661   0.090  0.00  0.00    +0.142 HD
ENDBRANCH  20  27
ENDBRANCH  16  18
ENDBRANCH   1  16
TORSDOF 6
