REMARK  Name = ZINC38002391
REMARK  2 active torsions:
REMARK  status: ('A' for Active; 'I' for Inactive)
REMARK    1  A    between atoms: C_8  and  C_12
REMARK    2  A    between atoms: C_15  and  C_18
REMARK                            x       y       z     vdW  Elec       q    Type
REMARK                         _______ _______ _______ _____ _____    ______ ____
ROOT
ATOM      1  C   UNL     1       2.583  -4.232  -0.208  0.00  0.00    +0.102 A 
ATOM      2  N   UNL     1       2.991  -4.842   0.935  0.00  0.00    -0.342 N 
ATOM      3  H   UNL     1       3.305  -4.405   1.742  0.00  0.00    +0.167 HD
ATOM      4  C   UNL     1       2.874  -6.199   0.730  0.00  0.00    +0.071 A 
ATOM      5  C   UNL     1       2.397  -6.360  -0.536  0.00  0.00    +0.110 A 
ATOM      6  N   UNL     1       2.227  -5.145  -1.071  0.00  0.00    -0.348 N 
ATOM      7  H   UNL     1       1.894  -4.970  -1.965  0.00  0.00    +0.166 HD
ENDROOT
BRANCH   1  15
ATOM      8  C   UNL     1      -0.017   1.376   0.010  0.00  0.00    +0.000 A 
ATOM      9  C   UNL     1       1.173   2.080   0.002  0.00  0.00    +0.000 A 
ATOM     10  C   UNL     1       2.374   1.400  -0.015  0.00  0.00    +0.005 A 
ATOM     11  C   UNL     1       2.395   0.013  -0.024  0.00  0.00    -0.030 A 
ATOM     12  C   UNL     1       1.208  -0.688  -0.012  0.00  0.00    -0.041 A 
ATOM     13  C   UNL     1       0.002  -0.004   0.002  0.00  0.00    +0.004 A 
ATOM     14  C   UNL     1       1.180  -2.195  -0.009  0.00  0.00    +0.062 C 
ATOM     15  C   UNL     1       2.541  -2.744  -0.440  0.00  0.00    +0.123 C 
ATOM     16  N   UNL     1       3.585  -2.085   0.361  0.00  0.00    -0.303 NA
ATOM     17  C   UNL     1       3.730  -0.684  -0.048  0.00  0.00    +0.117 C 
ATOM     18  H   UNL     1       3.382  -2.155   1.347  0.00  0.00    +0.123 HD
ENDBRANCH   1  15
BRANCH   4  19
ATOM     19  C   UNL     1       3.202  -7.267   1.691  0.00  0.00    +0.038 A 
ATOM     20  C   UNL     1       3.110  -8.626   1.537  0.00  0.00    +0.019 A 
ATOM     21  C   UNL     1       3.477  -9.438   2.588  0.00  0.00    +0.023 A 
ATOM     22  C   UNL     1       3.918  -8.869   3.740  0.00  0.00    +0.056 A 
ATOM     23  S   UNL     1       3.829  -7.128   3.357  0.00  0.00    -0.080 S 
ATOM     24 BR   UNL     1       4.487  -9.707   5.338  0.00  0.00    -0.043 Br
ENDBRANCH   4  19
TORSDOF 2
