REMARK  Name = ZINC03288650
REMARK  9 active torsions:
REMARK  status: ('A' for Active; 'I' for Inactive)
REMARK    1  A    between atoms: C_1  and  C_2
REMARK    2  A    between atoms: C_5  and  C_9
REMARK    3  A    between atoms: C_7  and  C_8
REMARK    4  A    between atoms: N_13  and  C_14
REMARK    5  A    between atoms: C_19  and  O_20
REMARK    6  A    between atoms: O_20  and  C_21
REMARK    7  A    between atoms: N_22  and  N_23
REMARK    8  A    between atoms: N_23  and  C_24
REMARK    9  A    between atoms: C_24  and  C_26
REMARK                            x       y       z     vdW  Elec       q    Type
REMARK                         _______ _______ _______ _____ _____    ______ ____
ROOT
ATOM      1  C   UNL     1      -0.060   5.162   0.341  0.00  0.00    +0.078 A 
ATOM      2  C   UNL     1       1.114   5.826   0.299  0.00  0.00    +0.076 A 
ATOM      3  S   UNL     1       2.279   4.507  -0.001  0.00  0.00    -0.058 S 
ATOM      4  C   UNL     1       1.116   3.153  -0.044  0.00  0.00    +0.169 A 
ATOM      5  N   UNL     1       1.341   1.867  -0.234  0.00  0.00    -0.332 N 
ATOM      6  N   UNL     1      -0.076   3.804   0.174  0.00  0.00    -0.238 N 
ATOM      7  H   UNL     1       0.516   1.145  -0.143  0.00  0.00    +0.168 HD
ENDROOT
BRANCH   1  12
ATOM      8  C   UNL     1      -4.971   8.025   1.240  0.00  0.00    +0.044 C 
ATOM      9  C   UNL     1      -3.685   7.276   1.004  0.00  0.00    -0.047 A 
ATOM     10  C   UNL     1      -2.650   7.882   0.314  0.00  0.00    +0.004 A 
ATOM     11  C   UNL     1      -1.469   7.204   0.100  0.00  0.00    +0.010 A 
ATOM     12  C   UNL     1      -1.322   5.898   0.572  0.00  0.00    +0.001 A 
ATOM     13  C   UNL     1      -2.369   5.292   1.267  0.00  0.00    +0.013 A 
ATOM     14  C   UNL     1      -3.544   5.984   1.479  0.00  0.00    -0.047 A 
ATOM     15  C   UNL     1      -4.676   5.331   2.229  0.00  0.00    +0.044 C 
ENDBRANCH   1  12
BRANCH   5  16
ATOM     16  C   UNL     1       2.601   1.431  -0.546  0.00  0.00    +0.083 A 
ATOM     17  C   UNL     1       3.459   0.990   0.462  0.00  0.00    +0.029 A 
ATOM     18  C   UNL     1       4.728   0.551   0.142  0.00  0.00    +0.002 A 
ATOM     19  C   UNL     1       5.152   0.547  -1.175  0.00  0.00    +0.004 A 
ATOM     20  C   UNL     1       4.309   0.982  -2.183  0.00  0.00    +0.048 A 
ATOM     21  C   UNL     1       3.033   1.420  -1.878  0.00  0.00    +0.143 A 
BRANCH  21  22
ATOM     22  O   UNL     1       2.202   1.843  -2.869  0.00  0.00    -0.493 OA
ATOM     23  C   UNL     1       2.711   1.804  -4.203  0.00  0.00    +0.277 C 
ENDBRANCH  21  22
ENDBRANCH   5  16
BRANCH   6  24
ATOM     24  N   UNL     1      -1.282   3.092   0.218  0.00  0.00    -0.248 N 
ATOM     25  H   UNL     1      -2.165   3.473  -0.316  0.00  0.00    +0.173 HD
BRANCH  24  26
ATOM     26  C   UNL     1      -1.362   1.900   0.940  0.00  0.00    +0.082 C 
ATOM     27  C   UNL     1      -0.327   1.497   1.685  0.00  0.00    +0.038 C 
BRANCH  26  28
ATOM     28  C   UNL     1      -2.589   1.084   0.881  0.00  0.00    +0.149 A 
ATOM     29  C   UNL     1      -2.796  -0.095   1.528  0.00  0.00    +0.051 A 
ATOM     30  C   UNL     1      -4.097  -0.519   1.192  0.00  0.00    +0.042 A 
ATOM     31  C   UNL     1      -4.611   0.406   0.359  0.00  0.00    +0.196 A 
ATOM     32  O   UNL     1      -3.698   1.373   0.173  0.00  0.00    -0.462 OA
ENDBRANCH  26  28
ENDBRANCH  24  26
ENDBRANCH   6  24
TORSDOF 6
