REMARK  Name = ZINC48575377
REMARK  9 active torsions:
REMARK  status: ('A' for Active; 'I' for Inactive)
REMARK    1  A    between atoms: C_1  and  C_2
REMARK    2  A    between atoms: C_2  and  C_4
REMARK    3  A    between atoms: C_2  and  N_13
REMARK    4  A    between atoms: N_9  and  C_10
REMARK    5  A    between atoms: C_10  and  C_11
REMARK    6  A    between atoms: C_10  and  C_12
REMARK    7  A    between atoms: N_13  and  C_14
REMARK    8  A    between atoms: N_13  and  C_15
REMARK    9  A    between atoms: C_15  and  C_16
REMARK                            x       y       z     vdW  Elec       q    Type
REMARK                         _______ _______ _______ _____ _____    ______ ____
ROOT
ATOM      1  C   UNL     1       0.517   1.384   0.329  0.00  0.00    -0.004 C 
ATOM      2  C   UNL     1       0.145  -0.056  -0.031  0.00  0.00    +0.017 C 
ENDROOT
BRANCH   2   3
ATOM      3  C   UNL     1       0.973  -0.509  -1.206  0.00  0.00    +0.207 C 
ATOM      4  O   UNL     1       2.018  -1.097  -1.020  0.00  0.00    -0.277 OA
ATOM      5  N   UNL     1       0.553  -0.263  -2.462  0.00  0.00    -0.242 N 
ATOM      6  C   UNL     1       1.294  -0.668  -3.513  0.00  0.00    +0.306 C 
ATOM      7  O   UNL     1       2.341  -1.257  -3.327  0.00  0.00    -0.252 OA
ATOM      8  N   UNL     1       0.873  -0.421  -4.769  0.00  0.00    -0.297 N 
ATOM      9  H   UNL     1      -0.283   0.207  -2.611  0.00  0.00    +0.159 HD
ATOM     10  H   UNL     1       0.038   0.048  -4.918  0.00  0.00    +0.151 HD
BRANCH   8  11
ATOM     11  C   UNL     1       1.678  -0.862  -5.911  0.00  0.00    +0.068 C 
ATOM     12  C   UNL     1       1.341  -2.318  -6.241  0.00  0.00    +0.027 C 
ATOM     13  C   UNL     1       1.371   0.020  -7.123  0.00  0.00    +0.027 C 
ENDBRANCH   8  11
ENDBRANCH   2   3
BRANCH   2  14
ATOM     14  N   UNL     1       0.406  -0.931   1.119  0.00  0.00    +0.388 N 
ATOM     15  C   UNL     1      -0.375  -0.468   2.274  0.00  0.00    -0.095 C 
ATOM     16  H   UNL     1       1.389  -0.905   1.345  0.00  0.00    -0.081 HD
BRANCH  14  17
ATOM     17  C   UNL     1       0.017  -2.308   0.785  0.00  0.00    -0.035 C 
BRANCH  17  18
ATOM     18  C   UNL     1       0.415  -3.229   1.909  0.00  0.00    -0.026 A 
ATOM     19  C   UNL     1      -0.297  -3.602   3.000  0.00  0.00    +0.024 A 
ATOM     20  C   UNL     1       0.277  -4.468   3.912  0.00  0.00    +0.025 A 
ATOM     21  C   UNL     1       1.536  -4.920   3.688  0.00  0.00    +0.060 A 
ATOM     22  S   UNL     1       1.945  -4.119   2.145  0.00  0.00    -0.102 S 
ATOM     23 BR   UNL     1      -0.679  -5.015   5.450  0.00  0.00    -0.050 Br
ENDBRANCH  17  18
ENDBRANCH  14  17
ENDBRANCH   2  14
TORSDOF 5
