REMARK  Name = ZINC41004837
REMARK  10 active torsions:
REMARK  status: ('A' for Active; 'I' for Inactive)
REMARK    1  A    between atoms: C_1  and  C_2
REMARK    2  A    between atoms: C_2  and  S_3
REMARK    3  A    between atoms: S_3  and  C_4
REMARK    4  A    between atoms: C_9  and  C_18
REMARK    5  A    between atoms: C_11  and  C_15
REMARK    6  A    between atoms: C_12  and  C_14
REMARK    7  A    between atoms: C_20  and  O_27
REMARK    8  A    between atoms: C_21  and  O_25
REMARK    9  A    between atoms: O_25  and  C_26
REMARK   10  A    between atoms: O_27  and  C_28
REMARK                            x       y       z     vdW  Elec       q    Type
REMARK                         _______ _______ _______ _____ _____    ______ ____
ROOT
ATOM      1  C   UNL     1      -1.501  -2.418   0.459  0.00  0.00    +0.210 A 
ATOM      2  N   UNL     1      -0.333  -3.074   0.398  0.00  0.00    -0.187 NA
ATOM      3  C   UNL     1      -0.555  -4.344   0.196  0.00  0.00    +0.219 A 
ATOM      4  N   UNL     1      -1.896  -4.529   0.117  0.00  0.00    -0.220 N 
ATOM      5  N   UNL     1      -2.484  -3.278   0.297  0.00  0.00    -0.141 NA
ATOM      6  C   UNL     1      -2.520  -5.829  -0.116  0.00  0.00    +0.177 C 
ATOM      7  C   UNL     1      -1.491  -6.916   0.050  0.00  0.00    +0.060 C 
ATOM      8  C   UNL     1      -0.175  -6.672   0.127  0.00  0.00    +0.018 C 
ATOM      9  N   UNL     1       0.338  -5.399   0.071  0.00  0.00    -0.287 N 
ATOM     10  C   UNL     1       0.773  -7.833   0.280  0.00  0.00    +0.061 C 
ATOM     11  H   UNL     1       1.287  -5.244  -0.052  0.00  0.00    +0.155 HD
ENDROOT
BRANCH   6  12
ATOM     12  C   UNL     1      -3.079  -5.875  -1.514  0.00  0.00    -0.014 A 
ATOM     13  C   UNL     1      -4.433  -6.078  -1.710  0.00  0.00    +0.055 A 
ATOM     14  C   UNL     1      -4.949  -6.121  -2.995  0.00  0.00    +0.163 A 
ATOM     15  C   UNL     1      -4.102  -5.959  -4.087  0.00  0.00    +0.175 A 
ATOM     16  C   UNL     1      -2.746  -5.755  -3.885  0.00  0.00    +0.063 A 
ATOM     17  C   UNL     1      -2.239  -5.709  -2.599  0.00  0.00    +0.025 A 
ATOM     18 BR   UNL     1      -1.592  -5.534  -5.366  0.00  0.00    -0.046 Br
BRANCH  15  19
ATOM     19  O   UNL     1      -4.604  -6.001  -5.351  0.00  0.00    -0.490 OA
ATOM     20  C   UNL     1      -5.038  -4.763  -5.917  0.00  0.00    +0.277 C 
ENDBRANCH  15  19
BRANCH  14  21
ATOM     21  O   UNL     1      -6.280  -6.322  -3.188  0.00  0.00    -0.491 OA
ATOM     22  C   UNL     1      -7.089  -6.481  -2.021  0.00  0.00    +0.277 C 
ENDBRANCH  14  21
ENDBRANCH   6  12
BRANCH   7  23
ATOM     23  C   UNL     1      -1.934  -8.257   0.129  0.00  0.00    +0.241 C 
ATOM     24  O   UNL     1      -2.470  -8.663   1.144  0.00  0.00    -0.271 OA
ATOM     25  N   UNL     1      -1.763  -9.086  -0.920  0.00  0.00    -0.325 N 
ATOM     26  H   UNL     1      -1.337  -8.763  -1.729  0.00  0.00    +0.145 HD
ATOM     27  H   UNL     1      -2.067 -10.006  -0.866  0.00  0.00    +0.145 HD
ENDBRANCH   7  23
BRANCH   1  28
ATOM     28  S   UNL     1      -1.690  -0.686   0.721  0.00  0.00    -0.085 S 
BRANCH  28  30
ATOM     29  C   UNL     1      -0.005   1.436   1.099  0.00  0.00    +0.016 C 
ATOM     30  C   UNL     1       0.013  -0.076   0.866  0.00  0.00    +0.074 C 
ENDBRANCH  28  30
ENDBRANCH   1  28
TORSDOF 6
