REMARK  Name = ZINC08747019
REMARK  6 active torsions:
REMARK  status: ('A' for Active; 'I' for Inactive)
REMARK    1  A    between atoms: C_1  and  C_2
REMARK    2  A    between atoms: C_11  and  N_23
REMARK    3  A    between atoms: C_13  and  C_15
REMARK    4  A    between atoms: C_15  and  S_16
REMARK    5  A    between atoms: S_16  and  C_17
REMARK    6  A    between atoms: N_21  and  C_22
REMARK                            x       y       z     vdW  Elec       q    Type
REMARK                         _______ _______ _______ _____ _____    ______ ____
ROOT
ATOM      1  C   UNL     1      -4.992   3.540  -2.260  0.00  0.00    +0.008 C 
ATOM      2  C   UNL     1      -3.560   3.039  -2.065  0.00  0.00    -0.009 C 
ATOM      3  C   UNL     1      -2.876   3.854  -0.963  0.00  0.00    +0.008 C 
ATOM      4  C   UNL     1      -1.381   3.532  -0.930  0.00  0.00    +0.037 C 
ATOM      5  C   UNL     1      -1.205   2.019  -0.837  0.00  0.00    -0.025 A 
ATOM      6  C   UNL     1      -2.217   1.186  -1.155  0.00  0.00    -0.004 A 
ATOM      7  S   UNL     1      -1.571  -0.445  -0.903  0.00  0.00    -0.073 S 
ATOM      8  C   UNL     1       0.060  -0.007  -0.362  0.00  0.00    +0.114 A 
ATOM      9  C   UNL     1       0.048   1.403  -0.395  0.00  0.00    +0.051 A 
ATOM     10  C   UNL     1       1.259   2.033   0.001  0.00  0.00    +0.128 A 
ATOM     11  N   UNL     1       2.287   1.282   0.363  0.00  0.00    -0.216 NA
ATOM     12  C   UNL     1       2.227  -0.037   0.370  0.00  0.00    +0.143 A 
ATOM     13  N   UNL     1       1.131  -0.678   0.013  0.00  0.00    -0.224 NA
ATOM     14  C   UNL     1      -3.589   1.564  -1.626  0.00  0.00    +0.046 C 
ENDROOT
BRANCH  10  15
ATOM     15  N   UNL     1       1.362   3.413   0.008  0.00  0.00    -0.343 N 
ATOM     16  H   UNL     1       2.089   3.842   0.485  0.00  0.00    +0.144 HD
ATOM     17  H   UNL     1       0.707   3.950  -0.465  0.00  0.00    +0.144 HD
ENDBRANCH  10  15
BRANCH  12  18
ATOM     18  C   UNL     1       3.438  -0.828   0.793  0.00  0.00    +0.153 C 
BRANCH  18  19
ATOM     19  S   UNL     1       4.468  -1.176  -0.654  0.00  0.00    -0.077 S 
BRANCH  19  20
ATOM     20  C   UNL     1       5.772  -2.083   0.110  0.00  0.00    +0.209 A 
ATOM     21  N   UNL     1       5.877  -2.374   1.388  0.00  0.00    -0.102 NA
ATOM     22  N   UNL     1       6.949  -3.046   1.610  0.00  0.00    -0.022 NA
ATOM     23  N   UNL     1       7.597  -3.231   0.511  0.00  0.00    -0.043 NA
ATOM     24  N   UNL     1       6.852  -2.615  -0.510  0.00  0.00    -0.223 N 
ATOM     25  C   UNL     1       7.176  -2.559  -1.938  0.00  0.00    +0.177 C 
ENDBRANCH  19  20
ENDBRANCH  18  19
ENDBRANCH  12  18
TORSDOF 4
