REMARK  Name = ZINC45925233
REMARK  11 active torsions:
REMARK  status: ('A' for Active; 'I' for Inactive)
REMARK    1  A    between atoms: C_1  and  C_2
REMARK    2  A    between atoms: C_2  and  C_3
REMARK    3  A    between atoms: C_2  and  C_4
REMARK    4  A    between atoms: C_4  and  C_5
REMARK    5  A    between atoms: C_5  and  N_6
REMARK    6  A    between atoms: C_7  and  C_9
REMARK    7  A    between atoms: C_9  and  S_10
REMARK    8  A    between atoms: S_10  and  C_11
REMARK    9  A    between atoms: C_14  and  S_18
REMARK   10  A    between atoms: C_15  and  N_17
REMARK   11  A    between atoms: S_18  and  C_21
REMARK                            x       y       z     vdW  Elec       q    Type
REMARK                         _______ _______ _______ _____ _____    ______ ____
ROOT
ATOM      1  C   UNL     1      -6.117  -6.667  -0.337  0.00  0.00    +0.190 A 
ATOM      2  N   UNL     1      -7.035  -5.717  -0.223  0.00  0.00    -0.228 NA
ATOM      3  C   UNL     1      -8.325  -6.017  -0.199  0.00  0.00    +0.144 A 
ATOM      4  C   UNL     1      -8.714  -7.339  -0.293  0.00  0.00    +0.152 A 
ATOM      5  C   UNL     1      -7.725  -8.318  -0.413  0.00  0.00    +0.146 A 
ATOM      6  N   UNL     1      -6.449  -7.946  -0.436  0.00  0.00    -0.205 NA
ENDROOT
BRANCH   5   7
ATOM      7  N   UNL     1      -8.069  -9.656  -0.510  0.00  0.00    -0.342 N 
ATOM      8  H   UNL     1      -9.002  -9.919  -0.496  0.00  0.00    +0.144 HD
ATOM      9  H   UNL     1      -7.376 -10.330  -0.593  0.00  0.00    +0.144 HD
ENDBRANCH   5   7
BRANCH   4  10
ATOM     10  S   UNL     1     -10.419  -7.780  -0.264  0.00  0.00    +0.036 S 
ATOM     11  O   UNL     1     -10.551  -8.831   0.683  0.00  0.00    -0.164 OA
ATOM     12  O   UNL     1     -11.152  -6.567  -0.162  0.00  0.00    -0.164 OA
BRANCH  10  13
ATOM     13  C   UNL     1     -10.806  -8.471  -1.839  0.00  0.00    +0.132 A 
ATOM     14  C   UNL     1     -10.745  -9.763  -2.242  0.00  0.00    +0.036 A 
ATOM     15  C   UNL     1     -11.100 -10.078  -3.541  0.00  0.00    +0.025 A 
ATOM     16  C   UNL     1     -11.500  -9.083  -4.372  0.00  0.00    +0.057 A 
ATOM     17  S   UNL     1     -11.388  -7.650  -3.313  0.00  0.00    -0.063 S 
ATOM     18 BR   UNL     1     -12.042  -9.189  -6.180  0.00  0.00    -0.043 Br
ENDBRANCH  10  13
ENDBRANCH   4  10
BRANCH   1  19
ATOM     19  S   UNL     1      -4.414  -6.217  -0.366  0.00  0.00    -0.077 S 
BRANCH  19  20
ATOM     20  C   UNL     1      -4.435  -4.410  -0.207  0.00  0.00    +0.173 C 
BRANCH  20  22
ATOM     21  N   UNL     1      -2.790  -2.565  -0.111  0.00  0.00    -0.315 N 
ATOM     22  C   UNL     1      -3.021  -3.888  -0.217  0.00  0.00    +0.223 C 
ATOM     23  O   UNL     1      -2.091  -4.660  -0.322  0.00  0.00    -0.275 OA
ATOM     24  H   UNL     1      -3.534  -1.948  -0.027  0.00  0.00    +0.149 HD
BRANCH  21  25
ATOM     25  C   UNL     1      -1.416  -2.058  -0.121  0.00  0.00    +0.104 C 
BRANCH  25  26
ATOM     26  C   UNL     1      -1.433  -0.534   0.013  0.00  0.00    +0.022 C 
BRANCH  26  28
ATOM     27  C   UNL     1      -0.019   1.526   0.010  0.00  0.00    +0.007 C 
ATOM     28  C   UNL     1       0.002  -0.004   0.002  0.00  0.00    -0.016 C 
ATOM     29  C   UNL     1       0.742  -0.511   1.242  0.00  0.00    +0.007 C 
ENDBRANCH  26  28
ENDBRANCH  25  26
ENDBRANCH  21  25
ENDBRANCH  20  22
ENDBRANCH  19  20
ENDBRANCH   1  19
TORSDOF 9
