REMARK  Name = ZINC36597455
REMARK  12 active torsions:
REMARK  status: ('A' for Active; 'I' for Inactive)
REMARK    1  A    between atoms: C_1  and  C_2
REMARK    2  A    between atoms: C_5  and  C_9
REMARK    3  A    between atoms: C_6  and  C_8
REMARK    4  A    between atoms: C_9  and  C_11
REMARK    5  A    between atoms: C_9  and  N_20
REMARK    6  A    between atoms: N_13  and  C_14
REMARK    7  A    between atoms: N_20  and  C_21
REMARK    8  A    between atoms: C_21  and  C_22
REMARK    9  A    between atoms: C_25  and  C_27
REMARK   10  A    between atoms: C_28  and  C_30
REMARK   11  A    between atoms: C_31  and  O_37
REMARK   12  A    between atoms: C_35  and  O_36
REMARK                            x       y       z     vdW  Elec       q    Type
REMARK                         _______ _______ _______ _____ _____    ______ ____
ROOT
ATOM      1  N   UNL     1      -0.681  -4.619  -1.283  0.00  0.00    -0.274 N 
ATOM      2  C   UNL     1      -1.961  -4.995  -1.474  0.00  0.00    +0.255 C 
ATOM      3  O   UNL     1      -2.446  -4.957  -2.589  0.00  0.00    -0.270 OA
ENDROOT
BRANCH   2   4
ATOM      4  C   UNL     1      -2.773  -5.451  -0.334  0.00  0.00    +0.119 A 
ATOM      5  C   UNL     1      -3.685  -4.578   0.278  0.00  0.00    +0.133 A 
ATOM      6  C   UNL     1      -4.444  -5.018   1.350  0.00  0.00    +0.046 A 
ATOM      7  C   UNL     1      -4.305  -6.311   1.818  0.00  0.00    +0.007 A 
ATOM      8  C   UNL     1      -3.408  -7.179   1.223  0.00  0.00    +0.046 A 
ATOM      9  C   UNL     1      -2.643  -6.763   0.146  0.00  0.00    +0.133 A 
BRANCH   9  10
ATOM     10  O   UNL     1      -1.769  -7.618  -0.440  0.00  0.00    -0.506 OA
ATOM     11  H   UNL     1      -0.907  -7.659  -0.004  0.00  0.00    +0.292 HD
ENDBRANCH   9  10
BRANCH   5  12
ATOM     12  O   UNL     1      -3.824  -3.309  -0.179  0.00  0.00    -0.506 OA
ATOM     13  H   UNL     1      -4.494  -3.209  -0.869  0.00  0.00    +0.292 HD
ENDBRANCH   5  12
ENDBRANCH   2   4
BRANCH   1  14
ATOM     14  C   UNL     1      -0.066  -4.759   0.039  0.00  0.00    +0.193 C 
BRANCH  14  19
ATOM     15  C   UNL     1       2.356   0.257   1.575  0.00  0.00    +0.044 C 
ATOM     16  C   UNL     1       1.724  -1.051   1.175  0.00  0.00    -0.050 A 
ATOM     17  C   UNL     1       2.418  -1.936   0.370  0.00  0.00    +0.004 A 
ATOM     18  C   UNL     1       1.839  -3.136   0.003  0.00  0.00    +0.006 A 
ATOM     19  C   UNL     1       0.566  -3.451   0.441  0.00  0.00    -0.015 A 
ATOM     20  C   UNL     1      -0.127  -2.567   1.246  0.00  0.00    -0.045 A 
ATOM     21  C   UNL     1       0.454  -1.369   1.617  0.00  0.00    +0.007 A 
ATOM     22  C   UNL     1      -1.514  -2.912   1.723  0.00  0.00    +0.044 C 
ENDBRANCH  14  19
BRANCH  14  23
ATOM     23  C   UNL     1       0.989  -5.834  -0.009  0.00  0.00    +0.238 C 
ATOM     24  O   UNL     1       1.183  -6.448  -1.037  0.00  0.00    -0.273 OA
ATOM     25  N   UNL     1       1.718  -6.112   1.090  0.00  0.00    -0.311 N 
ATOM     26  H   UNL     1       1.515  -5.673   1.931  0.00  0.00    +0.149 HD
BRANCH  25  27
ATOM     27  C   UNL     1       2.817  -7.078   1.015  0.00  0.00    +0.073 C 
ATOM     28  C   UNL     1       2.267  -8.493   1.201  0.00  0.00    +0.022 C 
ATOM     29  C   UNL     1       3.415  -9.501   1.122  0.00  0.00    +0.002 C 
ATOM     30  C   UNL     1       4.433  -9.202   2.224  0.00  0.00    +0.000 C 
ATOM     31  C   UNL     1       4.984  -7.786   2.039  0.00  0.00    +0.002 C 
ATOM     32  C   UNL     1       3.836  -6.778   2.117  0.00  0.00    +0.022 C 
ENDBRANCH  25  27
ENDBRANCH  14  23
ENDBRANCH   1  14
BRANCH   1  33
ATOM     33  C   UNL     1       0.096  -4.071  -2.398  0.00  0.00    +0.183 C 
BRANCH  33  34
ATOM     34  C   UNL     1       0.785  -5.193  -3.130  0.00  0.00    +0.122 A 
ATOM     35  C   UNL     1       0.238  -5.960  -4.089  0.00  0.00    +0.046 A 
ATOM     36  C   UNL     1       1.232  -6.880  -4.496  0.00  0.00    +0.045 A 
ATOM     37  C   UNL     1       2.327  -6.620  -3.760  0.00  0.00    +0.102 A 
ATOM     38  O   UNL     1       2.053  -5.594  -2.938  0.00  0.00    -0.463 OA
ATOM     39  C   UNL     1       3.641  -7.353  -3.847  0.00  0.00    +0.086 C 
ENDBRANCH  33  34
ENDBRANCH   1  33
TORSDOF 9
