REMARK  Name = ZINC09653406
REMARK  7 active torsions:
REMARK  status: ('A' for Active; 'I' for Inactive)
REMARK    1  A    between atoms: C_1  and  C_2
REMARK    2  A    between atoms: C_2  and  C_3
REMARK    3  A    between atoms: C_3  and  C_4
REMARK    4  A    between atoms: C_7  and  C_10
REMARK    5  A    between atoms: C_11  and  C_35
REMARK    6  A    between atoms: C_16  and  C_18
REMARK    7  A    between atoms: C_18  and  N_19
REMARK                            x       y       z     vdW  Elec       q    Type
REMARK                         _______ _______ _______ _____ _____    ______ ____
ROOT
ATOM      1  C   UNL     1      -6.044   0.240   4.750  0.00  0.00    +0.083 A 
ATOM      2  C   UNL     1      -5.065   0.577   5.642  0.00  0.00    +0.016 A 
ATOM      3  S   UNL     1      -3.746   1.041   4.528  0.00  0.00    -0.057 S 
ATOM      4  C   UNL     1      -4.631   0.749   3.002  0.00  0.00    +0.165 A 
ATOM      5  N   UNL     1      -5.801   0.335   3.451  0.00  0.00    -0.224 NA
ATOM      6  N   UNL     1      -4.199   0.909   1.691  0.00  0.00    -0.263 N 
ATOM      7  C   UNL     1      -2.950   1.350   1.442  0.00  0.00    +0.237 C 
ATOM      8  O   UNL     1      -2.202   1.606   2.362  0.00  0.00    -0.274 OA
ATOM      9  C   UNL     1      -5.089   0.557   7.149  0.00  0.00    +0.054 C 
ATOM     10  H   UNL     1      -4.797   0.705   0.955  0.00  0.00    +0.157 HD
ENDROOT
BRANCH   1  14
ATOM     11  C   UNL     1      -9.835  -1.103   6.128  0.00  0.00    -0.047 A 
ATOM     12  C   UNL     1      -9.752  -0.335   4.981  0.00  0.00    +0.004 A 
ATOM     13  C   UNL     1      -8.524   0.103   4.529  0.00  0.00    +0.010 A 
ATOM     14  C   UNL     1      -7.367  -0.229   5.231  0.00  0.00    +0.001 A 
ATOM     15  C   UNL     1      -7.456  -1.007   6.384  0.00  0.00    +0.010 A 
ATOM     16  C   UNL     1      -8.690  -1.436   6.830  0.00  0.00    +0.004 A 
BRANCH  11  17
ATOM     17  C   UNL     1     -11.179  -1.580   6.617  0.00  0.00    +0.035 C 
BRANCH  17  19
ATOM     18  C   UNL     1     -12.861  -3.423   6.486  0.00  0.00    +0.004 C 
ATOM     19  C   UNL     1     -11.497  -2.939   5.990  0.00  0.00    +0.001 C 
ENDBRANCH  17  19
ENDBRANCH  11  17
ENDBRANCH   1  14
BRANCH   7  20
ATOM     20  C   UNL     1      -2.482   1.524   0.020  0.00  0.00    +0.214 C 
BRANCH  20  21
ATOM     21  N   UNL     1      -1.099   2.010   0.017  0.00  0.00    -0.215 N 
ATOM     22  C   UNL     1      -0.014   1.208   0.009  0.00  0.00    +0.251 C 
ATOM     23  O   UNL     1       0.002  -0.004   0.002  0.00  0.00    -0.272 OA
ATOM     24  C   UNL     1       1.177   2.139   0.002  0.00  0.00    +0.138 C 
ATOM     25  C   UNL     1       2.000   1.937  -1.264  0.00  0.00    +0.040 C 
ATOM     26  C   UNL     1       2.752   0.606  -1.147  0.00  0.00    +0.008 C 
ATOM     27  C   UNL     1       3.823   0.749  -0.067  0.00  0.00    +0.035 C 
ATOM     28  C   UNL     1       3.224   1.285   1.207  0.00  0.00    -0.042 A 
ATOM     29  C   UNL     1       2.007   1.929   1.238  0.00  0.00    -0.012 A 
ATOM     30  C   UNL     1       1.513   2.407   2.444  0.00  0.00    +0.006 A 
ATOM     31  C   UNL     1       2.229   2.239   3.611  0.00  0.00    +0.000 A 
ATOM     32  C   UNL     1       3.449   1.589   3.581  0.00  0.00    +0.000 A 
ATOM     33  C   UNL     1       3.943   1.115   2.383  0.00  0.00    +0.004 A 
ATOM     34  N   UNL     1       0.578   3.481   0.014  0.00  0.00    -0.281 N 
ATOM     35  C   UNL     1      -0.756   3.303   0.026  0.00  0.00    +0.310 C 
ATOM     36  O   UNL     1      -1.560   4.215   0.038  0.00  0.00    -0.252 OA
ATOM     37  H   UNL     1       1.051   4.328   0.014  0.00  0.00    +0.152 HD
ENDBRANCH  20  21
ENDBRANCH   7  20
TORSDOF 5
