REMARK  Name = ZINC58095081
REMARK  8 active torsions:
REMARK  status: ('A' for Active; 'I' for Inactive)
REMARK    1  A    between atoms: C_1  and  C_2
REMARK    2  A    between atoms: C_5  and  N_8
REMARK    3  A    between atoms: N_8  and  C_9
REMARK    4  A    between atoms: C_9  and  N_11
REMARK    5  A    between atoms: N_11  and  N_12
REMARK    6  A    between atoms: C_13  and  C_14
REMARK    7  A    between atoms: C_21  and  S_24
REMARK    8  A    between atoms: S_24  and  N_27
REMARK                            x       y       z     vdW  Elec       q    Type
REMARK                         _______ _______ _______ _____ _____    ______ ____
ROOT
ATOM      1  C   UNL     1      -0.379  -8.931   1.157  0.00  0.00    +0.020 A 
ATOM      2  C   UNL     1      -0.074 -10.244   1.341  0.00  0.00    +0.093 A 
ATOM      3  N   UNL     1      -0.169 -10.557   2.664  0.00  0.00    -0.360 N 
ATOM      4  H   UNL     1       0.002 -11.435   3.040  0.00  0.00    +0.165 HD
ATOM      5  C   UNL     1      -0.543  -9.447   3.392  0.00  0.00    +0.047 A 
ATOM      6  C   UNL     1      -0.686  -8.380   2.489  0.00  0.00    +0.010 A 
ATOM      7  C   UNL     1      -1.056  -7.119   2.952  0.00  0.00    +0.039 A 
ATOM      8  C   UNL     1      -1.276  -6.925   4.298  0.00  0.00    +0.106 A 
ATOM      9  C   UNL     1      -1.132  -7.976   5.191  0.00  0.00    +0.030 A 
ATOM     10  C   UNL     1      -0.774  -9.231   4.747  0.00  0.00    +0.028 A 
ENDROOT
BRANCH   8  11
ATOM     11  S   UNL     1      -1.744  -5.332   4.888  0.00  0.00    +0.061 S 
ATOM     12  O   UNL     1      -1.257  -5.232   6.219  0.00  0.00    -0.153 OA
ATOM     13  O   UNL     1      -1.387  -4.402   3.875  0.00  0.00    -0.153 OA
BRANCH  11  14
ATOM     14  N   UNL     1      -3.397  -5.312   4.986  0.00  0.00    -0.177 NA
ATOM     15  C   UNL     1      -4.213  -4.992   3.807  0.00  0.00    +0.109 C 
ATOM     16  C   UNL     1      -5.233  -6.115   3.594  0.00  0.00    +0.017 C 
ATOM     17  C   UNL     1      -6.038  -6.319   4.879  0.00  0.00    +0.003 C 
ATOM     18  C   UNL     1      -5.096  -6.730   6.013  0.00  0.00    +0.017 C 
ATOM     19  C   UNL     1      -4.075  -5.620   6.253  0.00  0.00    +0.109 C 
ENDBRANCH  11  14
ENDBRANCH   8  11
BRANCH   1  21
ATOM     20  N   UNL     1      -0.500  -8.853  -1.240  0.00  0.00    -0.188 NA
ATOM     21  C   UNL     1      -0.394  -8.201  -0.121  0.00  0.00    +0.140 C 
BRANCH  20  22
ATOM     22  N   UNL     1      -0.807 -10.220  -1.228  0.00  0.00    -0.218 N 
ATOM     23  H   UNL     1      -1.040 -10.657  -0.394  0.00  0.00    +0.176 HD
BRANCH  22  24
ATOM     24  C   UNL     1      -0.781 -10.927  -2.375  0.00  0.00    +0.154 C 
ATOM     25  S   UNL     1      -1.282 -12.564  -2.384  0.00  0.00    -0.017 S 
BRANCH  24  26
ATOM     26  N   UNL     1      -0.359 -10.345  -3.515  0.00  0.00    -0.296 N 
ATOM     27  H   UNL     1       0.005  -9.446  -3.495  0.00  0.00    +0.154 HD
BRANCH  26  32
ATOM     28  C   UNL     1      -0.719 -13.150  -8.433  0.00  0.00    +0.044 C 
ATOM     29  C   UNL     1      -0.623 -12.405  -7.126  0.00  0.00    -0.050 A 
ATOM     30  C   UNL     1      -1.690 -12.415  -6.247  0.00  0.00    +0.005 A 
ATOM     31  C   UNL     1      -1.606 -11.733  -5.049  0.00  0.00    +0.023 A 
ATOM     32  C   UNL     1      -0.448 -11.037  -4.728  0.00  0.00    +0.033 A 
ATOM     33  C   UNL     1       0.622 -11.029  -5.613  0.00  0.00    +0.023 A 
ATOM     34  C   UNL     1       0.533 -11.717  -6.807  0.00  0.00    +0.005 A 
ENDBRANCH  26  32
ENDBRANCH  24  26
ENDBRANCH  22  24
ENDBRANCH  20  22
ENDBRANCH   1  21
TORSDOF 7
