REMARK  Name = ZINC08788977
REMARK  8 active torsions:
REMARK  status: ('A' for Active; 'I' for Inactive)
REMARK    1  A    between atoms: C_1  and  C_2
REMARK    2  A    between atoms: C_2  and  C_3
REMARK    3  A    between atoms: C_3  and  C_4
REMARK    4  A    between atoms: C_4  and  C_5
REMARK    5  A    between atoms: C_8  and  N_11
REMARK    6  A    between atoms: C_16  and  C_34
REMARK    7  A    between atoms: C_27  and  C_32
REMARK    8  A    between atoms: C_34  and  C_35
REMARK                            x       y       z     vdW  Elec       q    Type
REMARK                         _______ _______ _______ _____ _____    ______ ____
ROOT
ATOM      1  N   UNL     1      -2.429   1.039   0.019  0.00  0.00    -0.210 N 
ATOM      2  C   UNL     1      -2.480  -0.294  -0.092  0.00  0.00    +0.228 C 
ATOM      3  O   UNL     1      -1.520  -1.024  -0.203  0.00  0.00    -0.275 OA
ATOM      4  C   UNL     1      -3.923  -0.746  -0.053  0.00  0.00    +0.074 C 
ATOM      5  C   UNL     1      -4.318  -1.283  -1.446  0.00  0.00    -0.049 C 
ATOM      6  C   UNL     1      -5.519   0.706  -1.199  0.00  0.00    +0.050 C 
ATOM      7  C   UNL     1      -4.711   0.584   0.098  0.00  0.00    +0.088 C 
ATOM      8  C   UNL     1      -3.623   1.633   0.126  0.00  0.00    +0.229 C 
ATOM      9  O   UNL     1      -3.804   2.828   0.229  0.00  0.00    -0.275 OA
ATOM     10  C   UNL     1      -4.850   1.622  -2.184  0.00  0.00    -0.027 A 
ATOM     11  C   UNL     1      -3.618   1.615  -2.800  0.00  0.00    +0.006 A 
ATOM     12  C   UNL     1      -3.280   2.623  -3.686  0.00  0.00    +0.020 A 
ATOM     13  C   UNL     1      -4.184   3.637  -3.951  0.00  0.00    +0.046 A 
ATOM     14  C   UNL     1      -5.420   3.648  -3.336  0.00  0.00    -0.011 A 
ATOM     15  C   UNL     1      -5.766   2.638  -2.442  0.00  0.00    +0.040 A 
ATOM     16  N   UNL     1      -6.935   2.432  -1.707  0.00  0.00    -0.286 N 
ATOM     17  C   UNL     1      -6.870   1.319  -0.951  0.00  0.00    +0.211 C 
ATOM     18  O   UNL     1      -7.733   0.893  -0.212  0.00  0.00    -0.277 OA
ATOM     19  C   UNL     1      -6.396   4.757  -3.631  0.00  0.00    +0.047 C 
ATOM     20 CL   UNL     1      -3.762   4.901  -5.064  0.00  0.00    -0.083 Cl
ATOM     21  H   UNL     1      -7.705   3.021  -1.736  0.00  0.00    +0.155 HD
ATOM     22  N   UNL     1      -5.610  -0.649  -1.715  0.00  0.00    +0.394 N 
ATOM     23  H   UNL     1      -6.362  -1.160  -1.239  0.00  0.00    -0.083 HD
ATOM     24  H   UNL     1      -5.794  -0.632  -2.725  0.00  0.00    -0.083 HD
ENDROOT
BRANCH   1  28
ATOM     25  C   UNL     1       1.159   3.161   0.016  0.00  0.00    -0.047 A 
ATOM     26  C   UNL     1       0.380   3.124   1.158  0.00  0.00    +0.005 A 
ATOM     27  C   UNL     1      -0.811   2.425   1.161  0.00  0.00    +0.024 A 
ATOM     28  C   UNL     1      -1.224   1.754   0.017  0.00  0.00    +0.044 A 
ATOM     29  C   UNL     1      -0.443   1.798  -1.129  0.00  0.00    +0.024 A 
ATOM     30  C   UNL     1       0.748   2.499  -1.126  0.00  0.00    +0.005 A 
BRANCH  25  31
ATOM     31  C   UNL     1       2.458   3.925   0.016  0.00  0.00    +0.035 C 
BRANCH  31  32
ATOM     32  C   UNL     1       3.594   2.998   0.452  0.00  0.00    +0.004 C 
BRANCH  32  34
ATOM     33  C   UNL     1       6.050   2.846   0.888  0.00  0.00    +0.004 C 
ATOM     34  C   UNL     1       4.913   3.773   0.452  0.00  0.00    -0.003 C 
ENDBRANCH  32  34
ENDBRANCH  31  32
ENDBRANCH  25  31
ENDBRANCH   1  28
BRANCH   5  35
ATOM     35  C   UNL     1      -4.439  -2.808  -1.414  0.00  0.00    +0.080 C 
BRANCH  35  36
ATOM     36  C   UNL     1      -4.780  -3.313  -2.792  0.00  0.00    +0.209 C 
ATOM     37  O   UNL     1      -4.912  -2.531  -3.710  0.00  0.00    -0.276 OA
ATOM     38  N   UNL     1      -4.937  -4.634  -3.006  0.00  0.00    -0.329 N 
ATOM     39  H   UNL     1      -4.832  -5.260  -2.272  0.00  0.00    +0.145 HD
ATOM     40  H   UNL     1      -5.157  -4.960  -3.893  0.00  0.00    +0.145 HD
ENDBRANCH  35  36
ENDBRANCH   5  35
TORSDOF 6
