REMARK  Name = ZINC14138893
REMARK  9 active torsions:
REMARK  status: ('A' for Active; 'I' for Inactive)
REMARK    1  A    between atoms: C_1  and  C_2
REMARK    2  A    between atoms: C_7  and  C_8
REMARK    3  A    between atoms: C_8  and  C_10
REMARK    4  A    between atoms: C_8  and  N_46
REMARK    5  A    between atoms: C_11  and  C_13
REMARK    6  A    between atoms: C_11  and  C_14
REMARK    7  A    between atoms: C_11  and  N_46
REMARK    8  A    between atoms: C_20  and  C_26
REMARK    9  A    between atoms: C_21  and  C_25
REMARK                            x       y       z     vdW  Elec       q    Type
REMARK                         _______ _______ _______ _____ _____    ______ ____
ROOT
ATOM      1  C   UNL     1      -0.729   1.579   1.267  0.00  0.00    -0.007 C 
ATOM      2  C   UNL     1      -0.013   1.086   0.008  0.00  0.00    -0.006 C 
ENDROOT
BRANCH   1   3
ATOM      3  C   UNL     1       0.000   1.080   2.488  0.00  0.00    +0.097 A 
ATOM      4  N   UNL     1       0.222  -0.252   2.634  0.00  0.00    -0.312 N 
ATOM      5  H   UNL     1      -0.092  -0.864   1.950  0.00  0.00    +0.170 HD
ATOM      6  C   UNL     1       0.874  -0.739   3.706  0.00  0.00    +0.260 A 
ATOM      7  O   UNL     1       1.070  -1.937   3.819  0.00  0.00    -0.267 OA
ATOM      8  C   UNL     1       1.329   0.172   4.714  0.00  0.00    +0.075 A 
ATOM      9  C   UNL     1       2.041  -0.102   5.949  0.00  0.00    -0.026 A 
ATOM     10  C   UNL     1       2.372   0.919   6.755  0.00  0.00    -0.008 A 
ATOM     11  S   UNL     1       1.739   2.346   5.894  0.00  0.00    -0.073 S 
ATOM     12  C   UNL     1       1.048   1.530   4.478  0.00  0.00    +0.116 A 
ATOM     13  N   UNL     1       0.402   1.935   3.389  0.00  0.00    -0.228 NA
ATOM     14  C   UNL     1       3.103   0.871   8.072  0.00  0.00    +0.052 C 
ATOM     15  C   UNL     1       2.404  -1.517   6.322  0.00  0.00    +0.045 C 
ENDBRANCH   1   3
BRANCH   1  16
ATOM     16  N   UNL     1      -0.742   3.054   1.280  0.00  0.00    +0.390 N 
ATOM     17  H   UNL     1      -0.818   3.384   2.249  0.00  0.00    -0.084 HD
ATOM     18  H   UNL     1       0.131   3.404   0.867  0.00  0.00    -0.084 HD
BRANCH  16  19
ATOM     19  C   UNL     1      -1.887   3.563   0.502  0.00  0.00    -0.043 C 
ATOM     20  C   UNL     1      -3.130   3.607   1.392  0.00  0.00    -0.009 C 
BRANCH  19  27
ATOM     21  C   UNL     1      -3.353   4.674  -1.726  0.00  0.00    +0.044 C 
ATOM     22  C   UNL     1      -2.274   5.484  -1.055  0.00  0.00    -0.049 A 
ATOM     23  C   UNL     1      -1.985   6.759  -1.506  0.00  0.00    +0.003 A 
ATOM     24  C   UNL     1      -0.995   7.502  -0.891  0.00  0.00    +0.000 A 
ATOM     25  C   UNL     1      -0.293   6.970   0.175  0.00  0.00    +0.000 A 
ATOM     26  C   UNL     1      -0.585   5.698   0.628  0.00  0.00    +0.002 A 
ATOM     27  C   UNL     1      -1.572   4.953   0.010  0.00  0.00    -0.059 A 
ENDBRANCH  19  27
ENDBRANCH  16  19
ENDBRANCH   1  16
TORSDOF 4
