REMARK  Name = ZINC13660470
REMARK  6 active torsions:
REMARK  status: ('A' for Active; 'I' for Inactive)
REMARK    1  A    between atoms: C_1  and  O_2
REMARK    2  A    between atoms: O_2  and  C_3
REMARK    3  A    between atoms: C_6  and  N_10
REMARK    4  A    between atoms: C_14  and  C_15
REMARK    5  A    between atoms: N_19  and  C_20
REMARK    6  A    between atoms: C_20  and  C_21
REMARK                            x       y       z     vdW  Elec       q    Type
REMARK                         _______ _______ _______ _____ _____    ______ ____
ROOT
ATOM      1  N   UNL     1      -1.113   2.612  -1.401  0.00  0.00    -0.190 N 
ATOM      2  C   UNL     1      -0.154   3.488  -1.036  0.00  0.00    +0.264 C 
ATOM      3  O   UNL     1      -0.352   4.687  -1.087  0.00  0.00    -0.269 OA
ATOM      4  C   UNL     1       1.138   2.953  -0.572  0.00  0.00    +0.102 C 
ATOM      5  C   UNL     1       2.172   3.795  -0.180  0.00  0.00    +0.044 C 
ATOM      6  C   UNL     1       1.286   1.488  -0.542  0.00  0.00    +0.257 C 
ATOM      7  O   UNL     1       2.324   0.972  -0.171  0.00  0.00    -0.270 OA
ATOM      8  N   UNL     1       0.240   0.733  -0.938  0.00  0.00    -0.235 N 
ATOM      9  C   UNL     1      -0.907   1.288  -1.353  0.00  0.00    +0.320 C 
ATOM     10  O   UNL     1      -1.810   0.552  -1.701  0.00  0.00    -0.251 OA
ATOM     11  H   UNL     1       0.321  -0.234  -0.924  0.00  0.00    +0.159 HD
ENDROOT
BRANCH   1  15
ATOM     12  C   UNL     1      -4.797   4.056  -2.722  0.00  0.00    +0.138 A 
ATOM     13  C   UNL     1      -4.713   3.363  -1.523  0.00  0.00    +0.049 A 
ATOM     14  C   UNL     1      -3.494   2.885  -1.086  0.00  0.00    +0.027 A 
ATOM     15  C   UNL     1      -2.352   3.097  -1.846  0.00  0.00    +0.047 A 
ATOM     16  C   UNL     1      -2.434   3.795  -3.043  0.00  0.00    +0.047 A 
ATOM     17  C   UNL     1      -3.656   4.269  -3.483  0.00  0.00    +0.084 A 
ATOM     18 CL   UNL     1      -3.761   5.136  -4.983  0.00  0.00    -0.080 Cl
BRANCH  12  20
ATOM     19  C   UNL     1      -7.131   4.271  -2.320  0.00  0.00    +0.277 C 
ATOM     20  O   UNL     1      -5.998   4.526  -3.153  0.00  0.00    -0.494 OA
ENDBRANCH  12  20
ENDBRANCH   1  15
BRANCH   5  21
ATOM     21  C   UNL     1       1.974   5.185  -0.149  0.00  0.00    +0.043 A 
ATOM     22  C   UNL     1       2.624   6.128  -0.937  0.00  0.00    +0.027 A 
ATOM     23  C   UNL     1       2.119   7.376  -0.575  0.00  0.00    +0.020 A 
ATOM     24  C   UNL     1       1.194   7.186   0.401  0.00  0.00    +0.086 A 
ATOM     25  N   UNL     1       1.092   5.867   0.664  0.00  0.00    -0.343 N 
BRANCH  25  26
ATOM     26  C   UNL     1       0.196   5.260   1.651  0.00  0.00    +0.159 C 
BRANCH  26  27
ATOM     27  C   UNL     1       0.898   5.176   2.982  0.00  0.00    +0.007 A 
ATOM     28  C   UNL     1       0.760   6.198   3.902  0.00  0.00    +0.008 A 
ATOM     29  C   UNL     1       1.403   6.122   5.123  0.00  0.00    +0.000 A 
ATOM     30  C   UNL     1       2.186   5.022   5.426  0.00  0.00    +0.003 A 
ATOM     31  C   UNL     1       2.325   3.999   4.508  0.00  0.00    +0.039 A 
ATOM     32  C   UNL     1       1.677   4.073   3.286  0.00  0.00    +0.128 A 
ATOM     33  F   UNL     1       1.809   3.071   2.389  0.00  0.00    -0.205 F 
ENDBRANCH  26  27
ENDBRANCH  25  26
ENDBRANCH   5  21
TORSDOF 5
