REMARK  Name = ZINC02660264
REMARK  8 active torsions:
REMARK  status: ('A' for Active; 'I' for Inactive)
REMARK    1  A    between atoms: C_1  and  O_2
REMARK    2  A    between atoms: O_2  and  C_3
REMARK    3  A    between atoms: C_6  and  C_10
REMARK    4  A    between atoms: C_10  and  O_11
REMARK    5  A    between atoms: O_11  and  C_12
REMARK    6  A    between atoms: C_12  and  C_14
REMARK    7  A    between atoms: C_16  and  O_25
REMARK    8  A    between atoms: C_23  and  O_24
REMARK                            x       y       z     vdW  Elec       q    Type
REMARK                         _______ _______ _______ _____ _____    ______ ____
ROOT
ATOM      1  C   UNL     1      -2.429   5.236   0.054  0.00  0.00    +0.104 A 
ATOM      2  C   UNL     1      -1.204   5.933   0.045  0.00  0.00    +0.064 A 
ATOM      3  C   UNL     1      -0.021   5.263   0.030  0.00  0.00    +0.126 A 
ATOM      4  C   UNL     1      -0.006   3.851   0.022  0.00  0.00    +0.027 A 
ATOM      5  C   UNL     1       1.205   3.141   0.007  0.00  0.00    +0.012 A 
ATOM      6  C   UNL     1       1.190   1.779   0.000  0.00  0.00    +0.001 A 
ATOM      7  C   UNL     1      -0.013   1.076   0.008  0.00  0.00    +0.001 A 
ATOM      8  C   UNL     1      -1.206   1.731   0.017  0.00  0.00    +0.012 A 
ATOM      9  C   UNL     1      -1.228   3.136   0.031  0.00  0.00    +0.028 A 
ATOM     10  C   UNL     1      -2.447   3.844   0.047  0.00  0.00    +0.139 A 
ENDROOT
BRANCH   1  11
ATOM     11  C   UNL     1      -3.696   5.985   0.070  0.00  0.00    +0.343 C 
ATOM     12  O   UNL     1      -4.754   5.387   0.077  0.00  0.00    -0.245 OA
BRANCH  11  13
ATOM     13  O   UNL     1      -3.683   7.332   0.077  0.00  0.00    -0.456 OA
BRANCH  13  14
ATOM     14  C   UNL     1      -4.970   8.004   0.093  0.00  0.00    +0.268 C 
BRANCH  14  18
ATOM     15  C   UNL     1      -4.370  12.237   0.113  0.00  0.00    +0.155 A 
ATOM     16  C   UNL     1      -4.456  11.541   1.309  0.00  0.00    +0.049 A 
ATOM     17  C   UNL     1      -4.655  10.174   1.300  0.00  0.00    +0.011 A 
ATOM     18  C   UNL     1      -4.758   9.496   0.099  0.00  0.00    -0.007 A 
ATOM     19  C   UNL     1      -4.672  10.186  -1.096  0.00  0.00    +0.049 A 
ATOM     20  C   UNL     1      -4.478  11.556  -1.093  0.00  0.00    +0.165 A 
ATOM     21  F   UNL     1      -4.395  12.230  -2.261  0.00  0.00    -0.202 F 
BRANCH  15  23
ATOM     22  C   UNL     1      -4.076  14.217   1.396  0.00  0.00    +0.277 C 
ATOM     23  O   UNL     1      -4.179  13.583   0.120  0.00  0.00    -0.492 OA
ENDBRANCH  15  23
ENDBRANCH  14  18
ENDBRANCH  13  14
ENDBRANCH  11  13
ENDBRANCH   1  11
BRANCH  10  24
ATOM     24  O   UNL     1      -3.627   3.176   0.055  0.00  0.00    -0.505 OA
ATOM     25  H   UNL     1      -3.960   2.977   0.941  0.00  0.00    +0.292 HD
ENDBRANCH  10  24
BRANCH   3  26
ATOM     26  O   UNL     1       1.150   5.954   0.022  0.00  0.00    -0.506 OA
ATOM     27  H   UNL     1       1.480   6.159  -0.864  0.00  0.00    +0.292 HD
ENDBRANCH   3  26
TORSDOF 7
