REMARK  Name = ZINC20898885
REMARK  8 active torsions:
REMARK  status: ('A' for Active; 'I' for Inactive)
REMARK    1  A    between atoms: C_1  and  C_2
REMARK    2  A    between atoms: C_9  and  O_31
REMARK    3  A    between atoms: C_12  and  C_14
REMARK    4  A    between atoms: C_17  and  O_22
REMARK    5  A    between atoms: C_18  and  O_20
REMARK    6  A    between atoms: O_20  and  C_21
REMARK    7  A    between atoms: O_22  and  C_23
REMARK    8  A    between atoms: C_23  and  C_24
REMARK                            x       y       z     vdW  Elec       q    Type
REMARK                         _______ _______ _______ _____ _____    ______ ____
ROOT
ATOM      1  C   UNL     1       0.586   1.136  -2.502  0.00  0.00    -0.026 A 
ATOM      2  C   UNL     1       1.891   1.312  -2.083  0.00  0.00    +0.009 A 
ATOM      3  C   UNL     1       2.446   2.578  -2.052  0.00  0.00    +0.050 A 
ATOM      4  C   UNL     1       1.693   3.673  -2.442  0.00  0.00    +0.162 A 
ATOM      5  C   UNL     1       0.379   3.496  -2.864  0.00  0.00    +0.162 A 
ATOM      6  C   UNL     1      -0.170   2.224  -2.897  0.00  0.00    +0.054 A 
ENDROOT
BRANCH   1  18
ATOM      7  C   UNL     1      -0.018   1.503   0.010  0.00  0.00    +0.068 C 
ATOM      8  C   UNL     1       0.002  -0.004   0.002  0.00  0.00    +0.066 A 
ATOM      9  C   UNL     1       0.008  -0.815  -1.147  0.00  0.00    +0.036 A 
ATOM     10  C   UNL     1       0.031  -2.120  -0.735  0.00  0.00    +0.157 A 
ATOM     11  N   UNL     1       0.032  -2.099   0.644  0.00  0.00    -0.260 N 
ATOM     12  H   UNL     1       0.041  -2.875   1.225  0.00  0.00    +0.191 HD
ATOM     13  N   UNL     1       0.023  -0.767   1.058  0.00  0.00    -0.177 NA
ATOM     14  N   UNL     1       0.060  -3.277  -1.418  0.00  0.00    -0.197 NA
ATOM     15  C   UNL     1       0.072  -3.622  -2.623  0.00  0.00    +0.199 C 
ATOM     16  C   UNL     1      -0.004  -2.796  -3.846  0.00  0.00    +0.165 C 
ATOM     17  S   UNL     1       0.901  -1.248  -3.711  0.00  0.00    -0.138 S 
ATOM     18  C   UNL     1      -0.014  -0.247  -2.534  0.00  0.00    +0.112 C 
BRANCH  15  19
ATOM     19  O   UNL     1       0.168  -4.950  -2.835  0.00  0.00    -0.495 OA
ATOM     20  H   UNL     1       0.216  -5.476  -2.025  0.00  0.00    +0.293 HD
ENDBRANCH  15  19
ENDBRANCH   1  18
BRANCH   5  21
ATOM     21  O   UNL     1      -0.364   4.569  -3.248  0.00  0.00    -0.491 OA
ATOM     22  C   UNL     1      -1.705   4.312  -3.669  0.00  0.00    +0.277 C 
ENDBRANCH   5  21
BRANCH   4  23
ATOM     23  O   UNL     1       2.237   4.920  -2.412  0.00  0.00    -0.484 OA
BRANCH  23  24
ATOM     24  C   UNL     1       3.591   5.026  -1.967  0.00  0.00    +0.264 C 
BRANCH  24  25
ATOM     25  C   UNL     1       4.019   6.470  -2.001  0.00  0.00    -0.010 A 
ATOM     26  C   UNL     1       4.590   6.995  -3.144  0.00  0.00    +0.008 A 
ATOM     27  C   UNL     1       4.983   8.320  -3.176  0.00  0.00    +0.020 A 
ATOM     28  C   UNL     1       4.803   9.121  -2.062  0.00  0.00    +0.041 A 
ATOM     29  C   UNL     1       4.231   8.595  -0.917  0.00  0.00    +0.020 A 
ATOM     30  C   UNL     1       3.834   7.272  -0.889  0.00  0.00    +0.008 A 
ATOM     31 CL   UNL     1       5.297  10.785  -2.100  0.00  0.00    -0.084 Cl
ENDBRANCH  24  25
ENDBRANCH  23  24
ENDBRANCH   4  23
TORSDOF 6
