REMARK  Name = ZINC40645200
REMARK  14 active torsions:
REMARK  status: ('A' for Active; 'I' for Inactive)
REMARK    1  A    between atoms: C_1  and  C_2
REMARK    2  A    between atoms: C_2  and  C_3
REMARK    3  A    between atoms: C_2  and  C_4
REMARK    4  A    between atoms: C_4  and  O_5
REMARK    5  A    between atoms: O_5  and  C_6
REMARK    6  A    between atoms: C_6  and  C_8
REMARK    7  A    between atoms: C_11  and  N_14
REMARK    8  A    between atoms: C_16  and  N_32
REMARK    9  A    between atoms: C_17  and  N_21
REMARK   10  A    between atoms: N_21  and  C_22
REMARK   11  A    between atoms: C_24  and  C_30
REMARK   12  A    between atoms: C_24  and  C_31
REMARK   13  A    between atoms: C_26  and  C_28
REMARK   14  A    between atoms: C_26  and  C_29
REMARK                            x       y       z     vdW  Elec       q    Type
REMARK                         _______ _______ _______ _____ _____    ______ ____
ROOT
ATOM      1  N   UNL     1      -3.639  -8.085  -0.567  0.00  0.00    -0.297 N 
ATOM      2  C   UNL     1      -4.807  -8.814  -0.397  0.00  0.00    +0.159 A 
ATOM      3  C   UNL     1      -4.782 -10.205  -0.428  0.00  0.00    +0.205 A 
ATOM      4  C   UNL     1      -5.981 -10.890  -0.252  0.00  0.00    +0.155 A 
ATOM      5  N   UNL     1      -7.101 -10.194  -0.060  0.00  0.00    -0.218 NA
ATOM      6  C   UNL     1      -7.082  -8.877  -0.037  0.00  0.00    +0.225 A 
ATOM      7  N   UNL     1      -5.968  -8.193  -0.195  0.00  0.00    -0.218 NA
ATOM      8  H   UNL     1      -2.811  -8.540  -0.788  0.00  0.00    +0.154 HD
ENDROOT
BRANCH   1  12
ATOM      9  C   UNL     1      -3.686  -3.946  -0.130  0.00  0.00    +0.059 A 
ATOM     10  C   UNL     1      -4.536  -4.742   0.643  0.00  0.00    +0.017 A 
ATOM     11  C   UNL     1      -4.518  -6.109   0.496  0.00  0.00    +0.024 A 
ATOM     12  C   UNL     1      -3.655  -6.701  -0.421  0.00  0.00    +0.032 A 
ATOM     13  C   UNL     1      -2.806  -5.912  -1.192  0.00  0.00    +0.024 A 
ATOM     14  C   UNL     1      -2.823  -4.543  -1.055  0.00  0.00    +0.017 A 
BRANCH   9  15
ATOM     15  C   UNL     1      -3.702  -2.480   0.024  0.00  0.00    +0.339 C 
ATOM     16  O   UNL     1      -2.966  -1.789  -0.652  0.00  0.00    -0.245 OA
BRANCH  15  17
ATOM     17  O   UNL     1      -4.534  -1.905   0.916  0.00  0.00    -0.461 OA
BRANCH  17  18
ATOM     18  C   UNL     1      -4.497  -0.480   1.013  0.00  0.00    +0.235 C 
BRANCH  18  20
ATOM     19  C   UNL     1      -5.375   1.498   2.262  0.00  0.00    +0.010 C 
ATOM     20  C   UNL     1      -5.502  -0.015   2.069  0.00  0.00    +0.020 C 
ATOM     21  C   UNL     1      -6.921  -0.353   1.606  0.00  0.00    +0.010 C 
ENDBRANCH  18  20
ENDBRANCH  17  18
ENDBRANCH  15  17
ENDBRANCH   9  15
ENDBRANCH   1  12
BRANCH   3  22
ATOM     22  N   UNL     1      -3.514 -10.937  -0.644  0.00  0.00    +0.063 N 
ATOM     23  O   UNL     1      -2.832 -11.257   0.301  0.00  0.00    -0.126 OA
ATOM     24  O   UNL     1      -3.161 -11.216  -1.766  0.00  0.00    -0.126 OA
ENDBRANCH   3  22
BRANCH   4  25
ATOM     25  N   UNL     1      -6.009 -12.276  -0.275  0.00  0.00    -0.324 N 
ATOM     26  H   UNL     1      -5.190 -12.775  -0.415  0.00  0.00    +0.148 HD
BRANCH  25  27
ATOM     27  C   UNL     1      -7.280 -12.987  -0.088  0.00  0.00    +0.069 C 
ATOM     28  C   UNL     1      -7.528 -13.188   1.409  0.00  0.00    +0.009 C 
ATOM     29  C   UNL     1      -8.842 -13.939   1.620  0.00  0.00    -0.072 C 
ATOM     30  N   UNL     1      -8.885 -15.188   0.875  0.00  0.00    +0.386 N 
ATOM     31  C   UNL     1      -8.470 -15.159  -0.518  0.00  0.00    -0.072 C 
ATOM     32  C   UNL     1      -7.189 -14.363  -0.747  0.00  0.00    +0.009 C 
ATOM     33  C   UNL     1      -9.582 -14.632  -1.430  0.00  0.00    -0.010 C 
ATOM     34  C   UNL     1      -8.187 -16.618  -0.949  0.00  0.00    -0.010 C 
ATOM     35  C   UNL     1     -10.027 -13.032   1.293  0.00  0.00    -0.010 C 
ATOM     36  C   UNL     1      -8.933 -14.289   3.123  0.00  0.00    -0.010 C 
ATOM     37  H   UNL     1      -8.310 -15.876   1.368  0.00  0.00    -0.084 HD
ATOM     38  H   UNL     1      -9.839 -15.556   0.919  0.00  0.00    -0.084 HD
ENDBRANCH  25  27
ENDBRANCH   4  25
TORSDOF 8
