REMARK  Name = ZINC40388411
REMARK  7 active torsions:
REMARK  status: ('A' for Active; 'I' for Inactive)
REMARK    1  A    between atoms: C_1  and  C_2
REMARK    2  A    between atoms: C_2  and  N_3
REMARK    3  A    between atoms: C_9  and  C_11
REMARK    4  A    between atoms: C_14  and  C_16
REMARK    5  A    between atoms: C_16  and  N_17
REMARK    6  A    between atoms: N_26  and  C_27
REMARK    7  A    between atoms: C_27  and  C_29
REMARK                            x       y       z     vdW  Elec       q    Type
REMARK                         _______ _______ _______ _____ _____    ______ ____
ROOT
ATOM      1  N   UNL     1       1.068  -7.647   1.723  0.00  0.00    -0.314 N 
ATOM      2  C   UNL     1       0.289  -8.728   2.090  0.00  0.00    +0.058 A 
ATOM      3  C   UNL     1       0.361  -9.520   3.245  0.00  0.00    +0.027 A 
ATOM      4  C   UNL     1      -0.511 -10.566   3.432  0.00  0.00    +0.002 A 
ATOM      5  C   UNL     1      -1.482 -10.868   2.492  0.00  0.00    +0.001 A 
ATOM      6  C   UNL     1      -1.575 -10.101   1.343  0.00  0.00    +0.017 A 
ATOM      7  C   UNL     1      -0.703  -9.055   1.155  0.00  0.00    +0.039 A 
ATOM      8  S   UNL     1      -0.464  -7.850  -0.124  0.00  0.00    -0.052 S 
ATOM      9  C   UNL     1       0.826  -7.008   0.549  0.00  0.00    +0.167 A 
ATOM     10  N   UNL     1       1.465  -5.958   0.046  0.00  0.00    -0.152 NA
ENDROOT
BRANCH  10  11
ATOM     11  C   UNL     1       1.093  -5.451  -1.134  0.00  0.00    +0.272 C 
ATOM     12  O   UNL     1       0.167  -5.953  -1.748  0.00  0.00    -0.268 OA
BRANCH  11  13
ATOM     13  C   UNL     1       1.805  -4.281  -1.695  0.00  0.00    +0.074 A 
ATOM     14  C   UNL     1       2.869  -3.708  -0.998  0.00  0.00    +0.016 A 
ATOM     15  C   UNL     1       3.529  -2.618  -1.525  0.00  0.00    +0.001 A 
ATOM     16  C   UNL     1       3.138  -2.091  -2.744  0.00  0.00    +0.003 A 
ATOM     17  C   UNL     1       2.085  -2.651  -3.442  0.00  0.00    +0.039 A 
ATOM     18  C   UNL     1       1.419  -3.749  -2.928  0.00  0.00    +0.136 A 
ATOM     19  F   UNL     1       0.393  -4.301  -3.613  0.00  0.00    -0.205 F 
ENDBRANCH  11  13
ENDBRANCH  10  11
BRANCH   1  20
ATOM     20  C   UNL     1       2.146  -7.186   2.601  0.00  0.00    +0.198 C 
BRANCH  20  24
ATOM     21  C   UNL     1       1.025  -4.226   4.422  0.00  0.00    +0.190 A 
ATOM     22  C   UNL     1       0.708  -5.186   5.339  0.00  0.00    +0.055 A 
ATOM     23  C   UNL     1       1.084  -6.418   4.780  0.00  0.00    +0.047 A 
ATOM     24  C   UNL     1       1.608  -6.158   3.562  0.00  0.00    +0.126 A 
ATOM     25  O   UNL     1       1.566  -4.837   3.348  0.00  0.00    -0.453 OA
BRANCH  21  32
ATOM     26  N   UNL     1       0.590  -0.486   1.201  0.00  0.00    +0.382 N 
ATOM     27  C   UNL     1      -0.091  -0.091   2.441  0.00  0.00    -0.060 C 
ATOM     28  C   UNL     1       0.758  -0.513   3.645  0.00  0.00    +0.089 C 
ATOM     29  N   UNL     1       1.036  -1.954   3.537  0.00  0.00    -0.299 N 
ATOM     30  C   UNL     1       1.570  -2.463   2.264  0.00  0.00    +0.089 C 
ATOM     31  C   UNL     1       0.683  -1.949   1.125  0.00  0.00    -0.060 C 
ATOM     32  C   UNL     1       0.810  -2.783   4.575  0.00  0.00    +0.282 C 
ATOM     33  O   UNL     1       0.427  -2.335   5.640  0.00  0.00    -0.267 OA
ATOM     34  H   UNL     1       1.518  -0.090   1.189  0.00  0.00    -0.082 HD
BRANCH  26  36
ATOM     35  C   UNL     1      -0.160   1.545   0.057  0.00  0.00    -0.017 C 
ATOM     36  C   UNL     1      -0.169   0.015   0.047  0.00  0.00    -0.082 C 
ENDBRANCH  26  36
ENDBRANCH  21  32
ENDBRANCH  20  24
ENDBRANCH   1  20
TORSDOF 6
