REMARK  Name = ZINC38557574
REMARK  18 active torsions:
REMARK  status: ('A' for Active; 'I' for Inactive)
REMARK    1  A    between atoms: C_1  and  C_2
REMARK    2  A    between atoms: C_2  and  C_4
REMARK    3  A    between atoms: C_2  and  N_16
REMARK    4  A    between atoms: N_6  and  C_7
REMARK    5  A    between atoms: C_7  and  C_8
REMARK    6  A    between atoms: C_13  and  O_14
REMARK    7  A    between atoms: O_14  and  C_15
REMARK    8  A    between atoms: C_17  and  C_19
REMARK    9  A    between atoms: C_25  and  C_27
REMARK   10  A    between atoms: C_27  and  C_29
REMARK   11  A    between atoms: C_27  and  N_32
REMARK   12  A    between atoms: C_29  and  C_30
REMARK   13  A    between atoms: C_29  and  C_31
REMARK   14  A    between atoms: C_33  and  O_35
REMARK   15  A    between atoms: O_35  and  C_36
REMARK   16  A    between atoms: C_36  and  C_37
REMARK   17  A    between atoms: C_36  and  C_38
REMARK   18  A    between atoms: C_36  and  C_39
REMARK                            x       y       z     vdW  Elec       q    Type
REMARK                         _______ _______ _______ _____ _____    ______ ____
ROOT
ATOM      1  C   UNL     1      -0.912  -1.790   3.310  0.00  0.00    +0.078 C 
ATOM      2  C   UNL     1       0.166  -2.849   3.068  0.00  0.00    +0.032 C 
ATOM      3  C   UNL     1       1.196  -2.791   4.200  0.00  0.00    +0.108 C 
ATOM      4  N   UNL     1       0.496  -2.926   5.485  0.00  0.00    -0.300 N 
ATOM      5  C   UNL     1      -0.619  -2.015   5.780  0.00  0.00    +0.108 C 
ATOM      6  C   UNL     1      -1.629  -2.082   4.630  0.00  0.00    +0.032 C 
ATOM      7  C   UNL     1       0.868  -3.867   6.375  0.00  0.00    +0.236 C 
ATOM      8  O   UNL     1       1.728  -4.670   6.083  0.00  0.00    -0.274 OA
ENDROOT
BRANCH   1  10
ATOM      9  N   UNL     1      -1.502  -1.591   0.916  0.00  0.00    -0.304 N 
ATOM     10  C   UNL     1      -1.909  -1.822   2.180  0.00  0.00    +0.217 C 
ATOM     11  O   UNL     1      -3.077  -2.054   2.409  0.00  0.00    -0.275 OA
ATOM     12  H   UNL     1      -0.568  -1.406   0.733  0.00  0.00    +0.149 HD
BRANCH   9  14
ATOM     13  C   UNL     1      -3.145  -0.254  -0.306  0.00  0.00    +0.038 C 
ATOM     14  C   UNL     1      -2.471  -1.622  -0.182  0.00  0.00    +0.156 C 
BRANCH  14  15
ATOM     15  C   UNL     1      -1.761  -1.950  -1.470  0.00  0.00    +0.233 C 
ATOM     16  O   UNL     1      -0.563  -2.140  -1.471  0.00  0.00    -0.274 OA
ATOM     17  N   UNL     1      -2.457  -2.033  -2.622  0.00  0.00    -0.310 N 
ATOM     18  H   UNL     1      -3.414  -1.881  -2.621  0.00  0.00    +0.149 HD
BRANCH  17  19
ATOM     19  C   UNL     1      -1.766  -2.352  -3.873  0.00  0.00    +0.143 C 
BRANCH  19  20
ATOM     20  C   UNL     1      -2.763  -2.383  -5.003  0.00  0.00    +0.011 A 
ATOM     21  C   UNL     1      -3.253  -3.591  -5.459  0.00  0.00    +0.009 A 
ATOM     22  C   UNL     1      -4.168  -3.621  -6.495  0.00  0.00    +0.001 A 
ATOM     23  C   UNL     1      -4.593  -2.441  -7.079  0.00  0.00    +0.004 A 
ATOM     24  C   UNL     1      -4.106  -1.231  -6.627  0.00  0.00    +0.046 A 
ATOM     25  C   UNL     1      -3.192  -1.198  -5.583  0.00  0.00    +0.125 A 
BRANCH  25  26
ATOM     26  O   UNL     1      -2.716  -0.008  -5.132  0.00  0.00    -0.495 OA
ATOM     27  C   UNL     1      -3.202   1.171  -5.776  0.00  0.00    +0.277 C 
ENDBRANCH  25  26
ENDBRANCH  19  20
ENDBRANCH  17  19
ENDBRANCH  14  15
ENDBRANCH   9  14
ENDBRANCH   1  10
BRANCH   7  28
ATOM     28  C   UNL     1       0.214  -3.922   7.731  0.00  0.00    +0.165 C 
BRANCH  28  29
ATOM     29  N   UNL     1       0.473  -5.226   8.346  0.00  0.00    -0.270 N 
ATOM     30  C   UNL     1      -0.372  -5.712   9.277  0.00  0.00    +0.401 C 
ATOM     31  O   UNL     1      -1.349  -5.068   9.606  0.00  0.00    -0.226 OA
ATOM     32  H   UNL     1       1.253  -5.740   8.083  0.00  0.00    +0.153 HD
BRANCH  30  33
ATOM     33  O   UNL     1      -0.134  -6.911   9.842  0.00  0.00    -0.445 OA
BRANCH  33  34
ATOM     34  C   UNL     1      -1.071  -7.364  10.821  0.00  0.00    +0.107 C 
ATOM     35  C   UNL     1      -2.458  -7.477  10.185  0.00  0.00    +0.055 C 
ATOM     36  C   UNL     1      -0.637  -8.734  11.346  0.00  0.00    +0.055 C 
ATOM     37  C   UNL     1      -1.121  -6.366  11.979  0.00  0.00    +0.055 C 
ENDBRANCH  33  34
ENDBRANCH  30  33
ENDBRANCH  28  29
BRANCH  28  38
ATOM     38  C   UNL     1       0.789  -2.816   8.619  0.00  0.00    +0.012 C 
ATOM     39  C   UNL     1       0.033  -2.785   9.949  0.00  0.00    +0.009 C 
ATOM     40  C   UNL     1       2.271  -3.091   8.881  0.00  0.00    +0.009 C 
ENDBRANCH  28  38
ENDBRANCH   7  28
TORSDOF 11
