REMARK  Name = ZINC15958195
REMARK  7 active torsions:
REMARK  status: ('A' for Active; 'I' for Inactive)
REMARK    1  A    between atoms: C_1  and  O_2
REMARK    2  A    between atoms: O_2  and  C_3
REMARK    3  A    between atoms: C_8  and  C_9
REMARK    4  A    between atoms: C_9  and  N_10
REMARK    5  A    between atoms: C_15  and  C_32
REMARK    6  A    between atoms: C_32  and  C_33
REMARK    7  A    between atoms: C_36  and  O_39
REMARK                            x       y       z     vdW  Elec       q    Type
REMARK                         _______ _______ _______ _____ _____    ______ ____
ROOT
ATOM      1  N   UNL     1       0.950  -2.876  -1.151  0.00  0.00    -0.237 N 
ATOM      2  C   UNL     1       0.909  -1.971  -2.136  0.00  0.00    +0.227 C 
ATOM      3  O   UNL     1       0.148  -1.029  -2.191  0.00  0.00    -0.275 OA
ATOM      4  C   UNL     1       1.960  -2.306  -3.170  0.00  0.00    +0.107 C 
ATOM      5  C   UNL     1       1.263  -2.757  -4.472  0.00  0.00    +0.072 C 
ATOM      6  N   UNL     1       1.994  -3.982  -4.892  0.00  0.00    -0.295 NA
ATOM      7  C   UNL     1       2.276  -4.686  -3.627  0.00  0.00    +0.136 C 
ATOM      8  C   UNL     1       2.632  -3.585  -2.596  0.00  0.00    +0.122 C 
ATOM      9  C   UNL     1       1.882  -3.823  -1.305  0.00  0.00    +0.229 C 
ATOM     10  O   UNL     1       2.091  -4.733  -0.531  0.00  0.00    -0.275 OA
ATOM     11  C   UNL     1       3.400  -5.670  -3.785  0.00  0.00    +0.003 A 
ATOM     12  C   UNL     1       4.719  -5.550  -4.163  0.00  0.00    +0.008 A 
ATOM     13  C   UNL     1       5.529  -6.671  -4.216  0.00  0.00    +0.000 A 
ATOM     14  C   UNL     1       5.010  -7.910  -3.889  0.00  0.00    +0.002 A 
ATOM     15  C   UNL     1       3.690  -8.035  -3.509  0.00  0.00    +0.023 A 
ATOM     16  C   UNL     1       2.868  -6.912  -3.453  0.00  0.00    +0.039 A 
ATOM     17  N   UNL     1       1.522  -6.783  -3.103  0.00  0.00    -0.283 N 
ATOM     18  C   UNL     1       1.098  -5.506  -3.180  0.00  0.00    +0.243 C 
ATOM     19  O   UNL     1      -0.018  -5.098  -2.937  0.00  0.00    -0.273 OA
ATOM     20  H   UNL     1       1.426  -4.550  -5.503  0.00  0.00    +0.124 HD
ATOM     21  H   UNL     1       0.958  -7.525  -2.836  0.00  0.00    +0.155 HD
ENDROOT
BRANCH   1  22
ATOM     22  C   UNL     1       0.052  -2.828   0.005  0.00  0.00    +0.155 C 
BRANCH  22  28
ATOM     23  C   UNL     1       0.626  -0.618   1.042  0.00  0.00    +0.125 A 
ATOM     24  C   UNL     1       1.202   0.139   2.051  0.00  0.00    +0.046 A 
ATOM     25  C   UNL     1       1.835  -0.488   3.107  0.00  0.00    +0.004 A 
ATOM     26  C   UNL     1       1.895  -1.869   3.158  0.00  0.00    +0.001 A 
ATOM     27  C   UNL     1       1.321  -2.625   2.153  0.00  0.00    +0.009 A 
ATOM     28  C   UNL     1       0.682  -2.003   1.097  0.00  0.00    +0.012 A 
BRANCH  23  30
ATOM     29  C   UNL     1      -0.017   1.425   0.010  0.00  0.00    +0.277 C 
ATOM     30  O   UNL     1       0.002  -0.004   0.002  0.00  0.00    -0.495 OA
ENDBRANCH  23  30
ENDBRANCH  22  28
ENDBRANCH   1  22
BRANCH   5  31
ATOM     31  C   UNL     1       1.380  -1.670  -5.543  0.00  0.00    +0.054 C 
BRANCH  31  32
ATOM     32  C   UNL     1       0.590  -2.077  -6.760  0.00  0.00    -0.046 A 
ATOM     33  C   UNL     1       1.196  -2.813  -7.761  0.00  0.00    +0.007 A 
ATOM     34  C   UNL     1       0.473  -3.187  -8.878  0.00  0.00    +0.045 A 
ATOM     35  C   UNL     1      -0.860  -2.823  -8.994  0.00  0.00    +0.117 A 
ATOM     36  C   UNL     1      -1.466  -2.085  -7.988  0.00  0.00    +0.045 A 
ATOM     37  C   UNL     1      -0.741  -1.718  -6.870  0.00  0.00    +0.007 A 
BRANCH  35  38
ATOM     38  O   UNL     1      -1.573  -3.189 -10.092  0.00  0.00    -0.507 OA
ATOM     39  H   UNL     1      -2.018  -4.043 -10.005  0.00  0.00    +0.292 HD
ENDBRANCH  35  38
ENDBRANCH  31  32
ENDBRANCH   5  31
TORSDOF 6
