REMARK  Name = ZINC35449418
REMARK  6 active torsions:
REMARK  status: ('A' for Active; 'I' for Inactive)
REMARK    1  A    between atoms: C_1  and  C_2
REMARK    2  A    between atoms: C_2  and  C_3
REMARK    3  A    between atoms: C_3  and  C_4
REMARK    4  A    between atoms: C_4  and  S_5
REMARK    5  A    between atoms: S_5  and  C_6
REMARK    6  A    between atoms: C_13  and  C_23
REMARK                            x       y       z     vdW  Elec       q    Type
REMARK                         _______ _______ _______ _____ _____    ______ ____
ROOT
ATOM      1  C   UNL     1      -2.923  -4.443   0.006  0.00  0.00    +0.171 A 
ATOM      2  N   UNL     1      -1.710  -4.959  -0.003  0.00  0.00    -0.208 NA
ATOM      3  C   UNL     1      -1.524  -6.284  -0.012  0.00  0.00    +0.135 A 
ATOM      4  C   UNL     1      -2.617  -7.133  -0.015  0.00  0.00    +0.069 A 
ATOM      5  C   UNL     1      -3.903  -6.579  -0.004  0.00  0.00    +0.258 A 
ATOM      6  O   UNL     1      -4.890  -7.298  -0.003  0.00  0.00    -0.267 OA
ATOM      7  N   UNL     1      -4.031  -5.235   0.012  0.00  0.00    -0.302 N 
ATOM      8  C   UNL     1      -2.433  -8.621  -0.035  0.00  0.00    +0.092 C 
ATOM      9  C   UNL     1      -1.036  -9.006   0.381  0.00  0.00    +0.024 C 
ATOM     10  C   UNL     1      -0.029  -8.107   0.364  0.00  0.00    +0.017 C 
ATOM     11  N   UNL     1      -0.248  -6.811  -0.016  0.00  0.00    -0.302 N 
ATOM     12  C   UNL     1       1.373  -8.505   0.759  0.00  0.00    +0.051 C 
ATOM     13  C   UNL     1       1.316  -9.612   1.814  0.00  0.00    +0.014 C 
ATOM     14  C   UNL     1       0.546 -10.800   1.228  0.00  0.00    +0.080 C 
ATOM     15  C   UNL     1      -0.814 -10.333   0.788  0.00  0.00    +0.162 C 
ATOM     16  O   UNL     1      -1.741 -11.119   0.785  0.00  0.00    -0.292 OA
ATOM     17  H   UNL     1       0.499  -6.258  -0.291  0.00  0.00    +0.153 HD
ATOM     18  H   UNL     1      -4.913  -4.833   0.025  0.00  0.00    +0.171 HD
ENDROOT
BRANCH   8  19
ATOM     19  C   UNL     1      -2.690  -9.132  -1.429  0.00  0.00    -0.034 A 
ATOM     20  C   UNL     1      -1.915  -8.684  -2.483  0.00  0.00    +0.006 A 
ATOM     21  C   UNL     1      -2.150  -9.151  -3.762  0.00  0.00    +0.022 A 
ATOM     22  C   UNL     1      -3.162 -10.068  -3.989  0.00  0.00    +0.059 A 
ATOM     23  C   UNL     1      -3.938 -10.516  -2.933  0.00  0.00    +0.060 A 
ATOM     24  C   UNL     1      -3.697 -10.051  -1.653  0.00  0.00    +0.026 A 
ATOM     25 CL   UNL     1      -5.208 -11.665  -3.216  0.00  0.00    -0.082 Cl
ATOM     26 CL   UNL     1      -3.458 -10.655  -5.595  0.00  0.00    -0.082 Cl
ENDBRANCH   8  19
BRANCH   1  27
ATOM     27  S   UNL     1      -3.114  -2.691   0.017  0.00  0.00    -0.088 S 
BRANCH  27  28
ATOM     28  C   UNL     1      -1.413  -2.063   0.004  0.00  0.00    +0.077 C 
BRANCH  28  29
ATOM     29  C   UNL     1      -1.433  -0.534   0.013  0.00  0.00    +0.011 C 
BRANCH  29  31
ATOM     30  C   UNL     1      -0.019   1.526   0.010  0.00  0.00    +0.004 C 
ATOM     31  C   UNL     1       0.002  -0.004   0.002  0.00  0.00    -0.003 C 
ENDBRANCH  29  31
ENDBRANCH  28  29
ENDBRANCH  27  28
ENDBRANCH   1  27
TORSDOF 5
