REMARK  Name = ZINC44878533
REMARK  13 active torsions:
REMARK  status: ('A' for Active; 'I' for Inactive)
REMARK    1  A    between atoms: C_1  and  C_2
REMARK    2  A    between atoms: N_7  and  C_9
REMARK    3  A    between atoms: C_9  and  C_10
REMARK    4  A    between atoms: C_13  and  C_16
REMARK    5  A    between atoms: C_16  and  N_17
REMARK    6  A    between atoms: C_18  and  C_20
REMARK    7  A    between atoms: C_20  and  C_22
REMARK    8  A    between atoms: C_20  and  N_23
REMARK    9  A    between atoms: N_23  and  C_24
REMARK   10  A    between atoms: N_23  and  S_33
REMARK   11  A    between atoms: C_29  and  O_30
REMARK   12  A    between atoms: O_30  and  C_31
REMARK   13  A    between atoms: S_33  and  C_36
REMARK                            x       y       z     vdW  Elec       q    Type
REMARK                         _______ _______ _______ _____ _____    ______ ____
ROOT
ATOM      1  N   UNL     1      -0.588  -8.911   1.993  0.00  0.00    -0.310 N 
ATOM      2  C   UNL     1      -0.127 -10.079   1.505  0.00  0.00    +0.235 C 
ATOM      3  O   UNL     1       0.637 -10.752   2.165  0.00  0.00    -0.274 OA
ATOM      4  H   UNL     1      -1.199  -8.372   1.465  0.00  0.00    +0.149 HD
ENDROOT
BRANCH   2   5
ATOM      5  C   UNL     1      -0.560 -10.550   0.141  0.00  0.00    +0.180 C 
ATOM      6  C   UNL     1       0.398  -9.999  -0.917  0.00  0.00    +0.040 C 
BRANCH   5   7
ATOM      7  N   UNL     1      -0.542 -12.015   0.101  0.00  0.00    -0.192 N 
BRANCH   7   8
ATOM      8  C   UNL     1       0.674 -12.702   0.192  0.00  0.00    +0.095 A 
ATOM      9  C   UNL     1       1.183 -13.052   1.434  0.00  0.00    +0.048 A 
ATOM     10  C   UNL     1       2.385 -13.732   1.522  0.00  0.00    +0.043 A 
ATOM     11  C   UNL     1       3.080 -14.064   0.372  0.00  0.00    +0.024 A 
ATOM     12  C   UNL     1       2.578 -13.717  -0.869  0.00  0.00    +0.049 A 
ATOM     13  C   UNL     1       1.372 -13.042  -0.964  0.00  0.00    +0.143 A 
ATOM     14 CL   UNL     1       3.022 -14.169   3.076  0.00  0.00    -0.083 Cl
BRANCH  13  15
ATOM     15  O   UNL     1       0.875 -12.705  -2.185  0.00  0.00    -0.493 OA
ATOM     16  C   UNL     1       1.645 -13.086  -3.327  0.00  0.00    +0.277 C 
ENDBRANCH  13  15
ENDBRANCH   7   8
BRANCH   7  17
ATOM     17  S   UNL     1      -1.960 -12.857  -0.052  0.00  0.00    +0.043 S 
ATOM     18  O   UNL     1      -1.727 -14.084   0.625  0.00  0.00    -0.155 OA
ATOM     19  O   UNL     1      -2.965 -11.960   0.400  0.00  0.00    -0.155 OA
ATOM     20  C   UNL     1      -2.139 -13.149  -1.833  0.00  0.00    +0.218 C 
ENDBRANCH   7  17
ENDBRANCH   5   7
ENDBRANCH   2   5
BRANCH   1  21
ATOM     21  C   UNL     1      -0.166  -8.453   3.319  0.00  0.00    +0.139 C 
BRANCH  21  25
ATOM     22  C   UNL     1      -2.015  -4.701   4.187  0.00  0.00    -0.064 A 
ATOM     23  C   UNL     1      -2.646  -5.880   4.538  0.00  0.00    +0.002 A 
ATOM     24  C   UNL     1      -2.048  -7.094   4.257  0.00  0.00    +0.005 A 
ATOM     25  C   UNL     1      -0.819  -7.129   3.624  0.00  0.00    -0.030 A 
ATOM     26  C   UNL     1      -0.189  -5.950   3.272  0.00  0.00    +0.005 A 
ATOM     27  C   UNL     1      -0.789  -4.736   3.550  0.00  0.00    +0.002 A 
BRANCH  22  28
ATOM     28  C   UNL     1      -2.667  -3.377   4.493  0.00  0.00    -0.043 C 
BRANCH  28  34
ATOM     29  C   UNL     1      -5.962  -0.105   2.942  0.00  0.00    +0.005 C 
ATOM     30  C   UNL     1      -5.200  -1.381   2.575  0.00  0.00    -0.031 C 
ATOM     31  C   UNL     1      -4.387  -1.142   1.299  0.00  0.00    -0.001 C 
ATOM     32  C   UNL     1      -3.569  -2.398   0.985  0.00  0.00    -0.018 C 
ATOM     33  C   UNL     1      -2.681  -2.735   2.184  0.00  0.00    -0.078 C 
ATOM     34  N   UNL     1      -3.519  -2.978   3.365  0.00  0.00    +0.383 N 
ATOM     35  C   UNL     1      -4.253  -1.756   3.716  0.00  0.00    -0.075 C 
ATOM     36  H   UNL     1      -4.175  -3.717   3.163  0.00  0.00    -0.081 HD
ENDBRANCH  28  34
ENDBRANCH  22  28
ENDBRANCH  21  25
ENDBRANCH   1  21
TORSDOF 9
