REMARK  Name = ZINC39637044
REMARK  10 active torsions:
REMARK  status: ('A' for Active; 'I' for Inactive)
REMARK    1  A    between atoms: C_1  and  O_2
REMARK    2  A    between atoms: O_2  and  C_3
REMARK    3  A    between atoms: C_5  and  C_13
REMARK    4  A    between atoms: C_7  and  O_11
REMARK    5  A    between atoms: C_8  and  O_9
REMARK    6  A    between atoms: O_9  and  C_10
REMARK    7  A    between atoms: O_11  and  C_12
REMARK    8  A    between atoms: C_13  and  N_14
REMARK    9  A    between atoms: C_15  and  C_17
REMARK   10  A    between atoms: C_28  and  C_30
REMARK                            x       y       z     vdW  Elec       q    Type
REMARK                         _______ _______ _______ _____ _____    ______ ____
ROOT
ATOM      1  C   UNL     1      -6.845   1.505  -3.005  0.00  0.00    +0.100 C 
ATOM      2  C   UNL     1      -7.053   0.178  -3.768  0.00  0.00    +0.121 C 
ATOM      3  N   UNL     1      -8.501  -0.108  -3.635  0.00  0.00    -0.296 N 
ATOM      4  C   UNL     1      -9.152   1.216  -3.773  0.00  0.00    +0.115 C 
ATOM      5  C   UNL     1      -8.224   2.186  -3.014  0.00  0.00    -0.004 C 
ATOM      6  C   UNL     1      -8.149   3.524  -3.743  0.00  0.00    -0.010 C 
ATOM      7  C   UNL     1      -9.518   4.208  -3.687  0.00  0.00    -0.082 C 
ATOM      8  N   UNL     1      -9.909   4.412  -2.287  0.00  0.00    +0.379 N 
ATOM      9  C   UNL     1     -10.070   3.115  -1.619  0.00  0.00    -0.082 C 
ATOM     10  C   UNL     1      -8.724   2.385  -1.586  0.00  0.00    -0.010 C 
ATOM     11  C   UNL     1      -9.092  -1.303  -3.434  0.00  0.00    +0.248 C 
ATOM     12  O   UNL     1      -8.412  -2.294  -3.244  0.00  0.00    -0.270 OA
ATOM     13  H   UNL     1      -9.195   4.946  -1.814  0.00  0.00    -0.086 HD
ATOM     14  H   UNL     1     -10.781   4.917  -2.253  0.00  0.00    -0.086 HD
ENDROOT
BRANCH  11  15
ATOM     15  C   UNL     1     -10.556  -1.408  -3.444  0.00  0.00    +0.052 A 
ATOM     16  C   UNL     1     -11.308  -0.637  -4.272  0.00  0.00    +0.059 A 
ATOM     17  S   UNL     1     -12.899  -1.071  -3.964  0.00  0.00    -0.096 S 
ATOM     18  C   UNL     1     -12.651  -2.304  -2.716  0.00  0.00    +0.020 A 
ATOM     19  C   UNL     1     -11.252  -2.352  -2.566  0.00  0.00    +0.001 A 
ATOM     20  C   UNL     1     -10.734  -3.263  -1.626  0.00  0.00    +0.010 A 
ATOM     21  C   UNL     1     -11.578  -4.066  -0.900  0.00  0.00    +0.001 A 
ATOM     22  C   UNL     1     -12.954  -4.003  -1.070  0.00  0.00    +0.001 A 
ATOM     23  C   UNL     1     -13.490  -3.111  -1.977  0.00  0.00    +0.015 A 
ENDBRANCH  11  15
BRANCH   1  25
ATOM     24  N   UNL     1      -5.606   2.114  -0.953  0.00  0.00    -0.311 N 
ATOM     25  C   UNL     1      -6.403   1.234  -1.591  0.00  0.00    +0.218 C 
ATOM     26  O   UNL     1      -6.763   0.223  -1.026  0.00  0.00    -0.275 OA
ATOM     27  H   UNL     1      -5.318   2.923  -1.405  0.00  0.00    +0.149 HD
BRANCH  24  28
ATOM     28  C   UNL     1      -5.176   1.851   0.422  0.00  0.00    +0.139 C 
BRANCH  28  31
ATOM     29  C   UNL     1      -4.063   5.112   1.973  0.00  0.00    +0.165 A 
ATOM     30  C   UNL     1      -4.866   4.072   1.531  0.00  0.00    +0.054 A 
ATOM     31  C   UNL     1      -4.300   2.980   0.900  0.00  0.00    -0.023 A 
ATOM     32  C   UNL     1      -2.933   2.920   0.706  0.00  0.00    +0.054 A 
ATOM     33  C   UNL     1      -2.123   3.957   1.145  0.00  0.00    +0.165 A 
ATOM     34  C   UNL     1      -2.688   5.059   1.775  0.00  0.00    +0.204 A 
BRANCH  29  36
ATOM     35  C   UNL     1      -6.039   6.173   2.763  0.00  0.00    +0.277 C 
ATOM     36  O   UNL     1      -4.620   6.186   2.593  0.00  0.00    -0.491 OA
ENDBRANCH  29  36
BRANCH  34  37
ATOM     37  O   UNL     1      -1.897   6.082   2.201  0.00  0.00    -0.488 OA
ATOM     38  C   UNL     1      -1.381   5.990   3.531  0.00  0.00    +0.277 C 
ENDBRANCH  34  37
BRANCH  33  39
ATOM     39  O   UNL     1      -0.777   3.898   0.954  0.00  0.00    -0.491 OA
ATOM     40  C   UNL     1      -0.266   2.737   0.295  0.00  0.00    +0.277 C 
ENDBRANCH  33  39
ENDBRANCH  28  31
ENDBRANCH  24  28
ENDBRANCH   1  25
TORSDOF 7
