REMARK  Name = ZINC04235720
REMARK  11 active torsions:
REMARK  status: ('A' for Active; 'I' for Inactive)
REMARK    1  A    between atoms: C_1  and  S_2
REMARK    2  A    between atoms: S_2  and  C_3
REMARK    3  A    between atoms: C_4  and  N_32
REMARK    4  A    between atoms: N_7  and  C_8
REMARK    5  A    between atoms: C_14  and  C_15
REMARK    6  A    between atoms: C_14  and  N_63
REMARK    7  A    between atoms: C_15  and  N_65
REMARK    8  A    between atoms: C_17  and  N_29
REMARK    9  A    between atoms: C_18  and  S_27
REMARK   10  A    between atoms: N_19  and  C_21
REMARK   11  A    between atoms: S_27  and  C_28
REMARK                            x       y       z     vdW  Elec       q    Type
REMARK                         _______ _______ _______ _____ _____    ______ ____
ROOT
ATOM      1  C   UNL     1      -2.372   5.806   1.027  0.00  0.00    -0.095 C 
ENDROOT
BRANCH   1   7
ATOM      2  C   UNL     1      -2.414   1.626   0.574  0.00  0.00    +0.091 C 
ATOM      3  C   UNL     1      -3.561   2.258   0.799  0.00  0.00    +0.115 C 
ATOM      4  C   UNL     1      -3.648   3.757   0.848  0.00  0.00    -0.013 C 
ATOM      5  C   UNL     1      -1.333   3.796   0.155  0.00  0.00    +0.036 C 
ATOM      6  N   UNL     1      -1.236   2.348   0.391  0.00  0.00    -0.310 N 
ATOM      7  N   UNL     1      -2.316   4.330   1.122  0.00  0.00    +0.393 N 
ATOM      8  H   UNL     1      -2.027   4.066   2.072  0.00  0.00    -0.079 HD
BRANCH   6   9
ATOM      9  C   UNL     1       0.007   1.710   0.425  0.00  0.00    +0.033 A 
ATOM     10  C   UNL     1       0.457   1.125   1.602  0.00  0.00    +0.023 A 
ATOM     11  C   UNL     1       1.688   0.500   1.635  0.00  0.00    +0.002 A 
ATOM     12  C   UNL     1       2.474   0.457   0.497  0.00  0.00    +0.000 A 
ATOM     13  C   UNL     1       2.029   1.039  -0.676  0.00  0.00    +0.002 A 
ATOM     14  C   UNL     1       0.799   1.665  -0.715  0.00  0.00    +0.023 A 
ENDBRANCH   6   9
BRANCH   3  15
ATOM     15  N   UNL     1      -4.792   1.459   1.002  0.00  0.00    +0.053 N 
ATOM     16  O   UNL     1      -4.742   0.243   0.966  0.00  0.00    -0.126 OA
ATOM     17  O   UNL     1      -5.854   2.019   1.205  0.00  0.00    -0.126 OA
ENDBRANCH   3  15
BRANCH   2  19
ATOM     18  C   UNL     1      -1.959  -0.505  -1.214  0.00  0.00    +0.091 C 
ATOM     19  S   UNL     1      -2.380  -0.135   0.511  0.00  0.00    -0.112 S 
ENDBRANCH   2  19
ENDBRANCH   1   7
BRANCH   1  20
ATOM     20  C   UNL     1      -3.216   6.348   2.183  0.00  0.00    -0.095 C 
BRANCH  20  26
ATOM     21  C   UNL     1      -3.559   8.263   0.743  0.00  0.00    -0.013 C 
ATOM     22  C   UNL     1      -3.731   9.756   0.707  0.00  0.00    +0.115 C 
ATOM     23  C   UNL     1      -4.006  10.458   1.799  0.00  0.00    +0.091 C 
ATOM     24  N   UNL     1      -4.138   9.824   3.033  0.00  0.00    -0.310 N 
ATOM     25  C   UNL     1      -4.254   8.358   3.055  0.00  0.00    +0.036 C 
ATOM     26  N   UNL     1      -3.242   7.825   2.116  0.00  0.00    +0.393 N 
ATOM     27  H   UNL     1      -2.318   8.187   2.378  0.00  0.00    -0.079 HD
BRANCH  24  28
ATOM     28  C   UNL     1      -4.159  10.562   4.220  0.00  0.00    +0.033 A 
ATOM     29  C   UNL     1      -3.058  11.325   4.584  0.00  0.00    +0.023 A 
ATOM     30  C   UNL     1      -3.084  12.058   5.755  0.00  0.00    +0.002 A 
ATOM     31  C   UNL     1      -4.201  12.023   6.569  0.00  0.00    +0.000 A 
ATOM     32  C   UNL     1      -5.298  11.260   6.212  0.00  0.00    +0.002 A 
ATOM     33  C   UNL     1      -5.280  10.530   5.040  0.00  0.00    +0.023 A 
ENDBRANCH  24  28
BRANCH  22  34
ATOM     34  N   UNL     1      -3.591  10.464  -0.586  0.00  0.00    +0.053 N 
ATOM     35  O   UNL     1      -3.727  11.674  -0.636  0.00  0.00    -0.126 OA
ATOM     36  O   UNL     1      -3.339   9.838  -1.600  0.00  0.00    -0.126 OA
ENDBRANCH  22  34
BRANCH  23  37
ATOM     37  S   UNL     1      -4.205  12.206   1.688  0.00  0.00    -0.112 S 
ATOM     38  C   UNL     1      -5.964  12.470   2.041  0.00  0.00    +0.091 C 
ENDBRANCH  23  37
ENDBRANCH  20  26
ENDBRANCH   1  20
TORSDOF 9
