REMARK  Name = ZINC37763700
REMARK  8 active torsions:
REMARK  status: ('A' for Active; 'I' for Inactive)
REMARK    1  A    between atoms: C_1  and  C_2
REMARK    2  A    between atoms: C_4  and  C_21
REMARK    3  A    between atoms: C_5  and  N_9
REMARK    4  A    between atoms: C_6  and  C_8
REMARK    5  A    between atoms: N_9  and  C_10
REMARK    6  A    between atoms: C_10  and  C_11
REMARK    7  A    between atoms: N_13  and  C_20
REMARK    8  A    between atoms: N_16  and  C_19
REMARK                            x       y       z     vdW  Elec       q    Type
REMARK                         _______ _______ _______ _____ _____    ______ ____
ROOT
ATOM      1  N   UNL     1       1.329  -3.785  -0.570  0.00  0.00    -0.339 N 
ATOM      2  H   UNL     1       1.626  -3.947  -1.479  0.00  0.00    +0.146 HD
ENDROOT
BRANCH   1   7
ATOM      3  C   UNL     1      -2.263   0.464   0.526  0.00  0.00    +0.044 C 
ATOM      4  C   UNL     1      -1.309  -0.665   0.235  0.00  0.00    -0.050 A 
ATOM      5  C   UNL     1      -1.322  -1.278  -1.005  0.00  0.00    +0.008 A 
ATOM      6  C   UNL     1      -0.449  -2.312  -1.275  0.00  0.00    -0.029 A 
ATOM      7  C   UNL     1       0.444  -2.738  -0.300  0.00  0.00    +0.033 A 
ATOM      8  C   UNL     1       0.455  -2.121   0.944  0.00  0.00    -0.029 A 
ATOM      9  C   UNL     1      -0.417  -1.083   1.206  0.00  0.00    +0.008 A 
ATOM     10  C   UNL     1       1.422  -2.579   2.006  0.00  0.00    +0.045 C 
ATOM     11  C   UNL     1      -0.465  -2.980  -2.626  0.00  0.00    +0.045 C 
ENDBRANCH   1   7
BRANCH   1  12
ATOM     12  C   UNL     1       1.808  -4.639   0.520  0.00  0.00    +0.143 C 
BRANCH  12  13
ATOM     13  C   UNL     1       2.581  -5.798  -0.053  0.00  0.00    +0.050 A 
ATOM     14  C   UNL     1       3.926  -5.740  -0.156  0.00  0.00    +0.100 A 
ATOM     15  N   UNL     1       4.612  -6.802  -0.678  0.00  0.00    -0.303 N 
ATOM     16  C   UNL     1       3.959  -7.904  -1.091  0.00  0.00    +0.331 A 
ATOM     17  O   UNL     1       4.589  -8.836  -1.552  0.00  0.00    -0.246 OA
ATOM     18  N   UNL     1       2.619  -7.989  -0.999  0.00  0.00    -0.264 N 
ATOM     19  C   UNL     1       1.907  -6.966  -0.485  0.00  0.00    +0.261 A 
ATOM     20  O   UNL     1       0.695  -7.044  -0.397  0.00  0.00    -0.267 OA
ATOM     21  C   UNL     1       1.932  -9.200  -1.455  0.00  0.00    +0.157 C 
ATOM     22  C   UNL     1       6.071  -6.739  -0.790  0.00  0.00    +0.153 C 
ENDBRANCH  12  13
ENDBRANCH   1  12
TORSDOF 3
