REMARK  Name = ZINC21252749
REMARK  12 active torsions:
REMARK  status: ('A' for Active; 'I' for Inactive)
REMARK    1  A    between atoms: C_1  and  C_2
REMARK    2  A    between atoms: C_2  and  O_3
REMARK    3  A    between atoms: O_3  and  C_4
REMARK    4  A    between atoms: C_7  and  C_13
REMARK    5  A    between atoms: C_9  and  O_10
REMARK    6  A    between atoms: O_10  and  C_11
REMARK    7  A    between atoms: C_11  and  C_12
REMARK    8  A    between atoms: C_18  and  C_23
REMARK    9  A    between atoms: C_25  and  O_31
REMARK   10  A    between atoms: C_28  and  O_29
REMARK   11  A    between atoms: O_29  and  C_30
REMARK   12  A    between atoms: O_31  and  C_32
REMARK                            x       y       z     vdW  Elec       q    Type
REMARK                         _______ _______ _______ _____ _____    ______ ____
ROOT
ATOM      1  C   UNL     1      -3.257   1.230   1.319  0.00  0.00    +0.136 C 
ATOM      2  C   UNL     1      -3.766   2.636   1.522  0.00  0.00    +0.036 C 
ATOM      3  C   UNL     1      -3.360   3.727   0.847  0.00  0.00    +0.017 C 
ATOM      4  C   UNL     1      -3.967   5.087   1.145  0.00  0.00    +0.060 C 
ATOM      5  C   UNL     1      -4.342   5.178   2.623  0.00  0.00    +0.036 C 
ATOM      6  C   UNL     1      -5.356   4.066   2.917  0.00  0.00    +0.088 C 
ATOM      7  C   UNL     1      -4.748   2.751   2.533  0.00  0.00    +0.163 C 
ATOM      8  O   UNL     1      -5.113   1.746   3.112  0.00  0.00    -0.292 OA
ATOM      9  N   UNL     1      -2.423   3.721  -0.134  0.00  0.00    -0.316 N 
ATOM     10  C   UNL     1      -1.197   3.070  -0.061  0.00  0.00    +0.052 A 
ATOM     11  C   UNL     1       0.006   3.753  -0.079  0.00  0.00    +0.025 A 
ATOM     12  C   UNL     1       1.192   3.039  -0.065  0.00  0.00    +0.002 A 
ATOM     13  C   UNL     1       1.175   1.656  -0.044  0.00  0.00    +0.002 A 
ATOM     14  C   UNL     1      -0.028   0.972  -0.015  0.00  0.00    +0.025 A 
ATOM     15  C   UNL     1      -1.216   1.685  -0.008  0.00  0.00    +0.049 A 
ATOM     16  N   UNL     1      -2.448   1.046   0.133  0.00  0.00    -0.331 N 
ATOM     17  H   UNL     1      -2.608   4.261  -1.075  0.00  0.00    +0.152 HD
ATOM     18  H   UNL     1      -2.802   0.393  -0.678  0.00  0.00    +0.147 HD
ENDROOT
BRANCH   1  22
ATOM     19  C   UNL     1      -0.914   0.137   4.726  0.00  0.00    +0.162 A 
ATOM     20  C   UNL     1      -0.513   1.185   3.913  0.00  0.00    +0.050 A 
ATOM     21  C   UNL     1      -1.272   1.536   2.812  0.00  0.00    +0.009 A 
ATOM     22  C   UNL     1      -2.433   0.843   2.520  0.00  0.00    -0.019 A 
ATOM     23  C   UNL     1      -2.841  -0.200   3.330  0.00  0.00    +0.055 A 
ATOM     24  C   UNL     1      -2.081  -0.560   4.431  0.00  0.00    +0.162 A 
BRANCH  19  25
ATOM     25  O   UNL     1      -0.168  -0.208   5.809  0.00  0.00    -0.489 OA
BRANCH  25  27
ATOM     26  C   UNL     1       1.718   0.021   7.302  0.00  0.00    +0.048 C 
ATOM     27  C   UNL     1       1.017   0.552   6.050  0.00  0.00    +0.226 C 
ENDBRANCH  25  27
ENDBRANCH  19  25
BRANCH  24  28
ATOM     28  O   UNL     1      -2.479  -1.590   5.226  0.00  0.00    -0.489 OA
BRANCH  28  29
ATOM     29  C   UNL     1      -3.688  -2.260   4.863  0.00  0.00    +0.226 C 
ATOM     30  C   UNL     1      -3.970  -3.380   5.867  0.00  0.00    +0.048 C 
ENDBRANCH  28  29
ENDBRANCH  24  28
ENDBRANCH   1  22
BRANCH   5  31
ATOM     31  C   UNL     1      -4.958   6.523   2.912  0.00  0.00    +0.002 A 
ATOM     32  C   UNL     1      -6.107   6.912   2.252  0.00  0.00    +0.053 A 
ATOM     33  C   UNL     1      -6.677   8.147   2.521  0.00  0.00    +0.121 A 
ATOM     34  C   UNL     1      -6.087   8.997   3.445  0.00  0.00    +0.049 A 
ATOM     35  C   UNL     1      -4.935   8.610   4.101  0.00  0.00    +0.049 A 
ATOM     36  C   UNL     1      -4.368   7.372   3.836  0.00  0.00    +0.124 A 
BRANCH  36  37
ATOM     37  O   UNL     1      -3.233   6.991   4.482  0.00  0.00    -0.495 OA
ATOM     38  C   UNL     1      -2.680   7.916   5.420  0.00  0.00    +0.277 C 
ENDBRANCH  36  37
BRANCH  33  39
ATOM     39  O   UNL     1      -7.811   8.528   1.875  0.00  0.00    -0.495 OA
ATOM     40  C   UNL     1      -8.340   9.816   2.197  0.00  0.00    +0.277 C 
ENDBRANCH  33  39
ENDBRANCH   5  31
TORSDOF 8
