REMARK  Name = ZINC39560207
REMARK  13 active torsions:
REMARK  status: ('A' for Active; 'I' for Inactive)
REMARK    1  A    between atoms: C_1  and  C_2
REMARK    2  A    between atoms: C_2  and  C_33
REMARK    3  A    between atoms: C_3  and  C_4
REMARK    4  A    between atoms: C_4  and  C_5
REMARK    5  A    between atoms: C_6  and  O_32
REMARK    6  A    between atoms: C_7  and  C_27
REMARK    7  A    between atoms: C_10  and  O_11
REMARK    8  A    between atoms: C_14  and  O_25
REMARK    9  A    between atoms: C_16  and  C_19
REMARK   10  A    between atoms: O_25  and  C_26
REMARK   11  A    between atoms: C_27  and  C_28
REMARK   12  A    between atoms: C_29  and  C_30
REMARK   13  A    between atoms: C_29  and  C_31
REMARK                            x       y       z     vdW  Elec       q    Type
REMARK                         _______ _______ _______ _____ _____    ______ ____
ROOT
ATOM      1  C   UNL     1      -1.246   0.628   3.393  0.00  0.00    +0.040 A 
ATOM      2  C   UNL     1      -2.629   0.737   3.315  0.00  0.00    +0.131 A 
ATOM      3  C   UNL     1      -3.444   0.072   4.222  0.00  0.00    +0.041 A 
ATOM      4  C   UNL     1      -2.885  -0.711   5.217  0.00  0.00    +0.143 A 
ATOM      5  C   UNL     1      -1.485  -0.829   5.294  0.00  0.00    +0.104 A 
ATOM      6  C   UNL     1      -0.666  -0.155   4.375  0.00  0.00    +0.138 A 
ATOM      7  C   UNL     1      -0.898  -1.674   6.341  0.00  0.00    +0.203 C 
ATOM      8  O   UNL     1       0.274  -1.988   6.324  0.00  0.00    -0.289 OA
ATOM      9  C   UNL     1      -1.832  -2.134   7.446  0.00  0.00    +0.234 C 
ATOM     10  C   UNL     1      -3.172  -2.494   6.787  0.00  0.00    +0.240 C 
ATOM     11  O   UNL     1      -3.684  -1.350   6.103  0.00  0.00    -0.480 OA
ENDROOT
BRANCH  10  12
ATOM     12  C   UNL     1      -4.152  -2.928   7.845  0.00  0.00    -0.004 A 
ATOM     13  C   UNL     1      -4.898  -1.984   8.526  0.00  0.00    +0.007 A 
ATOM     14  C   UNL     1      -5.798  -2.383   9.497  0.00  0.00    +0.000 A 
ATOM     15  C   UNL     1      -5.952  -3.726   9.787  0.00  0.00    +0.000 A 
ATOM     16  C   UNL     1      -5.206  -4.670   9.106  0.00  0.00    +0.000 A 
ATOM     17  C   UNL     1      -4.310  -4.271   8.132  0.00  0.00    +0.007 A 
ENDBRANCH  10  12
BRANCH   6  18
ATOM     18  O   UNL     1       0.683  -0.266   4.453  0.00  0.00    -0.506 OA
ATOM     19  H   UNL     1       1.101   0.400   5.016  0.00  0.00    +0.292 HD
ENDBRANCH   6  18
BRANCH   9  20
ATOM     20  O   UNL     1      -1.286  -3.282   8.098  0.00  0.00    -0.368 OA
ATOM     21  C   UNL     1      -0.444  -2.972   9.211  0.00  0.00    +0.195 C 
ENDBRANCH   9  20
BRANCH   2  22
ATOM     22  O   UNL     1      -3.189   1.500   2.343  0.00  0.00    -0.506 OA
ATOM     23  H   UNL     1      -3.376   1.020   1.525  0.00  0.00    +0.292 HD
ENDBRANCH   2  22
BRANCH   1  24
ATOM     24  C   UNL     1      -0.376   1.359   2.402  0.00  0.00    +0.069 C 
BRANCH  24  27
ATOM     25  C   UNL     1      -1.066   2.262  -0.178  0.00  0.00    +0.038 C 
ATOM     26  C   UNL     1      -0.505   0.876   0.012  0.00  0.00    -0.079 C 
ATOM     27  C   UNL     1      -0.132   0.479   1.203  0.00  0.00    -0.023 C 
ATOM     28  C   UNL     1      -0.373  -0.052  -1.167  0.00  0.00    +0.038 C 
ENDBRANCH  24  27
ENDBRANCH   1  24
BRANCH   3  29
ATOM     29  C   UNL     1      -4.942   0.204   4.123  0.00  0.00    +0.069 C 
BRANCH  29  30
ATOM     30  C   UNL     1      -5.484  -0.879   3.226  0.00  0.00    -0.023 C 
ATOM     31  C   UNL     1      -6.369  -1.728   3.685  0.00  0.00    -0.079 C 
ATOM     32  C   UNL     1      -6.817  -1.646   5.122  0.00  0.00    +0.038 C 
ATOM     33  C   UNL     1      -6.941  -2.786   2.777  0.00  0.00    +0.038 C 
ENDBRANCH  29  30
ENDBRANCH   3  29
TORSDOF 8
