REMARK  Name = ZINC10103189
REMARK  7 active torsions:
REMARK  status: ('A' for Active; 'I' for Inactive)
REMARK    1  A    between atoms: C_1  and  C_2
REMARK    2  A    between atoms: C_2  and  C_3
REMARK    3  A    between atoms: C_6  and  N_9
REMARK    4  A    between atoms: C_10  and  C_32
REMARK    5  A    between atoms: N_19  and  C_24
REMARK    6  A    between atoms: N_22  and  C_23
REMARK    7  A    between atoms: C_24  and  C_25
REMARK                            x       y       z     vdW  Elec       q    Type
REMARK                         _______ _______ _______ _____ _____    ______ ____
ROOT
ATOM      1  N   UNL     1      -4.628   2.296   0.036  0.00  0.00    -0.283 N 
ATOM      2  C   UNL     1      -4.684   0.914   0.029  0.00  0.00    +0.040 A 
ATOM      3  C   UNL     1      -3.438   0.449   0.020  0.00  0.00    +0.116 A 
ATOM      4  N   UNL     1      -2.570   1.526   0.022  0.00  0.00    -0.277 N 
ATOM      5  C   UNL     1      -3.305   2.662   0.032  0.00  0.00    +0.223 A 
ATOM      6  N   UNL     1      -2.494   3.709   0.046  0.00  0.00    -0.193 NA
ATOM      7  C   UNL     1      -1.227   3.302   0.032  0.00  0.00    +0.170 A 
ATOM      8  C   UNL     1      -1.236   1.907   0.018  0.00  0.00    +0.157 A 
ATOM      9  C   UNL     1      -0.015   1.215   0.009  0.00  0.00    +0.283 A 
ATOM     10  O   UNL     1       0.002  -0.004   0.002  0.00  0.00    -0.265 OA
ATOM     11  N   UNL     1       1.140   1.912   0.001  0.00  0.00    -0.255 N 
ATOM     12  C   UNL     1       1.139   3.256   0.009  0.00  0.00    +0.334 A 
ATOM     13  O   UNL     1       2.201   3.849   0.003  0.00  0.00    -0.246 OA
ATOM     14  N   UNL     1      -0.007   3.961   0.024  0.00  0.00    -0.279 N 
ATOM     15  C   UNL     1       0.034   5.426   0.033  0.00  0.00    +0.155 C 
ATOM     16  C   UNL     1      -5.939   0.080   0.029  0.00  0.00    +0.065 C 
ENDROOT
BRANCH   1  20
ATOM     17  C   UNL     1      -7.893   4.885   0.065  0.00  0.00    -0.047 A 
ATOM     18  C   UNL     1      -7.662   4.053   1.145  0.00  0.00    +0.005 A 
ATOM     19  C   UNL     1      -6.581   3.194   1.139  0.00  0.00    +0.026 A 
ATOM     20  C   UNL     1      -5.725   3.166   0.046  0.00  0.00    +0.050 A 
ATOM     21  C   UNL     1      -5.956   4.007  -1.035  0.00  0.00    +0.026 A 
ATOM     22  C   UNL     1      -7.043   4.860  -1.025  0.00  0.00    +0.005 A 
BRANCH  17  24
ATOM     23  C   UNL     1      -8.659   7.159   0.692  0.00  0.00    +0.009 C 
ATOM     24  C   UNL     1      -9.074   5.822   0.076  0.00  0.00    +0.032 C 
ENDBRANCH  17  24
ENDBRANCH   1  20
BRANCH  11  25
ATOM     25  C   UNL     1       2.416   1.192  -0.015  0.00  0.00    +0.165 C 
BRANCH  25  26
ATOM     26  C   UNL     1       2.840   0.953  -1.441  0.00  0.00    -0.027 A 
ATOM     27  C   UNL     1       2.451  -0.202  -2.093  0.00  0.00    +0.006 A 
ATOM     28  C   UNL     1       2.836  -0.420  -3.403  0.00  0.00    +0.015 A 
ATOM     29  C   UNL     1       3.619   0.514  -4.058  0.00  0.00    +0.018 A 
ATOM     30  C   UNL     1       4.012   1.667  -3.403  0.00  0.00    +0.015 A 
ATOM     31  C   UNL     1       3.623   1.886  -2.095  0.00  0.00    +0.006 A 
ATOM     32 BR   UNL     1       4.151   0.214  -5.847  0.00  0.00    -0.050 Br
ENDBRANCH  25  26
ENDBRANCH  11  25
TORSDOF 4
