REMARK  Name = ZINC38103514
REMARK  5 active torsions:
REMARK  status: ('A' for Active; 'I' for Inactive)
REMARK    1  A    between atoms: C_1  and  C_2
REMARK    2  A    between atoms: C_5  and  C_7
REMARK    3  A    between atoms: C_7  and  C_9
REMARK    4  A    between atoms: C_7  and  N_10
REMARK    5  A    between atoms: C_11  and  C_13
REMARK                            x       y       z     vdW  Elec       q    Type
REMARK                         _______ _______ _______ _____ _____    ______ ____
ROOT
ATOM      1  N   UNL     1       2.811  -2.961  -0.914  0.00  0.00    -0.300 N 
ATOM      2  C   UNL     1       3.494  -3.975  -1.482  0.00  0.00    +0.265 C 
ATOM      3  O   UNL     1       3.174  -5.125  -1.254  0.00  0.00    -0.268 OA
ATOM      4  H   UNL     1       3.066  -2.043  -1.096  0.00  0.00    +0.150 HD
ENDROOT
BRANCH   2   5
ATOM      5  C   UNL     1       4.633  -3.688  -2.383  0.00  0.00    +0.148 A 
ATOM      6  C   UNL     1       5.340  -4.737  -2.978  0.00  0.00    +0.038 A 
ATOM      7  C   UNL     1       6.399  -4.414  -3.814  0.00  0.00    +0.044 A 
ATOM      8  C   UNL     1       6.692  -3.072  -4.009  0.00  0.00    +0.152 A 
ATOM      9  N   UNL     1       5.970  -2.142  -3.405  0.00  0.00    -0.137 NA
ATOM     10  N   UNL     1       4.985  -2.432  -2.634  0.00  0.00    -0.143 NA
ATOM     11 CL   UNL     1       8.007  -2.612  -5.045  0.00  0.00    -0.060 Cl
ENDBRANCH   2   5
BRANCH   1  12
ATOM     12  C   UNL     1       1.684  -3.245  -0.023  0.00  0.00    +0.136 C 
ATOM     13  C   UNL     1       2.205  -3.494   1.394  0.00  0.00    +0.036 C 
BRANCH  12  18
ATOM     14  C   UNL     1      -0.018   1.503   0.010  0.00  0.00    +0.086 C 
ATOM     15  C   UNL     1       0.002  -0.004   0.002  0.00  0.00    +0.102 A 
ATOM     16  C   UNL     1      -1.078  -0.805   0.003  0.00  0.00    +0.045 A 
ATOM     17  C   UNL     1      -0.601  -2.136  -0.007  0.00  0.00    +0.047 A 
ATOM     18  C   UNL     1       0.742  -2.069  -0.013  0.00  0.00    +0.125 A 
ATOM     19  O   UNL     1       1.102  -0.775  -0.013  0.00  0.00    -0.463 OA
ENDBRANCH  12  18
ENDBRANCH   1  12
TORSDOF 3
