REMARK  Name = ZINC04384532
REMARK  7 active torsions:
REMARK  status: ('A' for Active; 'I' for Inactive)
REMARK    1  A    between atoms: C_1  and  C_2
REMARK    2  A    between atoms: C_4  and  C_24
REMARK    3  A    between atoms: N_5  and  C_11
REMARK    4  A    between atoms: C_8  and  C_9
REMARK    5  A    between atoms: C_11  and  C_12
REMARK    6  A    between atoms: N_14  and  C_15
REMARK    7  A    between atoms: C_21  and  C_23
REMARK                            x       y       z     vdW  Elec       q    Type
REMARK                         _______ _______ _______ _____ _____    ______ ____
ROOT
ATOM      1  C   UNL     1      -0.005  -4.229  -0.018  0.00  0.00    +0.220 C 
ENDROOT
BRANCH   1   6
ATOM      2  C   UNL     1      -0.018   1.503   0.010  0.00  0.00    +0.045 C 
ATOM      3  C   UNL     1       0.002  -0.004   0.002  0.00  0.00    -0.026 A 
ATOM      4  C   UNL     1      -1.190  -0.729   0.004  0.00  0.00    +0.026 A 
ATOM      5  C   UNL     1      -1.163  -2.086  -0.003  0.00  0.00    +0.020 A 
ATOM      6  N   UNL     1       0.010  -2.764  -0.012  0.00  0.00    -0.303 N 
ATOM      7  C   UNL     1       1.189  -2.114  -0.015  0.00  0.00    +0.270 A 
ATOM      8  O   UNL     1       2.234  -2.742  -0.023  0.00  0.00    -0.266 OA
ATOM      9  C   UNL     1       1.211  -0.695  -0.013  0.00  0.00    +0.119 A 
ATOM     10  C   UNL     1      -2.461  -2.851  -0.001  0.00  0.00    +0.063 C 
BRANCH   9  11
ATOM     11  C   UNL     1       2.455   0.014  -0.021  0.00  0.00    +0.105 C 
ATOM     12  N   UNL     1       3.442   0.577  -0.028  0.00  0.00    -0.191 NA
ENDBRANCH   9  11
ENDBRANCH   1   6
BRANCH   1  13
ATOM     13  C   UNL     1      -0.018  -4.725  -1.441  0.00  0.00    +0.233 C 
ATOM     14  O   UNL     1      -0.014  -3.933  -2.360  0.00  0.00    -0.274 OA
ATOM     15  N   UNL     1      -0.033  -6.049  -1.693  0.00  0.00    -0.311 N 
ATOM     16  H   UNL     1      -0.035  -6.683  -0.959  0.00  0.00    +0.149 HD
BRANCH  15  17
ATOM     17  C   UNL     1      -0.044  -6.532  -3.077  0.00  0.00    +0.076 C 
ATOM     18  C   UNL     1       1.389  -6.596  -3.607  0.00  0.00    +0.022 C 
ATOM     19  C   UNL     1       1.377  -7.099  -5.051  0.00  0.00    +0.002 C 
ATOM     20  C   UNL     1       0.753  -8.495  -5.100  0.00  0.00    +0.000 C 
ATOM     21  C   UNL     1      -0.681  -8.431  -4.570  0.00  0.00    +0.005 C 
ATOM     22  C   UNL     1      -0.669  -7.928  -3.125  0.00  0.00    +0.006 C 
ATOM     23  C   UNL     1      -2.102  -7.864  -2.595  0.00  0.00    +0.009 C 
ENDBRANCH  15  17
ENDBRANCH   1  13
TORSDOF 4
