REMARK  Name = ZINC34856728
REMARK  8 active torsions:
REMARK  status: ('A' for Active; 'I' for Inactive)
REMARK    1  A    between atoms: C_1  and  C_2
REMARK    2  A    between atoms: C_2  and  C_3
REMARK    3  A    between atoms: C_3  and  N_4
REMARK    4  A    between atoms: C_8  and  C_9
REMARK    5  A    between atoms: C_10  and  N_21
REMARK    6  A    between atoms: C_15  and  C_20
REMARK    7  A    between atoms: C_24  and  C_27
REMARK    8  A    between atoms: C_27  and  C_28
REMARK                            x       y       z     vdW  Elec       q    Type
REMARK                         _______ _______ _______ _____ _____    ______ ____
ROOT
ATOM      1  C   UNL     1      -2.289  -4.630   2.921  0.00  0.00    +0.081 A 
ATOM      2  C   UNL     1      -3.030  -5.617   3.614  0.00  0.00    +0.136 A 
ATOM      3  N   UNL     1      -4.030  -5.250   4.402  0.00  0.00    -0.214 NA
ATOM      4  C   UNL     1      -4.361  -3.968   4.562  0.00  0.00    +0.142 A 
ATOM      5  C   UNL     1      -5.432  -3.639   5.412  0.00  0.00    +0.047 A 
ATOM      6  C   UNL     1      -5.777  -2.331   5.582  0.00  0.00    +0.008 A 
ATOM      7  C   UNL     1      -5.061  -1.333   4.907  0.00  0.00    -0.034 A 
ATOM      8  C   UNL     1      -4.034  -1.668   4.094  0.00  0.00    +0.099 A 
ATOM      9  N   UNL     1      -3.680  -2.972   3.918  0.00  0.00    -0.267 N 
ATOM     10  C   UNL     1      -2.646  -3.272   3.103  0.00  0.00    +0.267 A 
ATOM     11  O   UNL     1      -2.032  -2.388   2.530  0.00  0.00    -0.267 OA
ATOM     12  C   UNL     1      -5.436   0.115   5.089  0.00  0.00    +0.045 C 
ENDROOT
BRANCH   1  17
ATOM     13  N   UNL     1       1.832  -3.642   3.592  0.00  0.00    -0.255 N 
ATOM     14  C   UNL     1       0.533  -3.870   3.503  0.00  0.00    +0.258 C 
ATOM     15  O   UNL     1      -0.236  -3.446   4.347  0.00  0.00    -0.269 OA
ATOM     16  C   UNL     1       0.059  -4.623   2.392  0.00  0.00    +0.077 C 
ATOM     17  C   UNL     1      -1.217  -4.990   2.073  0.00  0.00    +0.037 C 
ATOM     18  S   UNL     1       1.587  -4.957   1.528  0.00  0.00    -0.061 S 
ATOM     19  C   UNL     1       2.685  -4.106   2.651  0.00  0.00    +0.121 C 
ATOM     20  S   UNL     1       4.385  -3.926   2.562  0.00  0.00    -0.027 S 
BRANCH  13  21
ATOM     21  C   UNL     1       2.354  -2.870   4.722  0.00  0.00    +0.115 C 
BRANCH  21  23
ATOM     22  C   UNL     1       2.914  -0.577   5.542  0.00  0.00    +0.005 C 
ATOM     23  C   UNL     1       2.369  -1.383   4.361  0.00  0.00    +0.016 C 
ENDBRANCH  21  23
ENDBRANCH  13  21
ENDBRANCH   1  17
BRANCH   2  24
ATOM     24  N   UNL     1      -2.713  -6.950   3.469  0.00  0.00    -0.315 N 
ATOM     25  C   UNL     1      -3.772  -7.960   3.331  0.00  0.00    +0.107 C 
ATOM     26  C   UNL     1      -3.555  -9.048   4.388  0.00  0.00    +0.023 C 
ATOM     27  C   UNL     1      -2.135  -9.604   4.258  0.00  0.00    -0.004 C 
ATOM     28  C   UNL     1      -1.122  -8.483   4.504  0.00  0.00    +0.023 C 
ATOM     29  C   UNL     1      -1.311  -7.388   3.444  0.00  0.00    +0.107 C 
BRANCH  27  30
ATOM     30  C   UNL     1      -1.927 -10.715   5.289  0.00  0.00    +0.038 C 
BRANCH  30  31
ATOM     31  C   UNL     1      -0.574 -11.345   5.081  0.00  0.00    -0.047 A 
ATOM     32  C   UNL     1      -0.437 -12.423   4.226  0.00  0.00    +0.003 A 
ATOM     33  C   UNL     1       0.804 -13.001   4.035  0.00  0.00    +0.000 A 
ATOM     34  C   UNL     1       1.908 -12.502   4.699  0.00  0.00    +0.000 A 
ATOM     35  C   UNL     1       1.772 -11.424   5.554  0.00  0.00    +0.000 A 
ATOM     36  C   UNL     1       0.532 -10.843   5.741  0.00  0.00    +0.003 A 
ENDBRANCH  30  31
ENDBRANCH  27  30
ENDBRANCH   2  24
TORSDOF 6
