REMARK  Name = ZINC25262204
REMARK  6 active torsions:
REMARK  status: ('A' for Active; 'I' for Inactive)
REMARK    1  A    between atoms: C_2  and  C_19
REMARK    2  A    between atoms: N_21  and  N_22
REMARK    3  A    between atoms: N_22  and  C_23
REMARK    4  A    between atoms: C_23  and  N_25
REMARK    5  A    between atoms: N_25  and  C_26
REMARK    6  A    between atoms: C_26  and  C_27
REMARK                            x       y       z     vdW  Elec       q    Type
REMARK                         _______ _______ _______ _____ _____    ______ ____
ROOT
ATOM      1  C   UNL     1      -0.071   3.867  -0.003  0.00  0.00    +0.045 A 
ATOM      2  C   UNL     1       1.154   3.185   0.003  0.00  0.00    +0.058 A 
ATOM      3  C   UNL     1       1.171   1.786   0.001  0.00  0.00    +0.055 A 
ATOM      4  C   UNL     1      -0.013   1.076   0.008  0.00  0.00    +0.046 A 
ATOM      5  C   UNL     1      -1.223   1.758   0.017  0.00  0.00    +0.063 A 
ATOM      6  C   UNL     1      -1.236   3.147  -0.001  0.00  0.00    +0.135 A 
ATOM      7  S   UNL     1      -2.813   3.939  -0.048  0.00  0.00    +0.102 S 
ATOM      8  O   UNL     1      -3.172   4.231   1.296  0.00  0.00    -0.146 OA
ATOM      9  O   UNL     1      -2.750   4.933  -1.062  0.00  0.00    -0.146 OA
ATOM     10  N   UNL     1      -3.849   2.765  -0.583  0.00  0.00    -0.118 NA
ATOM     11  C   UNL     1      -3.558   1.496  -0.478  0.00  0.00    +0.124 C 
ATOM     12  N   UNL     1      -2.434   1.037   0.112  0.00  0.00    -0.286 N 
ATOM     13  C   UNL     1      -2.319  -0.186   0.877  0.00  0.00    +0.112 C 
ATOM     14  C   UNL     1      -3.470  -0.750   1.588  0.00  0.00    +0.019 C 
ATOM     15  C   UNL     1      -4.841  -0.845   1.030  0.00  0.00    +0.002 C 
ATOM     16  C   UNL     1      -5.075  -0.647  -0.440  0.00  0.00    +0.008 C 
ATOM     17  C   UNL     1      -4.554   0.579  -1.045  0.00  0.00    +0.073 C 
ATOM     18 CL   UNL     1       2.686   0.940  -0.011  0.00  0.00    -0.083 Cl
ENDROOT
BRANCH   2  19
ATOM     19  C   UNL     1       2.421   3.940   0.013  0.00  0.00    +0.262 C 
ATOM     20  O   UNL     1       3.482   3.346   0.018  0.00  0.00    -0.269 OA
ATOM     21  N   UNL     1       2.402   5.287   0.015  0.00  0.00    -0.231 N 
ATOM     22  H   UNL     1       1.442   5.824   0.010  0.00  0.00    +0.173 HD
BRANCH  21  23
ATOM     23  N   UNL     1       3.606   6.005   0.024  0.00  0.00    -0.246 N 
ATOM     24  H   UNL     1       4.566   5.468   0.029  0.00  0.00    +0.172 HD
BRANCH  23  25
ATOM     25  C   UNL     1       3.587   7.352   0.026  0.00  0.00    +0.147 C 
ATOM     26  S   UNL     1       5.058   8.229   0.037  0.00  0.00    -0.017 S 
BRANCH  25  27
ATOM     27  N   UNL     1       2.411   8.010   0.020  0.00  0.00    -0.323 N 
ATOM     28  H   UNL     1       1.466   7.447   0.013  0.00  0.00    +0.148 HD
BRANCH  27  29
ATOM     29  C   UNL     1       2.391   9.475   0.022  0.00  0.00    +0.134 C 
BRANCH  29  30
ATOM     30  C   UNL     1       0.941   9.965   0.014  0.00  0.00    +0.135 C 
ATOM     31  C   UNL     1       0.909  11.506   0.017  0.00  0.00    +0.035 C 
ATOM     32  C   UNL     1       0.127  11.871  -1.268  0.00  0.00    +0.031 C 
ATOM     33  C   UNL     1      -0.651  10.562  -1.558  0.00  0.00    +0.160 C 
ATOM     34  O   UNL     1       0.284   9.526  -1.187  0.00  0.00    -0.375 OA
ENDBRANCH  29  30
ENDBRANCH  27  29
ENDBRANCH  25  27
ENDBRANCH  23  25
ENDBRANCH  21  23
ENDBRANCH   2  19
TORSDOF 6
