REMARK  Name = ZINC36007767
REMARK  8 active torsions:
REMARK  status: ('A' for Active; 'I' for Inactive)
REMARK    1  A    between atoms: C_1  and  C_2
REMARK    2  A    between atoms: C_7  and  C_8
REMARK    3  A    between atoms: C_7  and  C_9
REMARK    4  A    between atoms: C_11  and  N_13
REMARK    5  A    between atoms: C_14  and  C_16
REMARK    6  A    between atoms: C_16  and  N_17
REMARK    7  A    between atoms: C_20  and  C_24
REMARK    8  A    between atoms: C_20  and  C_25
REMARK                            x       y       z     vdW  Elec       q    Type
REMARK                         _______ _______ _______ _____ _____    ______ ____
ROOT
ATOM      1  N   UNL     1      -5.907   0.364   1.488  0.00  0.00    -0.215 N 
ATOM      2  C   UNL     1      -6.618   1.142   0.648  0.00  0.00    +0.251 C 
ATOM      3  O   UNL     1      -6.236   2.138   0.072  0.00  0.00    -0.272 OA
ATOM      4  C   UNL     1      -7.995   0.513   0.573  0.00  0.00    +0.135 C 
ATOM      5  N   UNL     1      -7.890  -0.657   1.462  0.00  0.00    -0.281 N 
ATOM      6  C   UNL     1      -6.634  -0.661   1.945  0.00  0.00    +0.310 C 
ATOM      7  O   UNL     1      -6.209  -1.502   2.713  0.00  0.00    -0.252 OA
ATOM      8  C   UNL     1      -9.060   1.485   1.085  0.00  0.00    +0.047 C 
ATOM      9  H   UNL     1      -8.589  -1.300   1.659  0.00  0.00    +0.152 HD
ENDROOT
BRANCH   4  10
ATOM     10  C   UNL     1      -8.304   0.080  -0.837  0.00  0.00    -0.013 A 
ATOM     11  C   UNL     1      -7.753   0.764  -1.905  0.00  0.00    +0.009 A 
ATOM     12  C   UNL     1      -8.035   0.369  -3.200  0.00  0.00    +0.041 A 
ATOM     13  C   UNL     1      -8.868  -0.712  -3.428  0.00  0.00    +0.158 A 
ATOM     14  C   UNL     1      -9.420  -1.398  -2.356  0.00  0.00    +0.159 A 
ATOM     15  C   UNL     1      -9.132  -1.003  -1.061  0.00  0.00    +0.047 A 
ATOM     16  F   UNL     1     -10.234  -2.454  -2.576  0.00  0.00    -0.202 F 
ATOM     17  F   UNL     1      -9.144  -1.098  -4.692  0.00  0.00    -0.202 F 
ENDBRANCH   4  10
BRANCH   1  18
ATOM     18  C   UNL     1      -4.509   0.608   1.851  0.00  0.00    +0.213 C 
BRANCH  18  20
ATOM     19  N   UNL     1      -2.268  -0.017   1.012  0.00  0.00    -0.311 N 
ATOM     20  C   UNL     1      -3.606  -0.100   0.874  0.00  0.00    +0.231 C 
ATOM     21  O   UNL     1      -4.083  -0.745  -0.035  0.00  0.00    -0.274 OA
ATOM     22  H   UNL     1      -1.886   0.499   1.739  0.00  0.00    +0.149 HD
BRANCH  19  32
ATOM     23  C   UNL     1      -0.019   1.526   0.010  0.00  0.00    +0.013 C 
ATOM     24  C   UNL     1       0.002  -0.004   0.002  0.00  0.00    -0.008 C 
ATOM     25  C   UNL     1       0.744  -0.669  -1.197  0.00  0.00    +0.009 C 
ATOM     26  C   UNL     1       1.062  -2.103  -0.714  0.00  0.00    +0.005 C 
ATOM     27  C   UNL     1       0.481  -2.169   0.732  0.00  0.00    -0.003 C 
ATOM     28  C   UNL     1       0.727  -0.695   1.211  0.00  0.00    -0.025 C 
ATOM     29  C   UNL     1       2.216  -0.348   1.260  0.00  0.00    +0.012 C 
ATOM     30  C   UNL     1       0.031  -0.400   2.541  0.00  0.00    +0.012 C 
ATOM     31  C   UNL     1      -1.065  -2.175   0.532  0.00  0.00    +0.027 C 
ATOM     32  C   UNL     1      -1.389  -0.705   0.062  0.00  0.00    +0.080 C 
ENDBRANCH  19  32
ENDBRANCH  18  20
ENDBRANCH   1  18
TORSDOF 4
