REMARK  Name = ZINC41004793
REMARK  10 active torsions:
REMARK  status: ('A' for Active; 'I' for Inactive)
REMARK    1  A    between atoms: C_1  and  C_2
REMARK    2  A    between atoms: C_2  and  S_3
REMARK    3  A    between atoms: S_3  and  C_4
REMARK    4  A    between atoms: C_9  and  C_18
REMARK    5  A    between atoms: C_11  and  C_15
REMARK    6  A    between atoms: C_12  and  C_14
REMARK    7  A    between atoms: C_21  and  O_24
REMARK    8  A    between atoms: O_24  and  C_25
REMARK    9  A    between atoms: C_25  and  C_26
REMARK   10  A    between atoms: C_31  and  C_32
REMARK                            x       y       z     vdW  Elec       q    Type
REMARK                         _______ _______ _______ _____ _____    ______ ____
ROOT
ATOM      1  C   UNL     1       1.208  -2.384   1.080  0.00  0.00    +0.210 A 
ATOM      2  N   UNL     1       0.588  -3.061   0.102  0.00  0.00    -0.187 NA
ATOM      3  C   UNL     1       0.557  -4.331   0.402  0.00  0.00    +0.219 A 
ATOM      4  N   UNL     1       1.163  -4.495   1.603  0.00  0.00    -0.220 N 
ATOM      5  N   UNL     1       1.581  -3.230   2.016  0.00  0.00    -0.141 NA
ATOM      6  C   UNL     1       1.307  -5.788   2.266  0.00  0.00    +0.177 C 
ATOM      7  C   UNL     1       0.964  -6.889   1.297  0.00  0.00    +0.060 C 
ATOM      8  C   UNL     1       0.366  -6.665   0.118  0.00  0.00    +0.018 C 
ATOM      9  N   UNL     1       0.029  -5.403  -0.304  0.00  0.00    -0.287 N 
ATOM     10  C   UNL     1       0.055  -7.839  -0.774  0.00  0.00    +0.061 C 
ATOM     11  H   UNL     1      -0.556  -5.266  -1.066  0.00  0.00    +0.155 HD
ENDROOT
BRANCH   6  12
ATOM     12  C   UNL     1       0.377  -5.853   3.450  0.00  0.00    -0.018 A 
ATOM     13  C   UNL     1      -0.987  -5.728   3.263  0.00  0.00    +0.009 A 
ATOM     14  C   UNL     1      -1.842  -5.787   4.346  0.00  0.00    +0.046 A 
ATOM     15  C   UNL     1      -1.331  -5.971   5.623  0.00  0.00    +0.121 A 
ATOM     16  C   UNL     1       0.038  -6.097   5.807  0.00  0.00    +0.046 A 
ATOM     17  C   UNL     1       0.889  -6.043   4.720  0.00  0.00    +0.009 A 
BRANCH  15  18
ATOM     18  O   UNL     1      -2.170  -6.029   6.690  0.00  0.00    -0.487 OA
BRANCH  18  19
ATOM     19  C   UNL     1      -1.573  -6.221   7.974  0.00  0.00    +0.264 C 
BRANCH  19  20
ATOM     20  C   UNL     1      -2.650  -6.258   9.028  0.00  0.00    -0.007 A 
ATOM     21  C   UNL     1      -3.977  -6.121   8.665  0.00  0.00    +0.007 A 
ATOM     22  C   UNL     1      -4.965  -6.155   9.632  0.00  0.00    +0.000 A 
ATOM     23  C   UNL     1      -4.626  -6.328  10.961  0.00  0.00    +0.000 A 
ATOM     24  C   UNL     1      -3.299  -6.466  11.323  0.00  0.00    +0.004 A 
ATOM     25  C   UNL     1      -2.311  -6.436  10.356  0.00  0.00    -0.044 A 
ATOM     26  C   UNL     1      -0.865  -6.592  10.751  0.00  0.00    +0.044 C 
ENDBRANCH  19  20
ENDBRANCH  18  19
ENDBRANCH  15  18
ENDBRANCH   6  12
BRANCH   7  27
ATOM     27  C   UNL     1       1.288  -8.221   1.647  0.00  0.00    +0.241 C 
ATOM     28  O   UNL     1       2.446  -8.597   1.606  0.00  0.00    -0.271 OA
ATOM     29  N   UNL     1       0.316  -9.073   2.027  0.00  0.00    -0.325 N 
ATOM     30  H   UNL     1      -0.606  -8.774   2.061  0.00  0.00    +0.145 HD
ATOM     31  H   UNL     1       0.538  -9.986   2.268  0.00  0.00    +0.145 HD
ENDBRANCH   7  27
BRANCH   1  32
ATOM     32  S   UNL     1       1.484  -0.644   1.104  0.00  0.00    -0.085 S 
BRANCH  32  34
ATOM     33  C   UNL     1       0.915   1.456  -0.553  0.00  0.00    +0.016 C 
ATOM     34  C   UNL     1       0.743  -0.060  -0.445  0.00  0.00    +0.074 C 
ENDBRANCH  32  34
ENDBRANCH   1  32
TORSDOF 7
