REMARK  Name = ZINC07659233
REMARK  11 active torsions:
REMARK  status: ('A' for Active; 'I' for Inactive)
REMARK    1  A    between atoms: C_1  and  C_2
REMARK    2  A    between atoms: C_2  and  C_3
REMARK    3  A    between atoms: C_2  and  C_4
REMARK    4  A    between atoms: C_2  and  N_5
REMARK    5  A    between atoms: C_6  and  C_8
REMARK    6  A    between atoms: C_8  and  N_9
REMARK    7  A    between atoms: N_9  and  C_10
REMARK    8  A    between atoms: N_9  and  C_11
REMARK    9  A    between atoms: C_11  and  C_12
REMARK   10  A    between atoms: N_14  and  C_15
REMARK   11  A    between atoms: C_16  and  C_24
REMARK                            x       y       z     vdW  Elec       q    Type
REMARK                         _______ _______ _______ _____ _____    ______ ____
ROOT
ATOM      1  C   UNL     1       6.075   0.142  -4.005  0.00  0.00    +0.201 C 
ATOM      2  O   UNL     1       6.471   0.830  -3.088  0.00  0.00    -0.278 OA
ATOM      3  N   UNL     1       6.860  -0.064  -5.080  0.00  0.00    -0.281 N 
ATOM      4  H   UNL     1       6.543  -0.614  -5.814  0.00  0.00    +0.155 HD
ENDROOT
BRANCH   3   5
ATOM      5  C   UNL     1       8.122   0.511  -5.139  0.00  0.00    +0.090 A 
ATOM      6  C   UNL     1       9.055   0.415  -6.158  0.00  0.00    +0.084 A 
ATOM      7  C   UNL     1      10.313   1.117  -5.976  0.00  0.00    -0.018 A 
ATOM      8  C   UNL     1      10.406   1.789  -4.807  0.00  0.00    -0.004 A 
ATOM      9  S   UNL     1       8.864   1.491  -3.994  0.00  0.00    -0.077 S 
ATOM     10  C   UNL     1      11.569   2.603  -4.328  0.00  0.00    +0.043 C 
ATOM     11  C   UNL     1      12.789   2.256  -5.193  0.00  0.00    +0.005 C 
ATOM     12  C   UNL     1      12.380   2.300  -6.668  0.00  0.00    +0.005 C 
ATOM     13  C   UNL     1      11.451   1.126  -6.986  0.00  0.00    +0.037 C 
BRANCH   6  14
ATOM     14  C   UNL     1       8.791  -0.347  -7.341  0.00  0.00    +0.102 C 
ATOM     15  N   UNL     1       8.582  -0.952  -8.280  0.00  0.00    -0.191 NA
ENDBRANCH   6  14
ENDBRANCH   3   5
BRANCH   1  16
ATOM     16  C   UNL     1       4.705  -0.483  -3.941  0.00  0.00    +0.019 C 
BRANCH  16  17
ATOM     17  N   UNL     1       4.055  -0.110  -2.677  0.00  0.00    +0.389 N 
ATOM     18  C   UNL     1       4.800  -0.692  -1.553  0.00  0.00    -0.095 C 
ATOM     19  H   UNL     1       4.043   0.895  -2.589  0.00  0.00    -0.081 HD
BRANCH  17  20
ATOM     20  C   UNL     1       2.677  -0.618  -2.667  0.00  0.00    +0.019 C 
BRANCH  20  22
ATOM     21  N   UNL     1       0.688  -0.476  -1.203  0.00  0.00    -0.312 N 
ATOM     22  C   UNL     1       1.972  -0.132  -1.427  0.00  0.00    +0.197 C 
ATOM     23  O   UNL     1       2.559   0.569  -0.630  0.00  0.00    -0.278 OA
ATOM     24  H   UNL     1       0.218  -1.037  -1.840  0.00  0.00    +0.149 HD
BRANCH  21  26
ATOM     25  C   UNL     1      -0.019   1.526   0.010  0.00  0.00    +0.031 C 
ATOM     26  C   UNL     1       0.002  -0.004   0.002  0.00  0.00    +0.026 C 
ATOM     27  C   UNL     1       0.742  -0.511   1.242  0.00  0.00    +0.031 C 
ATOM     28  C   UNL     1      -1.433  -0.534   0.013  0.00  0.00    +0.031 C 
ENDBRANCH  21  26
ENDBRANCH  20  22
ENDBRANCH  17  20
ENDBRANCH  16  17
ENDBRANCH   1  16
TORSDOF 7
