REMARK  Name = ZINC14120520
REMARK  3 active torsions:
REMARK  status: ('A' for Active; 'I' for Inactive)
REMARK    1  A    between atoms: C_1  and  C_2
REMARK    2  A    between atoms: N_11  and  C_12
REMARK    3  A    between atoms: C_12  and  C_13
REMARK                            x       y       z     vdW  Elec       q    Type
REMARK                         _______ _______ _______ _____ _____    ______ ____
ROOT
ATOM      1  C   UNL     1       4.848   0.587  -1.704  0.00  0.00    -0.007 C 
ATOM      2  C   UNL     1       4.848   1.152  -0.282  0.00  0.00    -0.023 C 
ATOM      3  C   UNL     1       5.967   2.154  -0.132  0.00  0.00    +0.005 A 
ATOM      4  C   UNL     1       7.238   2.046  -0.547  0.00  0.00    +0.021 A 
ATOM      5  C   UNL     1       7.901   3.237  -0.182  0.00  0.00    +0.019 A 
ATOM      6  C   UNL     1       7.003   4.026   0.445  0.00  0.00    +0.086 A 
ATOM      7  N   UNL     1       5.816   3.369   0.482  0.00  0.00    -0.354 N 
ATOM      8  C   UNL     1       4.548   3.825   1.065  0.00  0.00    +0.103 C 
ATOM      9  C   UNL     1       3.633   2.606   1.235  0.00  0.00    -0.055 C 
ATOM     10  N   UNL     1       3.576   1.848  -0.022  0.00  0.00    +0.391 N 
ATOM     11  H   UNL     1       3.409   2.566  -0.839  0.00  0.00    -0.080 HD
ENDROOT
BRANCH  10  12
ATOM     12  C   UNL     1       2.451   0.903  -0.017  0.00  0.00    -0.000 C 
BRANCH  12  13
ATOM     13  C   UNL     1       1.153   1.668   0.000  0.00  0.00    +0.117 A 
ATOM     14  N   UNL     1      -0.011   0.966   0.007  0.00  0.00    -0.195 NA
ATOM     15  C   UNL     1      -1.190   1.634   0.017  0.00  0.00    +0.288 A 
ATOM     16  O   UNL     1      -2.251   1.033   0.018  0.00  0.00    -0.265 OA
ATOM     17  C   UNL     1      -1.155   3.029   0.029  0.00  0.00    +0.104 A 
ATOM     18  C   UNL     1       0.063   3.731   0.022  0.00  0.00    +0.085 A 
ATOM     19  N   UNL     1       1.200   2.961   0.007  0.00  0.00    -0.233 NA
ATOM     20  C   UNL     1      -0.046   5.128   0.031  0.00  0.00    +0.036 A 
ATOM     21  C   UNL     1      -1.263   5.715   0.045  0.00  0.00    +0.048 A 
ATOM     22  S   UNL     1      -2.373   4.317   0.048  0.00  0.00    -0.090 S 
ENDBRANCH  12  13
ENDBRANCH  10  12
TORSDOF 2
