REMARK  Name = ZINC14017991
REMARK  7 active torsions:
REMARK  status: ('A' for Active; 'I' for Inactive)
REMARK    1  A    between atoms: C_1  and  O_2
REMARK    2  A    between atoms: O_2  and  C_3
REMARK    3  A    between atoms: C_6  and  O_32
REMARK    4  A    between atoms: C_13  and  C_15
REMARK    5  A    between atoms: N_20  and  S_22
REMARK    6  A    between atoms: S_22  and  C_25
REMARK    7  A    between atoms: O_32  and  C_33
REMARK                            x       y       z     vdW  Elec       q    Type
REMARK                         _______ _______ _______ _____ _____    ______ ____
ROOT
ATOM      1  C   UNL     1      -6.858  -2.465   6.583  0.00  0.00    +0.147 A 
ATOM      2  C   UNL     1      -7.836  -2.960   7.412  0.00  0.00    +0.051 A 
ATOM      3  C   UNL     1      -7.765  -4.245   7.930  0.00  0.00    +0.050 A 
ATOM      4  C   UNL     1      -6.683  -5.049   7.604  0.00  0.00    +0.136 A 
ATOM      5  C   UNL     1      -5.699  -4.561   6.774  0.00  0.00    +0.086 A 
ATOM      6  C   UNL     1      -5.738  -3.260   6.229  0.00  0.00    +0.125 A 
ATOM      7  N   UNL     1      -4.695  -2.925   5.437  0.00  0.00    -0.221 NA
ATOM      8  C   UNL     1      -3.712  -3.754   5.177  0.00  0.00    +0.166 A 
ATOM      9  S   UNL     1      -4.183  -5.205   6.108  0.00  0.00    -0.048 S 
ATOM     10  N   UNL     1      -2.590  -3.553   4.388  0.00  0.00    -0.264 N 
ATOM     11  C   UNL     1      -2.411  -2.374   3.759  0.00  0.00    +0.223 C 
ATOM     12  O   UNL     1      -3.230  -1.489   3.885  0.00  0.00    -0.275 OA
ATOM     13  H   UNL     1      -1.935  -4.261   4.287  0.00  0.00    +0.157 HD
ENDROOT
BRANCH  11  14
ATOM     14  C   UNL     1      -1.192  -2.156   2.901  0.00  0.00    +0.091 C 
ATOM     15  C   UNL     1       0.069  -2.312   3.755  0.00  0.00    +0.015 C 
ATOM     16  C   UNL     1       1.308  -2.123   2.877  0.00  0.00    +0.018 C 
ATOM     17  C   UNL     1       1.298  -0.716   2.281  0.00  0.00    +0.109 C 
ATOM     18  N   UNL     1       0.024  -0.502   1.581  0.00  0.00    -0.176 NA
ATOM     19  C   UNL     1      -1.230  -0.745   2.307  0.00  0.00    +0.122 C 
BRANCH  18  20
ATOM     20  S   UNL     1       0.002  -0.004   0.002  0.00  0.00    +0.061 S 
ATOM     21  O   UNL     1      -1.243  -0.424  -0.539  0.00  0.00    -0.153 OA
ATOM     22  O   UNL     1       1.248  -0.390  -0.563  0.00  0.00    -0.153 OA
BRANCH  20  23
ATOM     23  C   UNL     1      -0.022   1.758   0.012  0.00  0.00    +0.106 A 
ATOM     24  C   UNL     1      -1.228   2.432   0.021  0.00  0.00    +0.030 A 
ATOM     25  C   UNL     1      -1.248   3.814   0.035  0.00  0.00    +0.022 A 
ATOM     26  C   UNL     1      -0.059   4.523   0.027  0.00  0.00    +0.041 A 
ATOM     27  C   UNL     1       1.148   3.847   0.012  0.00  0.00    +0.022 A 
ATOM     28  C   UNL     1       1.166   2.465   0.004  0.00  0.00    +0.030 A 
ATOM     29 CL   UNL     1      -0.083   6.258   0.036  0.00  0.00    -0.084 Cl
ENDBRANCH  20  23
ENDBRANCH  18  20
ENDBRANCH  11  14
BRANCH   1  31
ATOM     30  C   UNL     1      -8.117  -0.450   6.489  0.00  0.00    +0.277 C 
ATOM     31  O   UNL     1      -6.966  -1.200   6.096  0.00  0.00    -0.493 OA
ENDBRANCH   1  31
BRANCH   4  32
ATOM     32  O   UNL     1      -6.595  -6.312   8.101  0.00  0.00    -0.494 OA
ATOM     33  C   UNL     1      -7.654  -6.749   8.956  0.00  0.00    +0.277 C 
ENDBRANCH   4  32
TORSDOF 5
