REMARK  Name = ZINC01244455
REMARK  2 active torsions:
REMARK  status: ('A' for Active; 'I' for Inactive)
REMARK    1  A    between atoms: C_7  and  O_26
REMARK    2  A    between atoms: C_12  and  N_50
REMARK                            x       y       z     vdW  Elec       q    Type
REMARK                         _______ _______ _______ _____ _____    ______ ____
ROOT
ATOM      1  C   UNL     1      -0.552   0.650  -0.021  0.00  0.00    +0.001 A 
ATOM      2  C   UNL     1       0.780   0.241  -0.038  0.00  0.00    +0.001 A 
ATOM      3  C   UNL     1       1.792   1.151  -0.036  0.00  0.00    +0.012 A 
ATOM      4  C   UNL     1       1.493   2.523  -0.013  0.00  0.00    +0.027 A 
ATOM      5  C   UNL     1       0.140   2.940   0.011  0.00  0.00    +0.027 A 
ATOM      6  C   UNL     1      -0.879   1.972   0.009  0.00  0.00    +0.012 A 
ATOM      7  C   UNL     1      -0.164   4.316   0.037  0.00  0.00    +0.125 A 
ATOM      8  C   UNL     1       0.854   5.228   0.036  0.00  0.00    +0.053 A 
ATOM      9  C   UNL     1       2.179   4.817   0.009  0.00  0.00    +0.004 A 
ATOM     10  C   UNL     1       2.523   3.491  -0.017  0.00  0.00    +0.131 A 
ATOM     11  O   UNL     1       3.880   3.327  -0.050  0.00  0.00    -0.492 OA
ATOM     12  C   UNL     1       4.443   4.541  -0.552  0.00  0.00    +0.166 C 
ATOM     13  C   UNL     1       3.485   5.611   0.003  0.00  0.00    +0.058 C 
ATOM     14  C   UNL     1       3.818   5.908   1.468  0.00  0.00    +0.012 C 
ATOM     15  C   UNL     1       4.767   7.096   1.585  0.00  0.00    +0.019 C 
ATOM     16  C   UNL     1       5.622   7.165   0.315  0.00  0.00    +0.104 C 
ATOM     17  N   UNL     1       6.372   5.926   0.174  0.00  0.00    -0.314 N 
ATOM     18  C   UNL     1       5.860   4.760  -0.174  0.00  0.00    +0.240 C 
ATOM     19  O   UNL     1       6.601   3.800  -0.186  0.00  0.00    -0.274 OA
ATOM     20  H   UNL     1       7.326   5.960   0.350  0.00  0.00    +0.149 HD
ENDROOT
BRANCH  12  26
ATOM     21  C   UNL     1       5.145   3.439  -2.590  0.00  0.00    -0.072 C 
ATOM     22  C   UNL     1       4.914   3.376  -4.101  0.00  0.00    -0.018 C 
ATOM     23  C   UNL     1       5.325   4.709  -4.732  0.00  0.00    -0.004 C 
ATOM     24  C   UNL     1       4.521   5.840  -4.085  0.00  0.00    -0.018 C 
ATOM     25  C   UNL     1       4.764   5.833  -2.574  0.00  0.00    -0.072 C 
ATOM     26  N   UNL     1       4.325   4.532  -2.024  0.00  0.00    +0.412 N 
ATOM     27  H   UNL     1       3.343   4.378  -2.279  0.00  0.00    -0.075 HD
ENDBRANCH  12  26
BRANCH   7  28
ATOM     28  O   UNL     1      -1.458   4.732   0.063  0.00  0.00    -0.506 OA
ATOM     29  H   UNL     1      -1.819   4.839   0.954  0.00  0.00    +0.292 HD
ENDBRANCH   7  28
TORSDOF 2
