REMARK  Name = ZINC16567881
REMARK  12 active torsions:
REMARK  status: ('A' for Active; 'I' for Inactive)
REMARK    1  A    between atoms: C_1  and  C_2
REMARK    2  A    between atoms: C_6  and  C_8
REMARK    3  A    between atoms: C_8  and  S_9
REMARK    4  A    between atoms: S_9  and  C_10
REMARK    5  A    between atoms: C_13  and  C_24
REMARK    6  A    between atoms: N_14  and  C_15
REMARK    7  A    between atoms: C_18  and  N_21
REMARK    8  A    between atoms: C_24  and  C_26
REMARK    9  A    between atoms: C_24  and  N_27
REMARK   10  A    between atoms: N_30  and  C_31
REMARK   11  A    between atoms: C_35  and  C_38
REMARK   12  A    between atoms: C_36  and  C_37
REMARK                            x       y       z     vdW  Elec       q    Type
REMARK                         _______ _______ _______ _____ _____    ______ ____
ROOT
ATOM      1  C   UNL     1      -0.073   7.679  -1.402  0.00  0.00    +0.196 A 
ATOM      2  N   UNL     1      -0.075   8.263  -0.227  0.00  0.00    -0.122 NA
ATOM      3  N   UNL     1      -0.098   9.540  -0.372  0.00  0.00    -0.131 NA
ATOM      4  C   UNL     1      -0.121   9.847  -1.638  0.00  0.00    +0.159 A 
ATOM      5  N   UNL     1      -0.106   8.672  -2.342  0.00  0.00    -0.273 N 
ENDROOT
BRANCH   5   6
ATOM      6  C   UNL     1      -0.122   8.519  -3.737  0.00  0.00    +0.050 A 
ATOM      7  C   UNL     1       0.945   8.975  -4.498  0.00  0.00    +0.028 A 
ATOM      8  C   UNL     1       0.929   8.819  -5.871  0.00  0.00    +0.035 A 
ATOM      9  C   UNL     1      -0.154   8.218  -6.487  0.00  0.00    +0.126 A 
ATOM     10  C   UNL     1      -1.220   7.768  -5.731  0.00  0.00    +0.035 A 
ATOM     11  C   UNL     1      -1.207   7.917  -4.358  0.00  0.00    +0.028 A 
BRANCH   9  12
ATOM     12  N   UNL     1      -0.171   8.057  -7.958  0.00  0.00    +0.056 N 
ATOM     13  O   UNL     1      -1.124   7.529  -8.502  0.00  0.00    -0.126 OA
ATOM     14  O   UNL     1       0.768   8.454  -8.625  0.00  0.00    -0.126 OA
ENDBRANCH   9  12
ENDBRANCH   5   6
BRANCH   4  15
ATOM     15  C   UNL     1      -0.157  11.236  -2.220  0.00  0.00    +0.140 C 
ATOM     16  C   UNL     1      -1.560  11.822  -2.054  0.00  0.00    +0.036 C 
BRANCH  15  17
ATOM     17  N   UNL     1       0.812  12.084  -1.520  0.00  0.00    -0.290 N 
ATOM     18  C   UNL     1       1.331  13.164  -2.137  0.00  0.00    +0.304 C 
ATOM     19  O   UNL     1       0.995  13.436  -3.273  0.00  0.00    -0.252 OA
ATOM     20  N   UNL     1       2.222  13.944  -1.493  0.00  0.00    -0.269 N 
ATOM     21  H   UNL     1       1.081  11.867  -0.614  0.00  0.00    +0.151 HD
ATOM     22  H   UNL     1       2.429  13.776  -0.560  0.00  0.00    +0.156 HD
BRANCH  20  23
ATOM     23  C   UNL     1       2.849  14.996  -2.170  0.00  0.00    +0.038 A 
ATOM     24  C   UNL     1       2.982  14.953  -3.552  0.00  0.00    +0.023 A 
ATOM     25  C   UNL     1       3.601  15.992  -4.218  0.00  0.00    +0.002 A 
ATOM     26  C   UNL     1       4.089  17.076  -3.510  0.00  0.00    +0.004 A 
ATOM     27  C   UNL     1       3.958  17.122  -2.134  0.00  0.00    -0.046 A 
ATOM     28  C   UNL     1       3.335  16.088  -1.463  0.00  0.00    -0.026 A 
ATOM     29  C   UNL     1       3.187  16.142   0.036  0.00  0.00    +0.046 C 
ATOM     30  C   UNL     1       4.491  18.304  -1.366  0.00  0.00    +0.044 C 
ENDBRANCH  20  23
ENDBRANCH  15  17
ENDBRANCH   4  15
BRANCH   1  31
ATOM     31  S   UNL     1      -0.042   5.944  -1.711  0.00  0.00    -0.081 S 
BRANCH  31  32
ATOM     32  C   UNL     1      -0.007   5.323  -0.011  0.00  0.00    +0.112 C 
BRANCH  32  38
ATOM     33  C   UNL     1      -2.421   0.939  -0.037  0.00  0.00    +0.044 C 
ATOM     34  C   UNL     1      -1.131   1.719  -0.040  0.00  0.00    -0.050 A 
ATOM     35  C   UNL     1       0.080   1.053  -0.058  0.00  0.00    +0.003 A 
ATOM     36  C   UNL     1       1.263   1.768  -0.066  0.00  0.00    +0.001 A 
ATOM     37  C   UNL     1       1.235   3.150  -0.050  0.00  0.00    +0.004 A 
ATOM     38  C   UNL     1       0.024   3.817  -0.027  0.00  0.00    -0.037 A 
ATOM     39  C   UNL     1      -1.159   3.101  -0.019  0.00  0.00    +0.007 A 
ENDBRANCH  32  38
ENDBRANCH  31  32
ENDBRANCH   1  31
TORSDOF 8
