REMARK  Name = ZINC12489387
REMARK  10 active torsions:
REMARK  status: ('A' for Active; 'I' for Inactive)
REMARK    1  A    between atoms: C_1  and  C_2
REMARK    2  A    between atoms: C_2  and  C_3
REMARK    3  A    between atoms: C_2  and  C_4
REMARK    4  A    between atoms: C_7  and  O_11
REMARK    5  A    between atoms: O_11  and  C_12
REMARK    6  A    between atoms: C_12  and  C_13
REMARK    7  A    between atoms: N_15  and  N_16
REMARK    8  A    between atoms: N_16  and  C_17
REMARK    9  A    between atoms: C_17  and  N_19
REMARK   10  A    between atoms: C_20  and  C_22
REMARK                            x       y       z     vdW  Elec       q    Type
REMARK                         _______ _______ _______ _____ _____    ______ ____
ROOT
ATOM      1  C   UNL     1       2.911  -2.008  -7.008  0.00  0.00    +0.267 C 
ATOM      2  O   UNL     1       3.885  -2.683  -6.753  0.00  0.00    -0.271 OA
ATOM      3  N   UNL     1       2.572  -1.772  -8.291  0.00  0.00    -0.232 N 
ATOM      4  H   UNL     1       1.792  -1.232  -8.495  0.00  0.00    +0.173 HD
ENDROOT
BRANCH   3   5
ATOM      5  N   UNL     1       3.345  -2.306  -9.330  0.00  0.00    -0.245 N 
ATOM      6  H   UNL     1       4.124  -2.846  -9.126  0.00  0.00    +0.172 HD
BRANCH   5   7
ATOM      7  C   UNL     1       3.006  -2.070 -10.613  0.00  0.00    +0.153 C 
ATOM      8  S   UNL     1       3.951  -2.723 -11.882  0.00  0.00    -0.017 S 
BRANCH   7   9
ATOM      9  N   UNL     1       1.923  -1.319 -10.896  0.00  0.00    -0.263 N 
ATOM     10  C   UNL     1       1.584  -1.083 -12.179  0.00  0.00    +0.250 C 
ATOM     11  O   UNL     1       2.255  -1.546 -13.080  0.00  0.00    -0.270 OA
ATOM     12  H   UNL     1       1.388  -0.949 -10.177  0.00  0.00    +0.157 HD
BRANCH  10  13
ATOM     13  C   UNL     1       0.397  -0.260 -12.490  0.00  0.00    +0.037 A 
ATOM     14  C   UNL     1      -0.373   0.279 -11.457  0.00  0.00    +0.013 A 
ATOM     15  C   UNL     1      -1.480   1.046 -11.754  0.00  0.00    +0.001 A 
ATOM     16  C   UNL     1      -1.829   1.282 -13.072  0.00  0.00    +0.000 A 
ATOM     17  C   UNL     1      -1.071   0.751 -14.101  0.00  0.00    +0.001 A 
ATOM     18  C   UNL     1       0.043  -0.013 -13.818  0.00  0.00    +0.013 A 
ENDBRANCH  10  13
ENDBRANCH   7   9
ENDBRANCH   5   7
ENDBRANCH   3   5
BRANCH   1  19
ATOM     19  C   UNL     1       2.079  -1.433  -5.891  0.00  0.00    +0.326 C 
BRANCH  19  20
ATOM     20  O   UNL     1       2.637  -1.821  -4.634  0.00  0.00    -0.482 OA
BRANCH  20  24
ATOM     21  C   UNL     1       0.707  -0.490  -1.238  0.00  0.00    -0.044 A 
ATOM     22  C   UNL     1       0.221  -0.150  -2.487  0.00  0.00    +0.007 A 
ATOM     23  C   UNL     1       0.865  -0.595  -3.625  0.00  0.00    +0.047 A 
ATOM     24  C   UNL     1       2.002  -1.382  -3.515  0.00  0.00    +0.135 A 
ATOM     25  C   UNL     1       2.489  -1.722  -2.260  0.00  0.00    +0.060 A 
ATOM     26  C   UNL     1       1.843  -1.270  -1.125  0.00  0.00    +0.022 A 
ATOM     27 BR   UNL     1       4.037  -2.796  -2.105  0.00  0.00    -0.047 Br
BRANCH  21  29
ATOM     28  C   UNL     1      -0.019   1.526   0.010  0.00  0.00    +0.012 C 
ATOM     29  C   UNL     1       0.002  -0.004   0.002  0.00  0.00    +0.013 C 
ATOM     30  C   UNL     1      -1.433  -0.534   0.013  0.00  0.00    +0.012 C 
ENDBRANCH  21  29
ENDBRANCH  20  24
ENDBRANCH  19  20
ENDBRANCH   1  19
TORSDOF 8
