REMARK  Name = ZINC64391869
REMARK  6 active torsions:
REMARK  status: ('A' for Active; 'I' for Inactive)
REMARK    1  A    between atoms: C_1  and  C_2
REMARK    2  A    between atoms: C_2  and  C_4
REMARK    3  A    between atoms: C_2  and  N_14
REMARK    4  A    between atoms: C_15  and  C_17
REMARK    5  A    between atoms: C_17  and  C_18
REMARK    6  A    between atoms: C_18  and  C_19
REMARK                            x       y       z     vdW  Elec       q    Type
REMARK                         _______ _______ _______ _____ _____    ______ ____
ROOT
ATOM      1  C   UNL     1       0.780  -1.133   3.576  0.00  0.00    +0.103 C 
ENDROOT
BRANCH   1   3
ATOM      2  N   UNL     1       0.711  -0.489   1.189  0.00  0.00    -0.309 N 
ATOM      3  C   UNL     1       0.051  -0.633   2.355  0.00  0.00    +0.214 C 
ATOM      4  O   UNL     1      -1.129  -0.361   2.423  0.00  0.00    -0.276 OA
ATOM      5  H   UNL     1       1.654  -0.707   1.135  0.00  0.00    +0.149 HD
BRANCH   2   7
ATOM      6  C   UNL     1      -0.019   1.526   0.010  0.00  0.00    +0.033 C 
ATOM      7  C   UNL     1       0.002  -0.004   0.002  0.00  0.00    +0.100 C 
BRANCH   7   8
ATOM      8  C   UNL     1       0.707  -0.490  -1.238  0.00  0.00    -0.024 A 
ATOM      9  C   UNL     1       2.089  -0.510  -1.283  0.00  0.00    +0.009 A 
ATOM     10  C   UNL     1       2.740  -0.954  -2.418  0.00  0.00    +0.050 A 
ATOM     11  C   UNL     1       2.007  -1.381  -3.517  0.00  0.00    +0.162 A 
ATOM     12  C   UNL     1       0.619  -1.363  -3.471  0.00  0.00    +0.162 A 
ATOM     13  C   UNL     1      -0.028  -0.920  -2.326  0.00  0.00    +0.055 A 
ATOM     14  O   UNL     1      -0.119  -1.784  -4.534  0.00  0.00    -0.485 OA
ATOM     15  C   UNL     1       0.559  -1.874  -5.792  0.00  0.00    +0.270 C 
ATOM     16  C   UNL     1       1.901  -2.582  -5.566  0.00  0.00    +0.270 C 
ATOM     17  O   UNL     1       2.662  -1.811  -4.629  0.00  0.00    -0.485 OA
ENDBRANCH   7   8
ENDBRANCH   2   7
ENDBRANCH   1   3
BRANCH   1  18
ATOM     18  C   UNL     1      -0.191  -1.204   4.756  0.00  0.00    +0.083 C 
BRANCH  18  19
ATOM     19  C   UNL     1       0.538  -1.703   5.977  0.00  0.00    +0.124 C 
ATOM     20  N   UNL     1       1.815  -1.982   5.867  0.00  0.00    -0.161 NA
ATOM     21  C   UNL     1       2.550  -2.425   6.894  0.00  0.00    +0.271 C 
ATOM     22  O   UNL     1       3.734  -2.681   6.758  0.00  0.00    -0.268 OA
ATOM     23  C   UNL     1       1.869  -2.596   8.213  0.00  0.00    +0.071 C 
ATOM     24  C   UNL     1       2.474  -2.922   9.412  0.00  0.00    -0.042 C 
ATOM     25  C   UNL     1       3.965  -2.802   9.422  0.00  0.00    +0.033 C 
ATOM     26  C   UNL     1       4.387  -1.390   9.846  0.00  0.00    +0.004 C 
ATOM     27  C   UNL     1       3.903  -1.172  11.247  0.00  0.00    +0.000 C 
ATOM     28  C   UNL     1       2.409  -1.137  11.435  0.00  0.00    +0.001 C 
ATOM     29  C   UNL     1       1.881  -2.512  11.806  0.00  0.00    +0.019 C 
ATOM     30  C   UNL     1       1.487  -3.221  10.493  0.00  0.00    +0.079 C 
ATOM     31  S   UNL     1      -0.105  -2.593   9.860  0.00  0.00    -0.097 S 
ATOM     32  C   UNL     1       0.435  -2.264   8.201  0.00  0.00    +0.111 C 
ATOM     33  N   UNL     1      -0.144  -1.832   7.106  0.00  0.00    -0.227 NA
ENDBRANCH  18  19
ENDBRANCH   1  18
TORSDOF 5
