REMARK  Name = ZINC45824657
REMARK  11 active torsions:
REMARK  status: ('A' for Active; 'I' for Inactive)
REMARK    1  A    between atoms: C_1  and  C_2
REMARK    2  A    between atoms: C_2  and  C_3
REMARK    3  A    between atoms: C_3  and  C_28
REMARK    4  A    between atoms: N_6  and  C_10
REMARK    5  A    between atoms: C_10  and  C_11
REMARK    6  A    between atoms: N_13  and  N_14
REMARK    7  A    between atoms: C_15  and  C_17
REMARK    8  A    between atoms: C_17  and  C_19
REMARK    9  A    between atoms: C_17  and  O_20
REMARK   10  A    between atoms: O_20  and  C_21
REMARK   11  A    between atoms: C_28  and  C_29
REMARK                            x       y       z     vdW  Elec       q    Type
REMARK                         _______ _______ _______ _____ _____    ______ ____
ROOT
ATOM      1  C   UNL     1       4.142   1.150  -3.986  0.00  0.00    +0.247 C 
ATOM      2  O   UNL     1       3.590   0.132  -4.348  0.00  0.00    -0.273 OA
ATOM      3  N   UNL     1       5.392   1.425  -4.410  0.00  0.00    -0.233 N 
ATOM      4  H   UNL     1       5.833   2.239  -4.120  0.00  0.00    +0.173 HD
ENDROOT
BRANCH   3   5
ATOM      5  N   UNL     1       6.053   0.537  -5.268  0.00  0.00    -0.231 N 
ATOM      6  C   UNL     1       7.302   0.813  -5.691  0.00  0.00    +0.270 C 
ATOM      7  O   UNL     1       7.854   1.830  -5.330  0.00  0.00    -0.270 OA
ATOM      8  H   UNL     1       5.611  -0.277  -5.557  0.00  0.00    +0.173 HD
BRANCH   6   9
ATOM      9  C   UNL     1       8.013  -0.143  -6.615  0.00  0.00    +0.257 C 
ATOM     10  C   UNL     1       8.257  -1.467  -5.888  0.00  0.00    +0.062 C 
BRANCH   9  11
ATOM     11  O   UNL     1       9.265   0.420  -7.012  0.00  0.00    -0.480 OA
BRANCH  11  12
ATOM     12  C   UNL     1       9.790  -0.011  -8.189  0.00  0.00    +0.123 A 
ATOM     13  C   UNL     1       9.170  -1.033  -8.893  0.00  0.00    +0.046 A 
ATOM     14  C   UNL     1       9.705  -1.470 -10.089  0.00  0.00    +0.005 A 
ATOM     15  C   UNL     1      10.857  -0.889 -10.585  0.00  0.00    +0.015 A 
ATOM     16  C   UNL     1      11.478   0.130  -9.886  0.00  0.00    +0.021 A 
ATOM     17  C   UNL     1      10.942   0.575  -8.691  0.00  0.00    +0.061 A 
ATOM     18 BR   UNL     1      13.054   0.921 -10.567  0.00  0.00    -0.050 Br
ENDBRANCH  11  12
ENDBRANCH   9  11
ENDBRANCH   6   9
ENDBRANCH   3   5
BRANCH   1  19
ATOM     19  C   UNL     1       3.432   2.106  -3.063  0.00  0.00    +0.215 C 
BRANCH  19  23
ATOM     20  C   UNL     1       0.340   0.494  -1.782  0.00  0.00    +0.112 C 
ATOM     21  C   UNL     1       1.828   0.773  -1.708  0.00  0.00    +0.247 C 
ATOM     22  O   UNL     1       2.612   0.354  -0.884  0.00  0.00    -0.273 OA
ATOM     23  N   UNL     1       2.099   1.583  -2.751  0.00  0.00    -0.215 N 
ATOM     24  C   UNL     1       1.000   1.852  -3.465  0.00  0.00    +0.310 C 
ATOM     25  O   UNL     1       0.993   2.560  -4.453  0.00  0.00    -0.252 OA
ATOM     26  N   UNL     1      -0.096   1.250  -2.968  0.00  0.00    -0.285 N 
ATOM     27  H   UNL     1      -0.997   1.304  -3.323  0.00  0.00    +0.151 HD
BRANCH  20  29
ATOM     28  C   UNL     1      -0.148   2.517  -0.400  0.00  0.00    +0.006 C 
ATOM     29  C   UNL     1      -0.366   1.008  -0.526  0.00  0.00    +0.032 C 
ENDBRANCH  20  29
BRANCH  20  30
ATOM     30  C   UNL     1       0.078  -1.002  -1.970  0.00  0.00    +0.032 C 
ATOM     31  C   UNL     1       0.795  -1.490  -3.231  0.00  0.00    +0.006 C 
ENDBRANCH  20  30
ENDBRANCH  19  23
ENDBRANCH   1  19
TORSDOF 8
