REMARK  Name = ZINC14943920
REMARK  14 active torsions:
REMARK  status: ('A' for Active; 'I' for Inactive)
REMARK    1  A    between atoms: C_1  and  C_2
REMARK    2  A    between atoms: C_2  and  C_3
REMARK    3  A    between atoms: C_6  and  C_9
REMARK    4  A    between atoms: C_11  and  C_32
REMARK    5  A    between atoms: N_14  and  O_15
REMARK    6  A    between atoms: C_17  and  C_30
REMARK    7  A    between atoms: C_17  and  O_31
REMARK    8  A    between atoms: C_18  and  C_20
REMARK    9  A    between atoms: C_20  and  O_22
REMARK   10  A    between atoms: O_22  and  C_23
REMARK   11  A    between atoms: C_23  and  C_24
REMARK   12  A    between atoms: C_32  and  O_34
REMARK   13  A    between atoms: O_34  and  C_35
REMARK   14  A    between atoms: C_35  and  C_36
REMARK                            x       y       z     vdW  Elec       q    Type
REMARK                         _______ _______ _______ _____ _____    ______ ____
ROOT
ATOM      1  C   UNL     1       3.164  -1.093  -3.999  0.00  0.00    +0.055 C 
ATOM      2  C   UNL     1       3.722  -2.492  -3.719  0.00  0.00    +0.154 C 
ATOM      3  C   UNL     1       5.232  -2.426  -3.763  0.00  0.00    +0.074 C 
ATOM      4  N   UNL     1       5.938  -2.893  -2.803  0.00  0.00    -0.096 NA
ATOM      5  C   UNL     1       5.887  -1.792  -4.971  0.00  0.00    +0.090 C 
ATOM      6  C   UNL     1       5.251  -0.419  -5.205  0.00  0.00    +0.082 C 
ATOM      7  C   UNL     1       3.733  -0.574  -5.320  0.00  0.00    +0.138 C 
ATOM      8  C   UNL     1       5.582   0.505  -4.031  0.00  0.00    +0.042 C 
ENDROOT
BRANCH   1  12
ATOM      9  C   UNL     1       4.282   1.548  -0.833  0.00  0.00    -0.048 A 
ATOM     10  C   UNL     1       4.949   0.348  -1.000  0.00  0.00    +0.004 A 
ATOM     11  C   UNL     1       4.586  -0.506  -2.025  0.00  0.00    +0.004 A 
ATOM     12  C   UNL     1       3.558  -0.162  -2.882  0.00  0.00    -0.042 A 
ATOM     13  C   UNL     1       2.892   1.038  -2.714  0.00  0.00    +0.004 A 
ATOM     14  C   UNL     1       3.251   1.891  -1.687  0.00  0.00    +0.004 A 
BRANCH   9  16
ATOM     15  C   UNL     1       3.869   2.143   1.538  0.00  0.00    +0.009 C 
ATOM     16  C   UNL     1       4.677   2.480   0.283  0.00  0.00    +0.032 C 
ENDBRANCH   9  16
ENDBRANCH   1  12
BRANCH   4  17
ATOM     17  O   UNL     1       5.319  -3.620  -1.758  0.00  0.00    -0.409 OA
ATOM     18  H   UNL     1       5.933  -3.933  -1.079  0.00  0.00    +0.328 HD
ENDBRANCH   4  17
BRANCH   7  19
ATOM     19  C   UNL     1       3.115   0.762  -5.642  0.00  0.00    +0.314 C 
ATOM     20  O   UNL     1       1.924   0.923  -5.516  0.00  0.00    -0.250 OA
BRANCH  19  21
ATOM     21  O   UNL     1       3.888   1.774  -6.067  0.00  0.00    -0.460 OA
BRANCH  21  22
ATOM     22  C   UNL     1       3.235   3.013  -6.354  0.00  0.00    +0.267 C 
BRANCH  22  23
ATOM     23  C   UNL     1       4.254   4.022  -6.815  0.00  0.00    -0.010 A 
ATOM     24  C   UNL     1       4.892   4.831  -5.893  0.00  0.00    +0.007 A 
ATOM     25  C   UNL     1       5.827   5.758  -6.316  0.00  0.00    +0.000 A 
ATOM     26  C   UNL     1       6.123   5.875  -7.662  0.00  0.00    +0.000 A 
ATOM     27  C   UNL     1       5.486   5.066  -8.583  0.00  0.00    +0.000 A 
ATOM     28  C   UNL     1       4.554   4.136  -8.159  0.00  0.00    +0.007 A 
ENDBRANCH  22  23
ENDBRANCH  21  22
ENDBRANCH  19  21
ENDBRANCH   7  19
BRANCH   6  29
ATOM     29  O   UNL     1       5.765   0.144  -6.414  0.00  0.00    -0.388 OA
ATOM     30  H   UNL     1       6.724   0.271  -6.412  0.00  0.00    +0.210 HD
ENDBRANCH   6  29
BRANCH   2  31
ATOM     31  C   UNL     1       3.271  -2.953  -2.356  0.00  0.00    +0.317 C 
ATOM     32  O   UNL     1       3.008  -2.142  -1.501  0.00  0.00    -0.250 OA
BRANCH  31  33
ATOM     33  O   UNL     1       3.163  -4.265  -2.094  0.00  0.00    -0.459 OA
BRANCH  33  34
ATOM     34  C   UNL     1       2.731  -4.630  -0.781  0.00  0.00    +0.267 C 
BRANCH  34  35
ATOM     35  C   UNL     1       2.669  -6.132  -0.673  0.00  0.00    -0.010 A 
ATOM     36  C   UNL     1       1.504  -6.802  -0.998  0.00  0.00    +0.007 A 
ATOM     37  C   UNL     1       1.448  -8.179  -0.898  0.00  0.00    +0.000 A 
ATOM     38  C   UNL     1       2.557  -8.887  -0.474  0.00  0.00    +0.000 A 
ATOM     39  C   UNL     1       3.722  -8.218  -0.149  0.00  0.00    +0.000 A 
ATOM     40  C   UNL     1       3.779  -6.841  -0.253  0.00  0.00    +0.007 A 
ENDBRANCH  34  35
ENDBRANCH  33  34
ENDBRANCH  31  33
ENDBRANCH   2  31
TORSDOF 12
