REMARK  Name = ZINC02843223
REMARK  10 active torsions:
REMARK  status: ('A' for Active; 'I' for Inactive)
REMARK    1  A    between atoms: C_1  and  C_2
REMARK    2  A    between atoms: C_9  and  C_11
REMARK    3  A    between atoms: C_14  and  N_18
REMARK    4  A    between atoms: C_16  and  O_17
REMARK    5  A    between atoms: N_18  and  C_19
REMARK    6  A    between atoms: C_19  and  N_21
REMARK    7  A    between atoms: C_22  and  C_24
REMARK    8  A    between atoms: C_24  and  O_25
REMARK    9  A    between atoms: O_25  and  C_26
REMARK   10  A    between atoms: C_31  and  C_32
REMARK                            x       y       z     vdW  Elec       q    Type
REMARK                         _______ _______ _______ _____ _____    ______ ____
ROOT
ATOM      1  C   UNL     1       0.111  -5.523   2.293  0.00  0.00    +0.078 A 
ATOM      2  C   UNL     1       0.501  -5.546   3.635  0.00  0.00    +0.018 A 
ATOM      3  C   UNL     1       0.511  -6.736   4.327  0.00  0.00    +0.024 A 
ATOM      4  C   UNL     1       0.134  -7.918   3.696  0.00  0.00    +0.036 A 
ATOM      5  C   UNL     1      -0.255  -7.904   2.362  0.00  0.00    +0.069 A 
ATOM      6  C   UNL     1      -0.274  -6.713   1.659  0.00  0.00    +0.131 A 
ENDROOT
BRANCH   1  15
ATOM      7  C   UNL     1       0.523   1.419  -0.174  0.00  0.00    +0.044 C 
ATOM      8  C   UNL     1       0.290  -0.069  -0.130  0.00  0.00    -0.048 A 
ATOM      9  C   UNL     1      -0.157  -0.730  -1.264  0.00  0.00    +0.007 A 
ATOM     10  C   UNL     1      -0.374  -2.093  -1.240  0.00  0.00    +0.049 A 
ATOM     11  C   UNL     1      -0.146  -2.808  -0.076  0.00  0.00    +0.156 A 
ATOM     12  C   UNL     1       0.307  -2.143   1.075  0.00  0.00    +0.110 A 
ATOM     13  C   UNL     1       0.528  -0.765   1.034  0.00  0.00    +0.035 A 
ATOM     14  N   UNL     1       0.439  -3.086   2.044  0.00  0.00    -0.209 NA
ATOM     15  C   UNL     1       0.099  -4.250   1.548  0.00  0.00    +0.232 A 
ATOM     16  O   UNL     1      -0.262  -4.114   0.258  0.00  0.00    -0.435 OA
ENDBRANCH   1  15
BRANCH   6  17
ATOM     17  O   UNL     1      -0.659  -6.697   0.357  0.00  0.00    -0.506 OA
ATOM     18  H   UNL     1       0.066  -6.830  -0.269  0.00  0.00    +0.292 HD
ENDBRANCH   6  17
BRANCH   4  19
ATOM     19  N   UNL     1       0.146  -9.120   4.404  0.00  0.00    -0.296 N 
ATOM     20  H   UNL     1       0.907  -9.346   4.962  0.00  0.00    +0.154 HD
BRANCH  19  21
ATOM     21  C   UNL     1      -0.898  -9.967   4.314  0.00  0.00    +0.141 C 
ATOM     22  S   UNL     1      -2.191  -9.620   3.247  0.00  0.00    -0.018 S 
BRANCH  21  23
ATOM     23  N   UNL     1      -0.924 -11.087   5.063  0.00  0.00    -0.265 N 
ATOM     24  C   UNL     1      -1.969 -11.934   4.972  0.00  0.00    +0.256 C 
ATOM     25  O   UNL     1      -2.885 -11.688   4.216  0.00  0.00    -0.272 OA
ATOM     26  H   UNL     1      -0.192 -11.283   5.667  0.00  0.00    +0.157 HD
BRANCH  24  27
ATOM     27  C   UNL     1      -1.999 -13.186   5.810  0.00  0.00    +0.325 C 
BRANCH  27  28
ATOM     28  O   UNL     1      -3.198 -13.913   5.537  0.00  0.00    -0.482 OA
BRANCH  28  29
ATOM     29  C   UNL     1      -3.382 -15.076   6.215  0.00  0.00    +0.124 A 
ATOM     30  C   UNL     1      -2.430 -15.507   7.128  0.00  0.00    +0.047 A 
ATOM     31  C   UNL     1      -2.618 -16.689   7.816  0.00  0.00    +0.023 A 
ATOM     32  C   UNL     1      -3.756 -17.445   7.595  0.00  0.00    +0.041 A 
ATOM     33  C   UNL     1      -4.707 -17.019   6.685  0.00  0.00    +0.027 A 
ATOM     34  C   UNL     1      -4.525 -15.833   6.000  0.00  0.00    -0.007 A 
ATOM     35  C   UNL     1      -5.564 -15.364   5.014  0.00  0.00    +0.047 C 
ATOM     36 CL   UNL     1      -3.991 -18.932   8.461  0.00  0.00    -0.084 Cl
ENDBRANCH  28  29
ENDBRANCH  27  28
ENDBRANCH  24  27
ENDBRANCH  21  23
ENDBRANCH  19  21
ENDBRANCH   4  19
TORSDOF 8
