REMARK  Name = ZINC38735245
REMARK  5 active torsions:
REMARK  status: ('A' for Active; 'I' for Inactive)
REMARK    1  A    between atoms: C_3  and  C_8
REMARK    2  A    between atoms: C_8  and  N_9
REMARK    3  A    between atoms: C_14  and  C_16
REMARK    4  A    between atoms: N_18  and  C_19
REMARK    5  A    between atoms: C_22  and  C_25
REMARK                            x       y       z     vdW  Elec       q    Type
REMARK                         _______ _______ _______ _____ _____    ______ ____
ROOT
ATOM      1  C   UNL     1       3.571   5.013   3.833  0.00  0.00    +0.268 C 
ATOM      2  O   UNL     1       3.887   5.270   4.979  0.00  0.00    -0.268 OA
ATOM      3  N   UNL     1       2.772   5.856   3.149  0.00  0.00    -0.280 N 
ATOM      4  H   UNL     1       2.575   5.686   2.215  0.00  0.00    +0.155 HD
ENDROOT
BRANCH   1  10
ATOM      5  N   UNL     1       4.123   2.441   1.349  0.00  0.00    -0.224 N 
ATOM      6  C   UNL     1       4.923   1.542   1.952  0.00  0.00    +0.268 A 
ATOM      7  O   UNL     1       5.287   0.544   1.352  0.00  0.00    -0.266 OA
ATOM      8  C   UNL     1       5.338   1.762   3.284  0.00  0.00    +0.074 A 
ATOM      9  C   UNL     1       4.903   2.892   3.910  0.00  0.00    +0.040 A 
ATOM     10  C   UNL     1       4.064   3.776   3.190  0.00  0.00    +0.146 A 
ATOM     11  N   UNL     1       3.725   3.503   1.950  0.00  0.00    -0.163 NA
BRANCH   5  12
ATOM     12  C   UNL     1       3.699   2.203  -0.033  0.00  0.00    +0.182 C 
BRANCH  12  15
ATOM     13  C   UNL     1       0.012   1.385  -0.026  0.00  0.00    +0.003 A 
ATOM     14  C   UNL     1       1.198   2.096  -0.024  0.00  0.00    +0.005 A 
ATOM     15  C   UNL     1       2.407   1.426  -0.035  0.00  0.00    -0.023 A 
ATOM     16  C   UNL     1       2.432   0.044  -0.050  0.00  0.00    +0.043 A 
ATOM     17  C   UNL     1       1.245  -0.669  -0.052  0.00  0.00    +0.124 A 
ATOM     18  C   UNL     1       0.035   0.003  -0.040  0.00  0.00    +0.038 A 
ATOM     19  F   UNL     1       1.268  -2.020  -0.067  0.00  0.00    -0.205 F 
ENDBRANCH  12  15
ENDBRANCH   5  12
ENDBRANCH   1  10
BRANCH   3  20
ATOM     20  C   UNL     1       2.228   6.975   3.787  0.00  0.00    +0.034 A 
ATOM     21  C   UNL     1       2.966   7.652   4.751  0.00  0.00    +0.024 A 
ATOM     22  C   UNL     1       2.432   8.755   5.381  0.00  0.00    +0.012 A 
ATOM     23  C   UNL     1       1.150   9.193   5.050  0.00  0.00    +0.002 A 
ATOM     24  C   UNL     1       0.412   8.513   4.083  0.00  0.00    +0.012 A 
ATOM     25  C   UNL     1       0.953   7.413   3.452  0.00  0.00    +0.024 A 
BRANCH  23  26
ATOM     26  C   UNL     1       0.573  10.380   5.727  0.00  0.00    +0.090 A 
ATOM     27  C   UNL     1      -0.657  10.903   5.504  0.00  0.00    +0.121 A 
ATOM     28  N   UNL     1      -0.804  12.005   6.341  0.00  0.00    -0.300 N 
ATOM     29  C   UNL     1      -1.758  12.959   6.623  0.00  0.00    +0.100 A 
ATOM     30  C   UNL     1      -1.528  13.905   7.531  0.00  0.00    +0.067 A 
ATOM     31  S   UNL     1       0.123  13.500   8.078  0.00  0.00    -0.058 S 
ATOM     32  C   UNL     1       0.375  12.082   7.036  0.00  0.00    +0.178 A 
ATOM     33  N   UNL     1       1.178  11.123   6.676  0.00  0.00    -0.221 NA
ENDBRANCH  23  26
ENDBRANCH   3  20
TORSDOF 5
