REMARK  Name = ZINC09912881
REMARK  12 active torsions:
REMARK  status: ('A' for Active; 'I' for Inactive)
REMARK    1  A    between atoms: C_1  and  C_2
REMARK    2  A    between atoms: C_5  and  S_8
REMARK    3  A    between atoms: S_8  and  C_11
REMARK    4  A    between atoms: C_11  and  C_12
REMARK    5  A    between atoms: C_12  and  C_13
REMARK    6  A    between atoms: C_13  and  C_14
REMARK    7  A    between atoms: N_16  and  C_17
REMARK    8  A    between atoms: C_18  and  C_29
REMARK    9  A    between atoms: C_22  and  C_27
REMARK   10  A    between atoms: C_22  and  C_28
REMARK   11  A    between atoms: C_23  and  C_25
REMARK   12  A    between atoms: C_23  and  C_26
REMARK                            x       y       z     vdW  Elec       q    Type
REMARK                         _______ _______ _______ _____ _____    ______ ____
ROOT
ATOM      1  C   UNL     1       2.720   3.921  -0.004  0.00  0.00    +0.218 C 
ATOM      2  O   UNL     1       3.647   3.139  -0.016  0.00  0.00    -0.275 OA
ATOM      3  N   UNL     1       1.452   3.464   0.006  0.00  0.00    -0.279 N 
ATOM      4  H   UNL     1       0.711   4.090   0.015  0.00  0.00    +0.155 HD
ENDROOT
BRANCH   3   5
ATOM      5  C   UNL     1       1.208   2.098   0.002  0.00  0.00    +0.090 A 
ATOM      6  C   UNL     1      -0.018   1.443   0.010  0.00  0.00    +0.084 A 
ATOM      7  C   UNL     1       0.002  -0.004   0.002  0.00  0.00    -0.021 A 
ATOM      8  C   UNL     1       1.232  -0.571  -0.007  0.00  0.00    -0.015 A 
ATOM      9  S   UNL     1       2.353   0.798  -0.014  0.00  0.00    -0.078 S 
ATOM     10  C   UNL     1       1.538  -2.033  -0.004  0.00  0.00    -0.041 C 
ATOM     11  C   UNL     1      -0.840  -2.197  -0.748  0.00  0.00    -0.069 C 
ATOM     12  C   UNL     1      -1.219  -0.913  -0.002  0.00  0.00    +0.024 C 
ATOM     13  C   UNL     1      -0.623  -1.875  -2.229  0.00  0.00    -0.010 C 
ATOM     14  C   UNL     1      -2.029  -3.171  -0.646  0.00  0.00    -0.010 C 
ATOM     15  C   UNL     1       2.551  -2.344  -1.115  0.00  0.00    -0.005 C 
ATOM     16  C   UNL     1       2.191  -2.388   1.346  0.00  0.00    -0.005 C 
ATOM     17  N   UNL     1       0.332  -2.895  -0.158  0.00  0.00    +0.389 N 
ATOM     18  H   UNL     1       0.065  -3.246   0.769  0.00  0.00    -0.084 HD
ATOM     19  H   UNL     1       0.576  -3.686  -0.766  0.00  0.00    -0.084 HD
BRANCH   6  20
ATOM     20  C   UNL     1      -1.244   2.182   0.032  0.00  0.00    +0.102 C 
ATOM     21  N   UNL     1      -2.217   2.768   0.049  0.00  0.00    -0.191 NA
ENDBRANCH   6  20
ENDBRANCH   3   5
BRANCH   1  22
ATOM     22  C   UNL     1       2.986   5.405   0.000  0.00  0.00    +0.098 C 
BRANCH  22  23
ATOM     23  C   UNL     1       4.496   5.652  -0.012  0.00  0.00    +0.032 C 
BRANCH  23  24
ATOM     24  C   UNL     1       4.766   7.159  -0.008  0.00  0.00    +0.172 C 
BRANCH  24  25
ATOM     25  S   UNL     1       6.556   7.452  -0.023  0.00  0.00    -0.003 S 
ATOM     26  O   UNL     1       7.132   7.027   1.205  0.00  0.00    -0.169 OA
ATOM     27  O   UNL     1       7.109   7.038  -1.264  0.00  0.00    -0.169 OA
BRANCH  25  32
ATOM     28  C   UNL     1       7.143  13.457  -0.002  0.00  0.00    +0.044 C 
ATOM     29  C   UNL     1       6.997  11.957  -0.007  0.00  0.00    -0.050 A 
ATOM     30  C   UNL     1       6.939  11.264   1.187  0.00  0.00    +0.005 A 
ATOM     31  C   UNL     1       6.805   9.888   1.183  0.00  0.00    +0.027 A 
ATOM     32  C   UNL     1       6.727   9.206  -0.017  0.00  0.00    +0.088 A 
ATOM     33  C   UNL     1       6.789   9.898  -1.212  0.00  0.00    +0.027 A 
ATOM     34  C   UNL     1       6.919  11.274  -1.207  0.00  0.00    +0.005 A 
ENDBRANCH  25  32
ENDBRANCH  24  25
ENDBRANCH  23  24
ENDBRANCH  22  23
ENDBRANCH   1  22
TORSDOF 7
