REMARK  Name = ZINC36639581
REMARK  5 active torsions:
REMARK  status: ('A' for Active; 'I' for Inactive)
REMARK    1  A    between atoms: C_8  and  C_13
REMARK    2  A    between atoms: C_19  and  C_21
REMARK    3  A    between atoms: C_21  and  C_22
REMARK    4  A    between atoms: C_25  and  S_28
REMARK    5  A    between atoms: S_28  and  N_31
REMARK                            x       y       z     vdW  Elec       q    Type
REMARK                         _______ _______ _______ _____ _____    ______ ____
ROOT
ATOM      1  C   UNL     1       2.671  -4.185   0.215  0.00  0.00    +0.260 C 
ATOM      2  O   UNL     1       3.494  -4.618  -0.564  0.00  0.00    -0.271 OA
ATOM      3  N   UNL     1       1.841  -5.030   0.857  0.00  0.00    -0.262 N 
ATOM      4  C   UNL     1       1.927  -6.398   0.626  0.00  0.00    +0.165 A 
ATOM      5  N   UNL     1       2.752  -7.043  -0.170  0.00  0.00    -0.233 NA
ATOM      6  C   UNL     1       2.707  -8.357  -0.280  0.00  0.00    +0.124 A 
ATOM      7  C   UNL     1       1.777  -9.006   0.463  0.00  0.00    +0.015 A 
ATOM      8  S   UNL     1       1.006  -7.633   1.304  0.00  0.00    -0.057 S 
ATOM      9  H   UNL     1       1.183  -4.684   1.480  0.00  0.00    +0.157 HD
ENDROOT
BRANCH   1  17
ATOM     10  C   UNL     1      -0.017   1.379   0.010  0.00  0.00    +0.000 A 
ATOM     11  C   UNL     1       1.166   2.098   0.002  0.00  0.00    +0.001 A 
ATOM     12  C   UNL     1       2.377   1.435  -0.012  0.00  0.00    +0.015 A 
ATOM     13  C   UNL     1       2.400   0.042  -0.019  0.00  0.00    +0.062 A 
ATOM     14  C   UNL     1       1.206  -0.680  -0.014  0.00  0.00    -0.029 A 
ATOM     15  C   UNL     1       0.002  -0.004   0.002  0.00  0.00    +0.004 A 
ATOM     16  C   UNL     1       1.226  -2.186  -0.032  0.00  0.00    +0.090 C 
ATOM     17  C   UNL     1       2.578  -2.702   0.464  0.00  0.00    +0.266 C 
ATOM     18  O   UNL     1       3.632  -2.031  -0.238  0.00  0.00    -0.448 OA
ATOM     19  C   UNL     1       3.687  -0.691  -0.029  0.00  0.00    +0.340 C 
ATOM     20  O   UNL     1       4.745  -0.118   0.142  0.00  0.00    -0.245 OA
ENDBRANCH   1  17
BRANCH   7  21
ATOM     21  C   UNL     1       1.479 -10.481   0.556  0.00  0.00    +0.079 C 
BRANCH  21  22
ATOM     22  C   UNL     1       2.314 -11.093   1.651  0.00  0.00    -0.042 A 
ATOM     23  C   UNL     1       3.570 -11.595   1.365  0.00  0.00    +0.006 A 
ATOM     24  C   UNL     1       4.335 -12.157   2.369  0.00  0.00    +0.029 A 
ATOM     25  C   UNL     1       3.845 -12.217   3.660  0.00  0.00    +0.105 A 
ATOM     26  C   UNL     1       2.590 -11.714   3.947  0.00  0.00    +0.029 A 
ATOM     27  C   UNL     1       1.826 -11.148   2.944  0.00  0.00    +0.006 A 
BRANCH  25  28
ATOM     28  S   UNL     1       4.821 -12.934   4.941  0.00  0.00    +0.056 S 
ATOM     29  O   UNL     1       3.916 -13.361   5.949  0.00  0.00    -0.153 OA
ATOM     30  O   UNL     1       5.731 -13.822   4.308  0.00  0.00    -0.153 OA
BRANCH  28  31
ATOM     31  N   UNL     1       5.729 -11.718   5.603  0.00  0.00    -0.204 NA
ATOM     32  H   UNL     1       5.987 -11.760   6.537  0.00  0.00    +0.144 HD
ATOM     33  H   UNL     1       6.003 -10.965   5.058  0.00  0.00    +0.144 HD
ENDBRANCH  28  31
ENDBRANCH  25  28
ENDBRANCH  21  22
ENDBRANCH   7  21
TORSDOF 5
