REMARK  Name = ZINC08832471
REMARK  5 active torsions:
REMARK  status: ('A' for Active; 'I' for Inactive)
REMARK    1  A    between atoms: C_3  and  C_23
REMARK    2  A    between atoms: C_5  and  C_6
REMARK    3  A    between atoms: C_7  and  C_8
REMARK    4  A    between atoms: N_10  and  C_11
REMARK    5  A    between atoms: C_12  and  C_20
REMARK                            x       y       z     vdW  Elec       q    Type
REMARK                         _______ _______ _______ _____ _____    ______ ____
ROOT
ATOM      1  C   UNL     1       1.634   4.435   0.009  0.00  0.00    +0.242 C 
ATOM      2  O   UNL     1       0.416   4.400   0.021  0.00  0.00    -0.270 OA
ATOM      3  N   UNL     1       2.341   3.288  -0.003  0.00  0.00    -0.276 N 
ATOM      4  H   UNL     1       3.311   3.316  -0.013  0.00  0.00    +0.156 HD
ENDROOT
BRANCH   3   5
ATOM      5  C   UNL     1       1.684   2.069  -0.003  0.00  0.00    +0.085 A 
ATOM      6  C   UNL     1       2.232   0.794  -0.015  0.00  0.00    +0.068 A 
ATOM      7  C   UNL     1       1.312  -0.332  -0.012  0.00  0.00    -0.023 A 
ATOM      8  C   UNL     1       0.002  -0.004   0.002  0.00  0.00    -0.004 A 
ATOM      9  S   UNL     1      -0.022   1.766   0.012  0.00  0.00    -0.077 S 
ATOM     10  C   UNL     1      -1.164  -0.944   0.007  0.00  0.00    +0.043 C 
ATOM     11  C   UNL     1      -0.661  -2.341  -0.384  0.00  0.00    +0.005 C 
ATOM     12  C   UNL     1       0.590  -2.663   0.440  0.00  0.00    +0.005 C 
ATOM     13  C   UNL     1       1.757  -1.789  -0.024  0.00  0.00    +0.037 C 
BRANCH   6  14
ATOM     14  C   UNL     1       3.683   0.590  -0.030  0.00  0.00    +0.244 C 
ATOM     15  O   UNL     1       4.276   0.510  -1.090  0.00  0.00    -0.270 OA
ATOM     16  N   UNL     1       4.361   0.490   1.131  0.00  0.00    -0.325 N 
ATOM     17  H   UNL     1       3.889   0.553   1.976  0.00  0.00    +0.145 HD
ATOM     18  H   UNL     1       5.322   0.355   1.121  0.00  0.00    +0.145 HD
ENDBRANCH   6  14
ENDBRANCH   3   5
BRANCH   1  20
ATOM     19  C   UNL     1       1.592   6.835   0.021  0.00  0.00    +0.051 C 
ATOM     20  C   UNL     1       2.305   5.679   0.009  0.00  0.00    +0.071 C 
BRANCH  19  25
ATOM     21  C   UNL     1       1.665   9.326   0.033  0.00  0.00    +0.050 A 
ATOM     22  C   UNL     1       2.696  10.268   0.028  0.00  0.00    +0.050 A 
ATOM     23  C   UNL     1       3.874   9.576   0.013  0.00  0.00    +0.136 A 
ATOM     24  O   UNL     1       3.601   8.259   0.015  0.00  0.00    -0.455 OA
ATOM     25  C   UNL     1       2.263   8.080   0.021  0.00  0.00    +0.129 A 
BRANCH  23  26
ATOM     26  C   UNL     1       5.223  10.175   0.003  0.00  0.00    +0.020 A 
ATOM     27  C   UNL     1       5.374  11.563   0.003  0.00  0.00    +0.031 A 
ATOM     28  C   UNL     1       6.639  12.117  -0.003  0.00  0.00    +0.043 A 
ATOM     29  C   UNL     1       7.756  11.299  -0.017  0.00  0.00    +0.040 A 
ATOM     30  C   UNL     1       7.613   9.921  -0.021  0.00  0.00    +0.043 A 
ATOM     31  C   UNL     1       6.354   9.355  -0.011  0.00  0.00    +0.031 A 
ATOM     32 CL   UNL     1       9.020   8.904  -0.040  0.00  0.00    -0.083 Cl
ATOM     33 CL   UNL     1       6.829  13.842   0.002  0.00  0.00    -0.083 Cl
ENDBRANCH  23  26
ENDBRANCH  19  25
ENDBRANCH   1  20
TORSDOF 5
