REMARK  Name = ZINC12498035
REMARK  8 active torsions:
REMARK  status: ('A' for Active; 'I' for Inactive)
REMARK    1  A    between atoms: C_1  and  O_2
REMARK    2  A    between atoms: O_2  and  C_3
REMARK    3  A    between atoms: C_3  and  C_5
REMARK    4  A    between atoms: C_5  and  C_32
REMARK    5  A    between atoms: C_10  and  C_12
REMARK    6  A    between atoms: N_19  and  C_22
REMARK    7  A    between atoms: C_32  and  C_33
REMARK    8  A    between atoms: C_36  and  O_39
REMARK                            x       y       z     vdW  Elec       q    Type
REMARK                         _______ _______ _______ _____ _____    ______ ____
ROOT
ATOM      1  C   UNL     1      -1.416   8.966   0.111  0.00  0.00    +0.048 C 
ATOM      2  C   UNL     1      -0.883   7.615   0.423  0.00  0.00    +0.086 C 
ATOM      3  C   UNL     1       0.505   7.676  -0.329  0.00  0.00    +0.078 C 
ATOM      4  C   UNL     1       0.991   8.988   0.239  0.00  0.00    -0.020 C 
ATOM      5  C   UNL     1       0.985   6.325   0.047  0.00  0.00    +0.229 C 
ATOM      6  O   UNL     1       2.123   5.992   0.300  0.00  0.00    -0.275 OA
ATOM      7  N   UNL     1      -0.132   5.532   0.044  0.00  0.00    -0.210 N 
ATOM      8  C   UNL     1      -1.295   6.261   0.061  0.00  0.00    +0.229 C 
ATOM      9  O   UNL     1      -2.417   5.868  -0.174  0.00  0.00    -0.275 OA
ATOM     10  N   UNL     1      -0.225   9.847   0.118  0.00  0.00    +0.396 N 
ATOM     11  H   UNL     1      -0.275  10.492   0.914  0.00  0.00    -0.083 HD
ATOM     12  H   UNL     1      -0.185  10.384  -0.756  0.00  0.00    -0.083 HD
ENDROOT
BRANCH   7  13
ATOM     13  C   UNL     1      -0.092   4.130   0.031  0.00  0.00    +0.048 A 
ATOM     14  C   UNL     1      -1.274   3.401   0.036  0.00  0.00    +0.028 A 
ATOM     15  C   UNL     1      -1.235   2.020   0.030  0.00  0.00    +0.051 A 
ATOM     16  C   UNL     1      -0.016   1.358   0.009  0.00  0.00    +0.162 A 
ATOM     17  C   UNL     1       1.168   2.085   0.002  0.00  0.00    +0.164 A 
ATOM     18  C   UNL     1       1.128   3.470   0.015  0.00  0.00    +0.073 A 
ATOM     19  O   UNL     1       2.373   1.452  -0.019  0.00  0.00    -0.485 OA
ATOM     20  C   UNL     1       2.381   0.068   0.347  0.00  0.00    +0.270 C 
ATOM     21  C   UNL     1       1.229  -0.629  -0.390  0.00  0.00    +0.270 C 
ATOM     22  O   UNL     1       0.002  -0.004   0.002  0.00  0.00    -0.485 OA
ENDBRANCH   7  13
BRANCH   4  23
ATOM     23  C   UNL     1       2.130   9.537  -0.581  0.00  0.00    -0.023 A 
ATOM     24  C   UNL     1       3.462   9.483  -0.335  0.00  0.00    +0.009 A 
ATOM     25  C   UNL     1       4.334  10.062  -1.238  0.00  0.00    +0.008 A 
ATOM     26  C   UNL     1       3.831  10.666  -2.342  0.00  0.00    +0.045 A 
ATOM     27  S   UNL     1       2.076  10.420  -2.131  0.00  0.00    -0.103 S 
ENDBRANCH   4  23
BRANCH   1  28
ATOM     28  C   UNL     1      -2.069   8.973  -1.247  0.00  0.00    +0.297 C 
ATOM     29  O   UNL     1      -2.508   7.948  -1.712  0.00  0.00    -0.252 OA
BRANCH  28  31
ATOM     30  C   UNL     1      -2.805  10.051  -3.241  0.00  0.00    +0.280 C 
ATOM     31  O   UNL     1      -2.164  10.119  -1.940  0.00  0.00    -0.469 OA
ENDBRANCH  28  31
ENDBRANCH   1  28
BRANCH   1  32
ATOM     32  C   UNL     1      -2.411   9.409   1.186  0.00  0.00    +0.034 C 
BRANCH  32  33
ATOM     33  C   UNL     1      -2.937  10.780   0.849  0.00  0.00    -0.048 A 
ATOM     34  C   UNL     1      -2.287  11.905   1.323  0.00  0.00    +0.007 A 
ATOM     35  C   UNL     1      -2.764  13.163   1.011  0.00  0.00    +0.045 A 
ATOM     36  C   UNL     1      -3.902  13.298   0.230  0.00  0.00    +0.117 A 
ATOM     37  C   UNL     1      -4.556  12.168  -0.239  0.00  0.00    +0.045 A 
ATOM     38  C   UNL     1      -4.072  10.912   0.071  0.00  0.00    +0.007 A 
BRANCH  36  39
ATOM     39  O   UNL     1      -4.377  14.535  -0.073  0.00  0.00    -0.507 OA
ATOM     40  H   UNL     1      -5.014  14.879   0.567  0.00  0.00    +0.292 HD
ENDBRANCH  36  39
ENDBRANCH  32  33
ENDBRANCH   1  32
TORSDOF 7
