REMARK  Name = ZINC02750876
REMARK  7 active torsions:
REMARK  status: ('A' for Active; 'I' for Inactive)
REMARK    1  A    between atoms: C_7  and  C_15
REMARK    2  A    between atoms: N_17  and  C_18
REMARK    3  A    between atoms: C_18  and  C_19
REMARK    4  A    between atoms: C_19  and  C_20
REMARK    5  A    between atoms: C_20  and  C_21
REMARK    6  A    between atoms: C_21  and  N_22
REMARK    7  A    between atoms: C_23  and  C_25
REMARK                            x       y       z     vdW  Elec       q    Type
REMARK                         _______ _______ _______ _____ _____    ______ ____
ROOT
ATOM      1  C   UNL     1       1.021  -2.227  -0.020  0.00  0.00    +0.020 C 
ENDROOT
BRANCH   1   2
ATOM      2  C   UNL     1       1.281  -0.719  -0.014  0.00  0.00    +0.104 C 
BRANCH   2   5
ATOM      3  C   UNL     1      -0.016   1.344   0.009  0.00  0.00    +0.225 C 
ATOM      4  O   UNL     1       1.026   1.964   0.003  0.00  0.00    -0.275 OA
ATOM      5  N   UNL     1       0.002  -0.004   0.002  0.00  0.00    -0.315 N 
ATOM      6  H   UNL     1      -0.831  -0.500   0.007  0.00  0.00    +0.149 HD
BRANCH   3  13
ATOM      7  C   UNL     1      -0.460   5.530   1.263  0.00  0.00    +0.001 A 
ATOM      8  C   UNL     1      -0.585   6.288   0.113  0.00  0.00    +0.004 A 
ATOM      9  C   UNL     1      -0.952   5.685  -1.073  0.00  0.00    +0.046 A 
ATOM     10  C   UNL     1      -1.197   4.317  -1.115  0.00  0.00    +0.133 A 
ATOM     11  C   UNL     1      -1.071   3.561   0.039  0.00  0.00    +0.011 A 
ATOM     12  C   UNL     1      -0.703   4.170   1.225  0.00  0.00    +0.008 A 
ATOM     13  C   UNL     1      -1.331   2.079   0.020  0.00  0.00    +0.142 C 
ATOM     14  C   UNL     1      -2.122   1.699  -1.202  0.00  0.00    +0.011 A 
ATOM     15  C   UNL     1      -2.784   0.483  -1.231  0.00  0.00    +0.008 A 
ATOM     16  C   UNL     1      -3.516   0.116  -2.344  0.00  0.00    +0.001 A 
ATOM     17  C   UNL     1      -3.591   0.964  -3.434  0.00  0.00    +0.004 A 
ATOM     18  C   UNL     1      -2.933   2.177  -3.410  0.00  0.00    +0.046 A 
ATOM     19  C   UNL     1      -2.195   2.550  -2.293  0.00  0.00    +0.133 A 
ATOM     20  O   UNL     1      -1.557   3.745  -2.288  0.00  0.00    -0.455 OA
ENDBRANCH   3  13
ENDBRANCH   2   5
ENDBRANCH   1   2
BRANCH   1  21
ATOM     21  C   UNL     1       2.357  -2.974  -0.036  0.00  0.00    +0.020 C 
BRANCH  21  22
ATOM     22  C   UNL     1       2.098  -4.482  -0.042  0.00  0.00    +0.104 C 
BRANCH  22  23
ATOM     23  N   UNL     1       3.376  -5.197  -0.058  0.00  0.00    -0.315 N 
ATOM     24  C   UNL     1       3.394  -6.545  -0.066  0.00  0.00    +0.225 C 
ATOM     25  O   UNL     1       2.352  -7.165  -0.059  0.00  0.00    -0.275 OA
ATOM     26  H   UNL     1       4.209  -4.701  -0.063  0.00  0.00    +0.149 HD
BRANCH  24  27
ATOM     27  C   UNL     1       4.709  -7.280  -0.082  0.00  0.00    +0.142 C 
ATOM     28  C   UNL     1       5.483  -6.887  -1.311  0.00  0.00    +0.011 A 
ATOM     29  C   UNL     1       6.144  -5.671  -1.336  0.00  0.00    +0.008 A 
ATOM     30  C   UNL     1       6.860  -5.292  -2.455  0.00  0.00    +0.001 A 
ATOM     31  C   UNL     1       6.920  -6.128  -3.555  0.00  0.00    +0.004 A 
ATOM     32  C   UNL     1       6.262  -7.341  -3.535  0.00  0.00    +0.046 A 
ATOM     33  C   UNL     1       5.540  -7.726  -2.411  0.00  0.00    +0.133 A 
ATOM     34  O   UNL     1       4.902  -8.921  -2.411  0.00  0.00    -0.455 OA
ATOM     35  C   UNL     1       4.559  -9.506  -1.239  0.00  0.00    +0.133 A 
ATOM     36  C   UNL     1       4.449  -8.762  -0.075  0.00  0.00    +0.011 A 
ATOM     37  C   UNL     1       4.098  -9.384   1.110  0.00  0.00    +0.008 A 
ATOM     38  C   UNL     1       3.856 -10.744   1.136  0.00  0.00    +0.001 A 
ATOM     39  C   UNL     1       3.964 -11.489  -0.024  0.00  0.00    +0.004 A 
ATOM     40  C   UNL     1       4.314 -10.874  -1.208  0.00  0.00    +0.046 A 
ENDBRANCH  24  27
ENDBRANCH  22  23
ENDBRANCH  21  22
ENDBRANCH   1  21
TORSDOF 7
