REMARK  Name = ZINC27549824
REMARK  15 active torsions:
REMARK  status: ('A' for Active; 'I' for Inactive)
REMARK    1  A    between atoms: C_1  and  C_2
REMARK    2  A    between atoms: C_2  and  C_3
REMARK    3  A    between atoms: C_5  and  C_37
REMARK    4  A    between atoms: C_7  and  O_9
REMARK    5  A    between atoms: O_9  and  C_10
REMARK    6  A    between atoms: C_10  and  C_11
REMARK    7  A    between atoms: C_11  and  O_12
REMARK    8  A    between atoms: O_12  and  C_13
REMARK    9  A    between atoms: C_16  and  C_21
REMARK   10  A    between atoms: C_18  and  O_19
REMARK   11  A    between atoms: O_19  and  C_20
REMARK   12  A    between atoms: C_31  and  C_33
REMARK   13  A    between atoms: C_33  and  C_34
REMARK   14  A    between atoms: C_34  and  C_35
REMARK   15  A    between atoms: C_34  and  C_36
REMARK                            x       y       z     vdW  Elec       q    Type
REMARK                         _______ _______ _______ _____ _____    ______ ____
ROOT
ATOM      1  C   UNL     1       7.886  -2.550  -1.795  0.00  0.00    +0.162 A 
ATOM      2  C   UNL     1       9.023  -1.911  -2.274  0.00  0.00    +0.050 A 
ATOM      3  C   UNL     1      10.267  -2.459  -2.060  0.00  0.00    +0.012 A 
ATOM      4  C   UNL     1      10.389  -3.666  -1.357  0.00  0.00    -0.021 A 
ATOM      5  C   UNL     1       9.240  -4.310  -0.875  0.00  0.00    +0.057 A 
ATOM      6  C   UNL     1       7.998  -3.749  -1.090  0.00  0.00    +0.162 A 
ENDROOT
BRANCH   4   7
ATOM      7  C   UNL     1      11.711  -4.253  -1.128  0.00  0.00    +0.024 C 
ATOM      8  C   UNL     1      12.683  -4.160  -2.099  0.00  0.00    +0.081 C 
ATOM      9  C   UNL     1      14.091  -4.578  -1.844  0.00  0.00    +0.152 C 
ATOM     10  N   UNL     1      14.414  -5.561  -1.046  0.00  0.00    -0.283 NA
ATOM     11  N   UNL     1      15.040  -3.807  -2.548  0.00  0.00    -0.152 N 
ATOM     12  C   UNL     1      14.615  -3.162  -3.690  0.00  0.00    +0.181 C 
ATOM     13  N   UNL     1      13.396  -3.095  -4.162  0.00  0.00    -0.152 NA
ATOM     14  C   UNL     1      12.384  -3.645  -3.459  0.00  0.00    +0.273 C 
ATOM     15  O   UNL     1      11.257  -3.714  -3.922  0.00  0.00    -0.268 OA
ATOM     16  S   UNL     1      16.123  -2.455  -4.300  0.00  0.00    -0.038 S 
ATOM     17  C   UNL     1      17.184  -2.974  -2.958  0.00  0.00    +0.100 C 
ATOM     18  N   UNL     1      16.366  -3.649  -2.204  0.00  0.00    -0.169 NA
ATOM     19  H   UNL     1      15.347  -5.792  -0.915  0.00  0.00    +0.188 HD
BRANCH  17  20
ATOM     20  C   UNL     1      18.652  -2.701  -2.754  0.00  0.00    +0.067 C 
BRANCH  20  21
ATOM     21  C   UNL     1      19.117  -3.358  -1.452  0.00  0.00    -0.011 C 
ATOM     22  C   UNL     1      19.002  -4.878  -1.579  0.00  0.00    +0.007 C 
ATOM     23  C   UNL     1      20.573  -2.978  -1.180  0.00  0.00    +0.007 C 
ENDBRANCH  20  21
ENDBRANCH  17  20
ENDBRANCH   4   7
BRANCH   6  24
ATOM     24  O   UNL     1       6.882  -4.367  -0.619  0.00  0.00    -0.491 OA
ATOM     25  C   UNL     1       7.071  -5.591   0.094  0.00  0.00    +0.277 C 
ENDBRANCH   6  24
BRANCH   1  26
ATOM     26  O   UNL     1       6.662  -2.004  -2.010  0.00  0.00    -0.485 OA
BRANCH  26  27
ATOM     27  C   UNL     1       6.618  -0.775  -2.739  0.00  0.00    +0.270 C 
BRANCH  27  28
ATOM     28  C   UNL     1       5.165  -0.317  -2.880  0.00  0.00    +0.270 C 
BRANCH  28  29
ATOM     29  O   UNL     1       4.635  -0.009  -1.589  0.00  0.00    -0.489 OA
BRANCH  29  34
ATOM     30  C   UNL     1       1.456   1.164  -0.265  0.00  0.00    -0.044 A 
ATOM     31  C   UNL     1       0.720   1.282  -1.430  0.00  0.00    +0.007 A 
ATOM     32  C   UNL     1       1.295   0.968  -2.648  0.00  0.00    -0.047 A 
ATOM     33  C   UNL     1       2.606   0.535  -2.704  0.00  0.00    +0.049 A 
ATOM     34  C   UNL     1       3.346   0.416  -1.537  0.00  0.00    +0.121 A 
ATOM     35  C   UNL     1       2.769   0.738  -0.316  0.00  0.00    +0.049 A 
ATOM     36  C   UNL     1       0.490   1.097  -3.915  0.00  0.00    +0.044 C 
BRANCH  30  38
ATOM     37  C   UNL     1       1.052   2.990   1.363  0.00  0.00    +0.009 C 
ATOM     38  C   UNL     1       0.827   1.507   1.060  0.00  0.00    +0.032 C 
ENDBRANCH  30  38
ENDBRANCH  29  34
ENDBRANCH  28  29
ENDBRANCH  27  28
ENDBRANCH  26  27
ENDBRANCH   1  26
TORSDOF 10
