REMARK  Name = ZINC63271009
REMARK  7 active torsions:
REMARK  status: ('A' for Active; 'I' for Inactive)
REMARK    1  A    between atoms: C_1  and  O_2
REMARK    2  A    between atoms: O_2  and  C_3
REMARK    3  A    between atoms: C_8  and  C_9
REMARK    4  A    between atoms: C_9  and  N_10
REMARK    5  A    between atoms: C_11  and  C_13
REMARK    6  A    between atoms: C_13  and  C_14
REMARK    7  A    between atoms: C_14  and  N_15
REMARK                            x       y       z     vdW  Elec       q    Type
REMARK                         _______ _______ _______ _____ _____    ______ ____
ROOT
ATOM      1  N   UNL     1       4.134  -4.516   4.302  0.00  0.00    -0.299 N 
ATOM      2  C   UNL     1       5.277  -5.191   4.531  0.00  0.00    +0.302 C 
ATOM      3  O   UNL     1       5.801  -5.822   3.634  0.00  0.00    -0.253 OA
ATOM      4  N   UNL     1       5.840  -5.168   5.756  0.00  0.00    -0.283 N 
ATOM      5  C   UNL     1       5.142  -4.505   6.862  0.00  0.00    +0.114 C 
ATOM      6  C   UNL     1       6.043  -3.404   7.450  0.00  0.00    +0.052 C 
ATOM      7  C   UNL     1       7.418  -4.005   7.604  0.00  0.00    -0.036 C 
ATOM      8  C   UNL     1       8.241  -4.060   8.643  0.00  0.00    -0.001 A 
ATOM      9  C   UNL     1       8.164  -3.463   9.987  0.00  0.00    +0.010 A 
ATOM     10  C   UNL     1       9.194  -3.745  10.828  0.00  0.00    +0.001 A 
ATOM     11  C   UNL     1      10.279  -4.551  10.472  0.00  0.00    +0.002 A 
ATOM     12  C   UNL     1      10.436  -5.133   9.256  0.00  0.00    +0.026 A 
ATOM     13  C   UNL     1       9.421  -4.904   8.283  0.00  0.00    +0.043 A 
ATOM     14  N   UNL     1       9.329  -5.312   7.051  0.00  0.00    -0.376 N 
ATOM     15  C   UNL     1       8.120  -4.732   6.463  0.00  0.00    +0.124 C 
ATOM     16  C   UNL     1       7.145  -5.813   5.969  0.00  0.00    +0.138 C 
ATOM     17  H   UNL     1       3.677  -4.073   5.034  0.00  0.00    +0.150 HD
ATOM     18  H   UNL     1       9.954  -5.900   6.600  0.00  0.00    +0.160 HD
ENDROOT
BRANCH   1  19
ATOM     19  C   UNL     1       3.582  -4.449   2.947  0.00  0.00    +0.115 C 
BRANCH  19  20
ATOM     20  C   UNL     1       2.290  -3.628   2.962  0.00  0.00    +0.114 C 
BRANCH  20  22
ATOM     21  N   UNL     1       0.579  -2.885   1.339  0.00  0.00    -0.311 N 
ATOM     22  C   UNL     1       1.722  -3.560   1.568  0.00  0.00    +0.215 C 
ATOM     23  O   UNL     1       2.293  -4.114   0.652  0.00  0.00    -0.276 OA
ATOM     24  H   UNL     1       0.122  -2.442   2.071  0.00  0.00    +0.149 HD
BRANCH  21  25
ATOM     25  C   UNL     1       0.026  -2.818  -0.016  0.00  0.00    +0.143 C 
BRANCH  25  31
ATOM     26  C   UNL     1      -1.187  -0.624   0.005  0.00  0.00    +0.125 A 
ATOM     27  C   UNL     1      -2.360   0.117   0.013  0.00  0.00    +0.046 A 
ATOM     28  C   UNL     1      -3.582  -0.526   0.021  0.00  0.00    +0.004 A 
ATOM     29  C   UNL     1      -3.638  -1.907   0.020  0.00  0.00    +0.001 A 
ATOM     30  C   UNL     1      -2.471  -2.648   0.012  0.00  0.00    +0.009 A 
ATOM     31  C   UNL     1      -1.246  -2.010  -0.001  0.00  0.00    +0.011 A 
BRANCH  26  33
ATOM     32  C   UNL     1       0.001   1.435   0.004  0.00  0.00    +0.277 C 
ATOM     33  O   UNL     1       0.017   0.006  -0.003  0.00  0.00    -0.495 OA
ENDBRANCH  26  33
ENDBRANCH  25  31
ENDBRANCH  21  25
ENDBRANCH  20  22
ENDBRANCH  19  20
ENDBRANCH   1  19
TORSDOF 6
