REMARK  Name = ZINC63676506
REMARK  9 active torsions:
REMARK  status: ('A' for Active; 'I' for Inactive)
REMARK    1  A    between atoms: C_1  and  C_2
REMARK    2  A    between atoms: C_4  and  S_10
REMARK    3  A    between atoms: C_7  and  O_8
REMARK    4  A    between atoms: O_8  and  C_9
REMARK    5  A    between atoms: S_10  and  N_13
REMARK    6  A    between atoms: N_16  and  C_17
REMARK    7  A    between atoms: C_17  and  C_18
REMARK    8  A    between atoms: C_18  and  C_19
REMARK    9  A    between atoms: C_27  and  C_29
REMARK                            x       y       z     vdW  Elec       q    Type
REMARK                         _______ _______ _______ _____ _____    ______ ____
ROOT
ATOM      1  N   UNL     1       1.610  -3.163  -3.172  0.00  0.00    -0.093 NA
ATOM      2  C   UNL     1       1.901  -3.787  -4.279  0.00  0.00    +0.215 C 
ATOM      3  N   UNL     1       0.895  -4.261  -5.086  0.00  0.00    -0.369 N 
ATOM      4  N   UNL     1       3.216  -3.970  -4.639  0.00  0.00    -0.355 N 
ATOM      5  H   UNL     1      -0.032  -4.132  -4.832  0.00  0.00    +0.159 HD
ATOM      6  H   UNL     1       3.926  -3.635  -4.070  0.00  0.00    +0.163 HD
ATOM      7  H   UNL     1       1.111  -4.726  -5.909  0.00  0.00    +0.159 HD
ENDROOT
BRANCH   1   8
ATOM      8  S   UNL     1       0.027  -2.942  -2.738  0.00  0.00    +0.102 S 
ATOM      9  O   UNL     1      -0.505  -4.232  -2.473  0.00  0.00    -0.146 OA
ATOM     10  O   UNL     1      -0.540  -2.067  -3.704  0.00  0.00    -0.146 OA
BRANCH   8  14
ATOM     11  C   UNL     1      -0.018   1.503   0.010  0.00  0.00    +0.047 C 
ATOM     12  C   UNL     1       0.002  -0.004   0.002  0.00  0.00    -0.007 A 
ATOM     13  C   UNL     1       0.006  -0.689  -1.198  0.00  0.00    +0.036 A 
ATOM     14  C   UNL     1       0.024  -2.071  -1.206  0.00  0.00    +0.113 A 
ATOM     15  C   UNL     1       0.039  -2.772  -0.014  0.00  0.00    +0.032 A 
ATOM     16  C   UNL     1       0.036  -2.092   1.188  0.00  0.00    +0.048 A 
ATOM     17  C   UNL     1       0.023  -0.705   1.199  0.00  0.00    +0.123 A 
BRANCH  17  18
ATOM     18  O   UNL     1       0.025  -0.033   2.381  0.00  0.00    -0.495 OA
ATOM     19  C   UNL     1       0.048  -0.820   3.574  0.00  0.00    +0.277 C 
ENDBRANCH  17  18
ENDBRANCH   8  14
ENDBRANCH   1   8
BRANCH   4  20
ATOM     20  C   UNL     1       3.543  -4.671  -5.883  0.00  0.00    +0.120 C 
BRANCH  20  21
ATOM     21  C   UNL     1       5.063  -4.739  -6.046  0.00  0.00    +0.054 C 
BRANCH  21  22
ATOM     22  C   UNL     1       5.399  -5.461  -7.325  0.00  0.00    -0.037 C 
ATOM     23  C   UNL     1       4.528  -5.977  -8.221  0.00  0.00    +0.002 A 
ATOM     24  C   UNL     1       3.062  -6.020  -8.270  0.00  0.00    +0.048 A 
ATOM     25  C   UNL     1       2.457  -6.622  -9.321  0.00  0.00    +0.124 A 
ATOM     26  C   UNL     1       3.197  -7.205 -10.363  0.00  0.00    +0.040 A 
ATOM     27  C   UNL     1       4.546  -7.204 -10.386  0.00  0.00    +0.029 A 
ATOM     28  C   UNL     1       5.284  -6.598  -9.332  0.00  0.00    +0.043 A 
ATOM     29  N   UNL     1       6.573  -6.471  -9.130  0.00  0.00    -0.378 N 
ATOM     30  C   UNL     1       6.780  -5.748  -7.870  0.00  0.00    +0.103 C 
ATOM     31  C   UNL     1       7.529  -4.439  -8.127  0.00  0.00    +0.035 C 
ATOM     32  F   UNL     1       1.108  -6.664  -9.369  0.00  0.00    -0.205 F 
ATOM     33  H   UNL     1       7.273  -6.798  -9.717  0.00  0.00    +0.160 HD
ENDBRANCH  21  22
ENDBRANCH  20  21
ENDBRANCH   4  20
TORSDOF 6
