REMARK  Name = ZINC27559152
REMARK  13 active torsions:
REMARK  status: ('A' for Active; 'I' for Inactive)
REMARK    1  A    between atoms: C_1  and  C_2
REMARK    2  A    between atoms: C_2  and  O_3
REMARK    3  A    between atoms: O_3  and  C_4
REMARK    4  A    between atoms: C_4  and  C_6
REMARK    5  A    between atoms: C_7  and  C_28
REMARK    6  A    between atoms: C_10  and  N_11
REMARK    7  A    between atoms: C_12  and  C_14
REMARK    8  A    between atoms: C_14  and  N_15
REMARK    9  A    between atoms: N_18  and  C_21
REMARK   10  A    between atoms: C_21  and  C_22
REMARK   11  A    between atoms: N_24  and  C_25
REMARK   12  A    between atoms: C_25  and  C_26
REMARK   13  A    between atoms: C_31  and  C_34
REMARK                            x       y       z     vdW  Elec       q    Type
REMARK                         _______ _______ _______ _____ _____    ______ ____
ROOT
ATOM      1  N   UNL     1       1.624   3.315   0.004  0.00  0.00    -0.278 N 
ATOM      2  C   UNL     1       1.396   1.986  -0.001  0.00  0.00    +0.232 C 
ATOM      3  O   UNL     1       2.328   1.211  -0.014  0.00  0.00    -0.274 OA
ATOM      4  H   UNL     1       0.778   4.018   0.016  0.00  0.00    +0.155 HD
ENDROOT
BRANCH   1   9
ATOM      5  C   UNL     1       3.354   5.115  -0.003  0.00  0.00    +0.095 A 
ATOM      6  C   UNL     1       4.788   5.335  -0.015  0.00  0.00    +0.005 A 
ATOM      7  C   UNL     1       5.574   4.229  -0.028  0.00  0.00    +0.056 A 
ATOM      8  S   UNL     1       4.400   2.890  -0.017  0.00  0.00    -0.080 S 
ATOM      9  C   UNL     1       2.924   3.794  -0.005  0.00  0.00    +0.086 A 
BRANCH   6  10
ATOM     10  C   UNL     1       5.365   6.700  -0.013  0.00  0.00    -0.017 A 
ATOM     11  C   UNL     1       4.919   7.649  -0.932  0.00  0.00    +0.009 A 
ATOM     12  C   UNL     1       5.458   8.920  -0.923  0.00  0.00    +0.004 A 
ATOM     13  C   UNL     1       6.444   9.249  -0.011  0.00  0.00    -0.050 A 
ATOM     14  C   UNL     1       6.894   8.310   0.899  0.00  0.00    +0.004 A 
ATOM     15  C   UNL     1       6.360   7.038   0.903  0.00  0.00    +0.009 A 
ATOM     16  C   UNL     1       7.032  10.637  -0.011  0.00  0.00    +0.044 C 
ENDBRANCH   6  10
BRANCH   5  17
ATOM     17  C   UNL     1       2.407   6.230   0.012  0.00  0.00    +0.342 C 
ATOM     18  O   UNL     1       2.022   6.688   1.071  0.00  0.00    -0.245 OA
BRANCH  17  19
ATOM     19  O   UNL     1       1.959   6.749  -1.150  0.00  0.00    -0.461 OA
BRANCH  19  21
ATOM     20  C   UNL     1       0.630   8.306  -2.468  0.00  0.00    +0.048 C 
ATOM     21  C   UNL     1       1.021   7.854  -1.060  0.00  0.00    +0.229 C 
ENDBRANCH  19  21
ENDBRANCH  17  19
ENDBRANCH   5  17
ENDBRANCH   1   9
BRANCH   2  22
ATOM     22  C   UNL     1      -0.018   1.465   0.010  0.00  0.00    +0.180 C 
BRANCH  22  23
ATOM     23  N   UNL     1       0.002  -0.004   0.002  0.00  0.00    -0.298 NA
ATOM     24  C   UNL     1       0.551  -0.516  -1.261  0.00  0.00    +0.066 C 
ATOM     25  C   UNL     1       0.628  -2.044  -1.199  0.00  0.00    -0.063 C 
ATOM     26  N   UNL     1      -0.713  -2.590  -0.951  0.00  0.00    +0.387 N 
ATOM     27  C   UNL     1      -1.262  -2.078   0.313  0.00  0.00    -0.063 C 
ATOM     28  C   UNL     1      -1.339  -0.550   0.250  0.00  0.00    +0.066 C 
ATOM     29  H   UNL     1      -1.372  -2.258  -1.766  0.00  0.00    -0.081 HD
BRANCH  26  30
ATOM     30  C   UNL     1      -0.693  -4.059  -0.959  0.00  0.00    +0.019 C 
BRANCH  30  31
ATOM     31  C   UNL     1      -0.361  -4.549  -2.344  0.00  0.00    +0.197 C 
ATOM     32  O   UNL     1      -0.160  -3.753  -3.237  0.00  0.00    -0.278 OA
ATOM     33  N   UNL     1      -0.286  -5.872  -2.591  0.00  0.00    -0.313 N 
ATOM     34  H   UNL     1      -0.468  -6.594  -1.781  0.00  0.00    +0.149 HD
BRANCH  33  35
ATOM     35  C   UNL     1       0.037  -6.348  -3.938  0.00  0.00    +0.131 C 
BRANCH  35  36
ATOM     36  C   UNL     1       0.057  -7.855  -3.947  0.00  0.00    -0.016 C 
ATOM     37  C   UNL     1      -0.689  -8.516  -4.797  0.00  0.00    +0.005 C 
ENDBRANCH  35  36
ENDBRANCH  33  35
ENDBRANCH  30  31
ENDBRANCH  26  30
ENDBRANCH  22  23
ENDBRANCH   2  22
TORSDOF 11
