REMARK  Name = ZINC03267441
REMARK  7 active torsions:
REMARK  status: ('A' for Active; 'I' for Inactive)
REMARK    1  A    between atoms: C_1  and  C_2
REMARK    2  A    between atoms: C_3  and  C_33
REMARK    3  A    between atoms: N_9  and  C_27
REMARK    4  A    between atoms: C_10  and  S_12
REMARK    5  A    between atoms: S_12  and  C_13
REMARK    6  A    between atoms: C_13  and  C_14
REMARK    7  A    between atoms: N_16  and  C_17
REMARK                            x       y       z     vdW  Elec       q    Type
REMARK                         _______ _______ _______ _____ _____    ______ ____
ROOT
ATOM      1  C   UNL     1       3.542  16.914   1.778  0.00  0.00    +0.045 C 
ATOM      2  C   UNL     1       2.583  15.847   1.319  0.00  0.00    -0.026 A 
ATOM      3  C   UNL     1       1.269  16.105   1.238  0.00  0.00    -0.008 A 
ATOM      4  S   UNL     1       0.579  14.566   0.661  0.00  0.00    -0.073 S 
ATOM      5  C   UNL     1       2.075  13.620   0.544  0.00  0.00    +0.117 A 
ATOM      6  C   UNL     1       3.070  14.527   0.957  0.00  0.00    +0.076 A 
ATOM      7  C   UNL     1       4.408  14.023   0.962  0.00  0.00    +0.268 A 
ATOM      8  O   UNL     1       5.335  14.737   1.305  0.00  0.00    -0.267 OA
ATOM      9  N   UNL     1       4.631  12.751   0.584  0.00  0.00    -0.255 N 
ATOM     10  C   UNL     1       3.605  11.936   0.197  0.00  0.00    +0.178 A 
ATOM     11  N   UNL     1       2.363  12.377   0.177  0.00  0.00    -0.215 NA
ATOM     12  C   UNL     1       0.549  17.389   1.560  0.00  0.00    +0.052 C 
ENDROOT
BRANCH   9  13
ATOM     13  C   UNL     1       5.941  12.252   0.588  0.00  0.00    +0.052 A 
ATOM     14  C   UNL     1       6.315  11.288   1.514  0.00  0.00    +0.026 A 
ATOM     15  C   UNL     1       7.605  10.794   1.511  0.00  0.00    +0.002 A 
ATOM     16  C   UNL     1       8.526  11.267   0.595  0.00  0.00    +0.000 A 
ATOM     17  C   UNL     1       8.158  12.232  -0.325  0.00  0.00    +0.002 A 
ATOM     18  C   UNL     1       6.868  12.726  -0.331  0.00  0.00    +0.026 A 
ENDBRANCH   9  13
BRANCH  10  19
ATOM     19  S   UNL     1       3.946  10.278  -0.290  0.00  0.00    -0.078 S 
BRANCH  19  20
ATOM     20  C   UNL     1       2.272   9.713  -0.679  0.00  0.00    +0.173 C 
BRANCH  20  21
ATOM     21  C   UNL     1       2.318   8.276  -1.131  0.00  0.00    +0.227 C 
ATOM     22  O   UNL     1       3.380   7.692  -1.186  0.00  0.00    -0.275 OA
ATOM     23  N   UNL     1       1.181   7.640  -1.475  0.00  0.00    -0.285 N 
ATOM     24  H   UNL     1       0.342   8.127  -1.501  0.00  0.00    +0.155 HD
BRANCH  23  25
ATOM     25  C   UNL     1       1.210   6.279  -1.796  0.00  0.00    +0.034 A 
ATOM     26  C   UNL     1       2.312   5.752  -2.480  0.00  0.00    +0.024 A 
ATOM     27  C   UNL     1       2.367   4.433  -2.805  0.00  0.00    +0.010 A 
ATOM     28  C   UNL     1       1.306   3.580  -2.452  0.00  0.00    -0.018 A 
ATOM     29  C   UNL     1       1.336   2.212  -2.775  0.00  0.00    +0.008 A 
ATOM     30  C   UNL     1       0.293   1.413  -2.420  0.00  0.00    +0.001 A 
ATOM     31  C   UNL     1      -0.810   1.931  -1.743  0.00  0.00    +0.001 A 
ATOM     32  C   UNL     1      -0.872   3.249  -1.409  0.00  0.00    +0.008 A 
ATOM     33  C   UNL     1       0.187   4.105  -1.759  0.00  0.00    -0.016 A 
ATOM     34  C   UNL     1       0.154   5.472  -1.436  0.00  0.00    +0.031 A 
ENDBRANCH  23  25
ENDBRANCH  20  21
ENDBRANCH  19  20
ENDBRANCH  10  19
TORSDOF 5
