REMARK  Name = ZINC04315471
REMARK  4 active torsions:
REMARK  status: ('A' for Active; 'I' for Inactive)
REMARK    1  A    between atoms: C_1  and  C_2
REMARK    2  A    between atoms: C_5  and  C_7
REMARK    3  A    between atoms: C_8  and  C_9
REMARK    4  A    between atoms: C_8  and  C_11
REMARK                            x       y       z     vdW  Elec       q    Type
REMARK                         _______ _______ _______ _____ _____    ______ ____
ROOT
ATOM      1  C   UNL     1      -0.014   1.213   0.009  0.00  0.00    +0.260 C 
ATOM      2  O   UNL     1       0.002  -0.004   0.002  0.00  0.00    -0.269 OA
ATOM      3  N   UNL     1      -1.191   1.871   0.018  0.00  0.00    -0.260 N 
ATOM      4  C   UNL     1      -2.380   1.162   0.020  0.00  0.00    +0.166 A 
ATOM      5  N   UNL     1      -3.610   1.620   0.028  0.00  0.00    -0.225 NA
ATOM      6  C   UNL     1      -4.687   0.805   0.029  0.00  0.00    +0.080 A 
ATOM      7  C   UNL     1      -6.055   1.165   0.037  0.00  0.00    +0.029 A 
ATOM      8  C   UNL     1      -7.032   0.204   0.036  0.00  0.00    +0.002 A 
ATOM      9  C   UNL     1      -6.720  -1.148   0.027  0.00  0.00    +0.001 A 
ATOM     10  C   UNL     1      -5.392  -1.536   0.019  0.00  0.00    +0.017 A 
ATOM     11  C   UNL     1      -4.407  -0.581   0.020  0.00  0.00    +0.041 A 
ATOM     12  S   UNL     1      -2.631  -0.607   0.003  0.00  0.00    -0.052 S 
ATOM     13  H   UNL     1      -1.204   2.841   0.023  0.00  0.00    +0.157 HD
ENDROOT
BRANCH   1  15
ATOM     14  C   UNL     1       2.456   1.287  -0.015  0.00  0.00    +0.070 C 
ATOM     15  C   UNL     1       1.246   1.964   0.001  0.00  0.00    +0.117 C 
BRANCH  14  20
ATOM     16  C   UNL     1       5.640   5.080  -0.025  0.00  0.00    +0.086 C 
ATOM     17  C   UNL     1       5.090   3.677  -0.027  0.00  0.00    +0.103 A 
ATOM     18  C   UNL     1       5.831   2.543  -0.040  0.00  0.00    +0.045 A 
ATOM     19  C   UNL     1       4.939   1.464  -0.037  0.00  0.00    +0.049 A 
ATOM     20  C   UNL     1       3.665   2.007  -0.022  0.00  0.00    +0.129 A 
ATOM     21  O   UNL     1       3.791   3.352  -0.022  0.00  0.00    -0.461 OA
ENDBRANCH  14  20
BRANCH  15  22
ATOM     22  C   UNL     1       1.227   3.396   0.009  0.00  0.00    +0.104 C 
ATOM     23  N   UNL     1       1.212   4.532   0.015  0.00  0.00    -0.191 NA
ENDBRANCH  15  22
ENDBRANCH   1  15
TORSDOF 3
