REMARK  Name = ZINC09424480
REMARK  18 active torsions:
REMARK  status: ('A' for Active; 'I' for Inactive)
REMARK    1  A    between atoms: C_1  and  C_2
REMARK    2  A    between atoms: C_2  and  C_3
REMARK    3  A    between atoms: C_3  and  C_4
REMARK    4  A    between atoms: C_4  and  C_5
REMARK    5  A    between atoms: C_5  and  O_6
REMARK    6  A    between atoms: O_6  and  C_7
REMARK    7  A    between atoms: C_11  and  C_13
REMARK    8  A    between atoms: C_15  and  C_27
REMARK    9  A    between atoms: C_16  and  O_26
REMARK   10  A    between atoms: N_19  and  C_20
REMARK   11  A    between atoms: C_20  and  C_21
REMARK   12  A    between atoms: C_21  and  N_78
REMARK   13  A    between atoms: C_22  and  C_23
REMARK   14  A    between atoms: C_22  and  N_78
REMARK   15  A    between atoms: C_24  and  C_25
REMARK   16  A    between atoms: C_24  and  N_78
REMARK   17  A    between atoms: C_27  and  C_29
REMARK   18  A    between atoms: C_36  and  C_39
REMARK                            x       y       z     vdW  Elec       q    Type
REMARK                         _______ _______ _______ _____ _____    ______ ____
ROOT
ATOM      1  C   UNL     1       1.069  -0.415   0.799  0.00  0.00    +0.144 C 
ATOM      2  C   UNL     1       1.205   1.074   1.015  0.00  0.00    +0.071 C 
ATOM      3  C   UNL     1       2.529   1.353   0.985  0.00  0.00    +0.188 C 
ATOM      4  C   UNL     1       3.284   0.104   0.756  0.00  0.00    +0.282 C 
ATOM      5  O   UNL     1       4.494   0.024   0.678  0.00  0.00    -0.267 OA
ATOM      6  N   UNL     1       2.433  -0.933   0.647  0.00  0.00    -0.285 N 
ENDROOT
BRANCH   1  11
ATOM      7  C   UNL     1      -1.752  -1.440  -1.497  0.00  0.00    +0.121 A 
ATOM      8  C   UNL     1      -1.198  -1.182  -2.743  0.00  0.00    +0.045 A 
ATOM      9  C   UNL     1       0.085  -0.679  -2.837  0.00  0.00    +0.004 A 
ATOM     10  C   UNL     1       0.817  -0.431  -1.691  0.00  0.00    +0.006 A 
ATOM     11  C   UNL     1       0.268  -0.686  -0.448  0.00  0.00    -0.019 A 
ATOM     12  C   UNL     1      -1.013  -1.195  -0.349  0.00  0.00    +0.051 A 
BRANCH   7  13
ATOM     13  O   UNL     1      -3.013  -1.935  -1.402  0.00  0.00    -0.492 OA
BRANCH  13  14
ATOM     14  C   UNL     1      -3.713  -2.168  -2.626  0.00  0.00    +0.229 C 
BRANCH  14  15
ATOM     15  C   UNL     1      -5.106  -2.722  -2.321  0.00  0.00    +0.041 C 
BRANCH  15  16
ATOM     16  C   UNL     1      -5.855  -2.971  -3.631  0.00  0.00    +0.003 C 
BRANCH  16  18
ATOM     17  C   UNL     1      -7.997  -3.773  -4.636  0.00  0.00    +0.004 C 
ATOM     18  C   UNL     1      -7.248  -3.525  -3.325  0.00  0.00    -0.003 C 
ENDBRANCH  16  18
ENDBRANCH  15  16
ENDBRANCH  14  15
ENDBRANCH  13  14
ENDBRANCH   7  13
ENDBRANCH   1  11
BRANCH   3  19
ATOM     19  O   UNL     1       3.075   2.582   1.140  0.00  0.00    -0.502 OA
ATOM     20  H   UNL     1       4.071   2.515   1.075  0.00  0.00    +0.292 HD
ENDBRANCH   3  19
BRANCH   2  21
ATOM     21  C   UNL     1       0.114   2.033   1.214  0.00  0.00    +0.195 C 
ATOM     22  O   UNL     1      -0.108   2.885   0.373  0.00  0.00    -0.287 OA
BRANCH  21  23
ATOM     23  C   UNL     1      -0.716   1.966   2.433  0.00  0.00    +0.023 A 
ATOM     24  C   UNL     1      -0.467   0.989   3.401  0.00  0.00    +0.015 A 
ATOM     25  C   UNL     1      -1.239   0.928   4.536  0.00  0.00    +0.046 A 
ATOM     26  C   UNL     1      -2.287   1.831   4.728  0.00  0.00    +0.124 A 
ATOM     27  C   UNL     1      -2.530   2.802   3.761  0.00  0.00    -0.002 A 
ATOM     28  C   UNL     1      -1.762   2.874   2.625  0.00  0.00    +0.019 A 
ATOM     29  C   UNL     1      -3.700   3.633   4.251  0.00  0.00    +0.083 C 
ATOM     30  C   UNL     1      -3.768   3.239   5.745  0.00  0.00    +0.175 C 
ATOM     31  O   UNL     1      -3.170   1.931   5.757  0.00  0.00    -0.488 OA
ATOM     32  C   UNL     1      -5.220   3.175   6.223  0.00  0.00    +0.052 C 
ENDBRANCH  21  23
ENDBRANCH   2  21
BRANCH   6  33
ATOM     33  C   UNL     1       2.804  -2.332   0.418  0.00  0.00    +0.090 C 
BRANCH  33  34
ATOM     34  C   UNL     1       2.854  -2.606  -1.087  0.00  0.00    -0.060 C 
BRANCH  34  35
ATOM     35  N   UNL     1       3.382  -3.969  -1.303  0.00  0.00    +0.380 N 
ATOM     36  H   UNL     1       4.191  -4.115  -0.687  0.00  0.00    -0.082 HD
BRANCH  35  37
ATOM     37  C   UNL     1       2.344  -4.970  -0.979  0.00  0.00    -0.082 C 
ATOM     38  C   UNL     1       2.979  -6.362  -0.994  0.00  0.00    -0.017 C 
ENDBRANCH  35  37
BRANCH  35  39
ATOM     39  C   UNL     1       3.814  -4.127  -2.708  0.00  0.00    -0.082 C 
ATOM     40  C   UNL     1       5.153  -3.408  -2.893  0.00  0.00    -0.017 C 
ENDBRANCH  35  39
ENDBRANCH  34  35
ENDBRANCH  33  34
ENDBRANCH   6  33
TORSDOF 14
