REMARK  Name = ZINC36801769
REMARK  9 active torsions:
REMARK  status: ('A' for Active; 'I' for Inactive)
REMARK    1  A    between atoms: C_1  and  C_2
REMARK    2  A    between atoms: C_2  and  O_3
REMARK    3  A    between atoms: O_3  and  C_4
REMARK    4  A    between atoms: C_11  and  C_18
REMARK    5  A    between atoms: C_13  and  O_14
REMARK    6  A    between atoms: C_18  and  S_19
REMARK    7  A    between atoms: S_19  and  C_20
REMARK    8  A    between atoms: C_25  and  O_30
REMARK    9  A    between atoms: O_30  and  C_31
REMARK                            x       y       z     vdW  Elec       q    Type
REMARK                         _______ _______ _______ _____ _____    ______ ____
ROOT
ATOM      1  C   UNL     1       0.612  -1.848   1.428  0.00  0.00    +0.405 C 
ATOM      2  O   UNL     1      -0.180  -2.593   0.876  0.00  0.00    -0.226 OA
ATOM      3  N   UNL     1       1.431  -2.321   2.357  0.00  0.00    -0.251 N 
ATOM      4  C   UNL     1       1.491  -3.659   2.593  0.00  0.00    +0.040 A 
ATOM      5  C   UNL     1       2.079  -4.135   3.779  0.00  0.00    +0.024 A 
ATOM      6  C   UNL     1       2.145  -5.469   4.026  0.00  0.00    +0.013 A 
ATOM      7  C   UNL     1       1.622  -6.382   3.092  0.00  0.00    +0.022 A 
ATOM      8  C   UNL     1       1.680  -7.771   3.330  0.00  0.00    -0.020 A 
ATOM      9  C   UNL     1       1.152  -8.625   2.383  0.00  0.00    +0.092 A 
ATOM     10  C   UNL     1       0.581  -8.110   1.228  0.00  0.00    +0.285 A 
ATOM     11  O   UNL     1       0.528  -6.792   1.006  0.00  0.00    -0.425 OA
ATOM     12  C   UNL     1       1.029  -5.913   1.898  0.00  0.00    +0.141 A 
ATOM     13  C   UNL     1       0.962  -4.553   1.659  0.00  0.00    +0.070 A 
ATOM     14  H   UNL     1       1.988  -1.713   2.869  0.00  0.00    +0.158 HD
ENDROOT
BRANCH  10  15
ATOM     15  O   UNL     1       0.069  -8.955   0.312  0.00  0.00    -0.480 OA
ATOM     16  H   UNL     1      -0.308  -8.514  -0.461  0.00  0.00    +0.295 HD
ENDBRANCH  10  15
BRANCH   1  17
ATOM     17  O   UNL     1       0.655  -0.539   1.093  0.00  0.00    -0.450 OA
BRANCH  17  19
ATOM     18  C   UNL     1      -0.061   1.401  -0.158  0.00  0.00    +0.048 C 
ATOM     19  C   UNL     1      -0.256  -0.097   0.085  0.00  0.00    +0.230 C 
ENDBRANCH  17  19
ENDBRANCH   1  17
BRANCH   8  20
ATOM     20  C   UNL     1       2.305  -8.310   4.591  0.00  0.00    +0.113 C 
BRANCH  20  21
ATOM     21  S   UNL     1       1.000  -8.871   5.720  0.00  0.00    -0.083 S 
BRANCH  21  22
ATOM     22  C   UNL     1       1.880  -9.465   7.126  0.00  0.00    +0.168 A 
ATOM     23  N   UNL     1       1.304  -9.998   8.246  0.00  0.00    -0.333 N 
ATOM     24  H   UNL     1       0.354 -10.114   8.405  0.00  0.00    +0.168 HD
ATOM     25  C   UNL     1       2.330 -10.341   9.112  0.00  0.00    +0.070 A 
ATOM     26  C   UNL     1       2.370 -10.909  10.376  0.00  0.00    +0.073 A 
ATOM     27  C   UNL     1       3.588 -11.131  10.993  0.00  0.00    +0.122 A 
ATOM     28  C   UNL     1       4.774 -10.786  10.351  0.00  0.00    +0.048 A 
ATOM     29  C   UNL     1       4.748 -10.221   9.095  0.00  0.00    +0.033 A 
ATOM     30  C   UNL     1       3.525  -9.992   8.461  0.00  0.00    +0.090 A 
ATOM     31  N   UNL     1       3.184  -9.468   7.253  0.00  0.00    -0.222 NA
BRANCH  27  32
ATOM     32  O   UNL     1       3.628 -11.688  12.233  0.00  0.00    -0.495 OA
ATOM     33  C   UNL     1       4.919 -11.889  12.813  0.00  0.00    +0.277 C 
ENDBRANCH  27  32
ENDBRANCH  21  22
ENDBRANCH  20  21
ENDBRANCH   8  20
TORSDOF 7
