REMARK  Name = ZINC39656074
REMARK  8 active torsions:
REMARK  status: ('A' for Active; 'I' for Inactive)
REMARK    1  A    between atoms: C_1  and  C_2
REMARK    2  A    between atoms: C_8  and  C_11
REMARK    3  A    between atoms: C_11  and  C_12
REMARK    4  A    between atoms: C_12  and  N_13
REMARK    5  A    between atoms: C_14  and  C_16
REMARK    6  A    between atoms: C_27  and  C_29
REMARK    7  A    between atoms: C_32  and  C_36
REMARK    8  A    between atoms: C_33  and  C_35
REMARK                            x       y       z     vdW  Elec       q    Type
REMARK                         _______ _______ _______ _____ _____    ______ ____
ROOT
ATOM      1  C   UNL     1       5.248   0.115  -7.692  0.00  0.00    +0.100 C 
ATOM      2  C   UNL     1       6.000   0.459  -6.387  0.00  0.00    +0.121 C 
ATOM      3  N   UNL     1       6.369  -0.855  -5.810  0.00  0.00    -0.296 N 
ATOM      4  C   UNL     1       6.759  -1.676  -6.982  0.00  0.00    +0.115 C 
ATOM      5  C   UNL     1       5.752  -1.285  -8.081  0.00  0.00    -0.004 C 
ATOM      6  C   UNL     1       6.444  -1.239  -9.440  0.00  0.00    -0.010 C 
ATOM      7  C   UNL     1       6.884  -2.652  -9.832  0.00  0.00    -0.082 C 
ATOM      8  N   UNL     1       5.712  -3.534  -9.887  0.00  0.00    +0.379 N 
ATOM      9  C   UNL     1       5.107  -3.647  -8.554  0.00  0.00    -0.082 C 
ATOM     10  C   UNL     1       4.591  -2.276  -8.108  0.00  0.00    -0.010 C 
ATOM     11  C   UNL     1       6.354  -1.222  -4.513  0.00  0.00    +0.247 C 
ATOM     12  O   UNL     1       5.887  -0.474  -3.676  0.00  0.00    -0.270 OA
ATOM     13  H   UNL     1       5.036  -3.153 -10.531  0.00  0.00    -0.086 HD
ATOM     14  H   UNL     1       5.996  -4.449 -10.204  0.00  0.00    -0.086 HD
ENDROOT
BRANCH  11  15
ATOM     15  C   UNL     1       6.904  -2.533  -4.109  0.00  0.00    +0.037 A 
ATOM     16  C   UNL     1       7.809  -3.199  -4.938  0.00  0.00    +0.013 A 
ATOM     17  C   UNL     1       8.320  -4.422  -4.555  0.00  0.00    +0.004 A 
ATOM     18  C   UNL     1       7.936  -4.989  -3.352  0.00  0.00    -0.047 A 
ATOM     19  C   UNL     1       7.040  -4.334  -2.526  0.00  0.00    -0.047 A 
ATOM     20  C   UNL     1       6.527  -3.108  -2.895  0.00  0.00    +0.016 A 
ATOM     21  C   UNL     1       6.628  -4.959  -1.218  0.00  0.00    +0.044 C 
ATOM     22  C   UNL     1       8.498  -6.325  -2.940  0.00  0.00    +0.044 C 
ENDBRANCH  11  15
BRANCH   1  24
ATOM     23  N   UNL     1       2.907   0.285  -8.474  0.00  0.00    -0.315 N 
ATOM     24  C   UNL     1       3.761   0.088  -7.449  0.00  0.00    +0.218 C 
ATOM     25  O   UNL     1       3.332  -0.109  -6.332  0.00  0.00    -0.275 OA
ATOM     26  H   UNL     1       3.250   0.443  -9.367  0.00  0.00    +0.149 HD
BRANCH  23  27
ATOM     27  C   UNL     1       1.461   0.259  -8.238  0.00  0.00    +0.109 C 
BRANCH  27  28
ATOM     28  C   UNL     1       0.725   0.507  -9.556  0.00  0.00    +0.056 C 
BRANCH  28  36
ATOM     29  C   UNL     1      -2.068   5.186  -7.789  0.00  0.00    +0.044 C 
ATOM     30  C   UNL     1      -2.352   3.749  -8.140  0.00  0.00    -0.050 A 
ATOM     31  C   UNL     1      -3.649   3.263  -8.056  0.00  0.00    +0.005 A 
ATOM     32  C   UNL     1      -3.930   1.951  -8.372  0.00  0.00    +0.026 A 
ATOM     33  C   UNL     1      -2.905   1.104  -8.779  0.00  0.00    +0.047 A 
ATOM     34  N   UNL     1      -2.862  -0.221  -9.153  0.00  0.00    -0.360 N 
ATOM     35  C   UNL     1      -1.578  -0.574  -9.467  0.00  0.00    +0.087 A 
ATOM     36  C   UNL     1      -0.762   0.481  -9.313  0.00  0.00    -0.021 A 
ATOM     37  C   UNL     1      -1.592   1.602  -8.863  0.00  0.00    +0.003 A 
ATOM     38  C   UNL     1      -1.330   2.935  -8.543  0.00  0.00    +0.013 A 
ATOM     39  H   UNL     1      -3.628  -0.815  -9.188  0.00  0.00    +0.165 HD
ENDBRANCH  28  36
ENDBRANCH  27  28
ENDBRANCH  23  27
ENDBRANCH   1  24
TORSDOF 5
