REMARK  Name = ZINC27828953
REMARK  5 active torsions:
REMARK  status: ('A' for Active; 'I' for Inactive)
REMARK    1  A    between atoms: C_1  and  C_2
REMARK    2  A    between atoms: N_5  and  C_7
REMARK    3  A    between atoms: C_15  and  N_28
REMARK    4  A    between atoms: C_16  and  C_26
REMARK    5  A    between atoms: C_17  and  C_19
REMARK                            x       y       z     vdW  Elec       q    Type
REMARK                         _______ _______ _______ _____ _____    ______ ____
ROOT
ATOM      1  C   UNL     1       0.055  -5.398   1.016  0.00  0.00    +0.068 C 
ATOM      2  C   UNL     1       0.712  -4.169   0.443  0.00  0.00    +0.065 A 
ATOM      3  C   UNL     1       1.771  -4.154  -0.463  0.00  0.00    +0.009 A 
ATOM      4  C   UNL     1       2.074  -2.859  -0.733  0.00  0.00    +0.055 A 
ATOM      5  N   UNL     1       1.236  -2.083  -0.021  0.00  0.00    -0.236 N 
ATOM      6  N   UNL     1       0.391  -2.927   0.715  0.00  0.00    -0.171 NA
ATOM      7  C   UNL     1       3.169  -2.433  -1.673  0.00  0.00    +0.105 C 
ATOM      8  C   UNL     1       4.074  -3.596  -1.958  0.00  0.00    +0.006 C 
ATOM      9  C   UNL     1       3.776  -4.867  -1.694  0.00  0.00    +0.056 C 
ATOM     10  C   UNL     1       2.491  -5.328  -1.069  0.00  0.00    +0.094 C 
ENDROOT
BRANCH   5  11
ATOM     11  C   UNL     1       1.214  -0.681  -0.013  0.00  0.00    +0.067 A 
ATOM     12  C   UNL     1       1.045   0.005   1.182  0.00  0.00    +0.028 A 
ATOM     13  C   UNL     1       1.024   1.386   1.188  0.00  0.00    +0.003 A 
ATOM     14  C   UNL     1       1.171   2.086   0.004  0.00  0.00    +0.020 A 
ATOM     15  C   UNL     1       1.340   1.406  -1.188  0.00  0.00    +0.043 A 
ATOM     16  C   UNL     1       1.362   0.023  -1.200  0.00  0.00    +0.047 A 
ATOM     17 CL   UNL     1       1.524   2.288  -2.672  0.00  0.00    -0.083 Cl
ENDBRANCH   5  11
BRANCH  10  18
ATOM     18  C   UNL     1       1.621  -5.961  -2.124  0.00  0.00    -0.035 A 
ATOM     19  C   UNL     1       1.205  -5.218  -3.213  0.00  0.00    +0.006 A 
ATOM     20  C   UNL     1       0.411  -5.799  -4.184  0.00  0.00    +0.020 A 
ATOM     21  C   UNL     1       0.022  -7.121  -4.059  0.00  0.00    +0.041 A 
ATOM     22  C   UNL     1       0.434  -7.862  -2.966  0.00  0.00    +0.020 A 
ATOM     23  C   UNL     1       1.233  -7.282  -1.999  0.00  0.00    +0.006 A 
ATOM     24 CL   UNL     1      -0.980  -7.850  -5.275  0.00  0.00    -0.084 Cl
ENDBRANCH  10  18
BRANCH   8  25
ATOM     25  N   UNL     1       5.291  -3.333  -2.531  0.00  0.00    -0.419 NA
ATOM     26  H   UNL     1       5.839  -4.275  -2.679  0.00  0.00    +0.120 HD
ATOM     27  H   UNL     1       5.872  -2.671  -1.872  0.00  0.00    +0.120 HD
ATOM     28  H   UNL     1       5.139  -2.840  -3.503  0.00  0.00    +0.120 HD
ENDBRANCH   8  25
BRANCH   9  29
ATOM     29  C   UNL     1       4.750  -5.863  -2.028  0.00  0.00    +0.097 C 
ATOM     30  N   UNL     1       5.522  -6.653  -2.293  0.00  0.00    -0.191 NA
ENDBRANCH   9  29
TORSDOF 4
