REMARK  Name = ZINC12345140
REMARK  11 active torsions:
REMARK  status: ('A' for Active; 'I' for Inactive)
REMARK    1  A    between atoms: C_1  and  O_2
REMARK    2  A    between atoms: O_2  and  C_3
REMARK    3  A    between atoms: C_8  and  C_9
REMARK    4  A    between atoms: C_9  and  O_31
REMARK    5  A    between atoms: C_18  and  C_19
REMARK    6  A    between atoms: C_18  and  N_61
REMARK    7  A    between atoms: C_21  and  C_28
REMARK    8  A    between atoms: C_22  and  O_27
REMARK    9  A    between atoms: C_23  and  O_25
REMARK   10  A    between atoms: O_25  and  C_26
REMARK   11  A    between atoms: C_28  and  C_29
REMARK                            x       y       z     vdW  Elec       q    Type
REMARK                         _______ _______ _______ _____ _____    ______ ____
ROOT
ATOM      1  C   UNL     1      -3.459   2.441   3.758  0.00  0.00    +0.091 C 
ATOM      2  C   UNL     1      -2.410   1.349   3.532  0.00  0.00    +0.024 C 
ATOM      3  C   UNL     1      -2.275   1.093   2.022  0.00  0.00    -0.065 C 
ATOM      4  C   UNL     1      -3.700   0.949   1.438  0.00  0.00    -0.017 C 
ATOM      5  C   UNL     1      -4.124   2.386   1.070  0.00  0.00    -0.017 C 
ATOM      6  C   UNL     1      -2.917   3.268   1.465  0.00  0.00    -0.065 C 
ATOM      7  C   UNL     1      -3.099   3.682   2.935  0.00  0.00    +0.024 C 
ATOM      8  N   UNL     1      -1.790   2.342   1.429  0.00  0.00    +0.386 N 
ATOM      9  H   UNL     1      -1.009   2.716   1.980  0.00  0.00    -0.081 HD
ENDROOT
BRANCH   1  15
ATOM     10  C   UNL     1      -2.360   3.296   5.843  0.00  0.00    +0.126 A 
ATOM     11  C   UNL     1      -2.398   3.630   7.189  0.00  0.00    +0.046 A 
ATOM     12  C   UNL     1      -3.569   3.471   7.906  0.00  0.00    +0.004 A 
ATOM     13  C   UNL     1      -4.701   2.980   7.282  0.00  0.00    +0.001 A 
ATOM     14  C   UNL     1      -4.667   2.652   5.940  0.00  0.00    +0.010 A 
ATOM     15  C   UNL     1      -3.497   2.804   5.220  0.00  0.00    +0.025 A 
BRANCH  10  17
ATOM     16  C   UNL     1      -0.078   3.964   5.843  0.00  0.00    +0.277 C 
ATOM     17  O   UNL     1      -1.210   3.452   5.136  0.00  0.00    -0.495 OA
ENDBRANCH  10  17
ENDBRANCH   1  15
BRANCH   1  18
ATOM     18  O   UNL     1      -4.742   1.960   3.354  0.00  0.00    -0.384 OA
ATOM     19  H   UNL     1      -5.457   2.601   3.469  0.00  0.00    +0.211 HD
ENDBRANCH   1  18
BRANCH   8  20
ATOM     20  C   UNL     1      -1.333   2.112   0.020  0.00  0.00    -0.042 C 
BRANCH  20  21
ATOM     21  C   UNL     1      -0.017   1.378   0.010  0.00  0.00    -0.060 A 
ATOM     22  C   UNL     1       0.002  -0.004   0.002  0.00  0.00    +0.009 A 
ATOM     23  C   UNL     1       1.207  -0.682  -0.014  0.00  0.00    +0.002 A 
ATOM     24  C   UNL     1       2.399   0.024  -0.021  0.00  0.00    +0.162 A 
ATOM     25  C   UNL     1       2.380   1.415  -0.013  0.00  0.00    +0.162 A 
ATOM     26  C   UNL     1       1.169   2.089   0.002  0.00  0.00    +0.051 A 
BRANCH  25  27
ATOM     27  O   UNL     1       3.548   2.113  -0.020  0.00  0.00    -0.491 OA
ATOM     28  C   UNL     1       3.452   3.539  -0.011  0.00  0.00    +0.277 C 
ENDBRANCH  25  27
BRANCH  24  29
ATOM     29  O   UNL     1       3.585  -0.641  -0.036  0.00  0.00    -0.503 OA
ATOM     30  H   UNL     1       3.920  -0.829  -0.924  0.00  0.00    +0.292 HD
ENDBRANCH  24  29
BRANCH  23  31
ATOM     31  C   UNL     1       1.223  -2.189  -0.023  0.00  0.00    +0.065 C 
BRANCH  31  32
ATOM     32  C   UNL     1       1.462  -2.680  -1.427  0.00  0.00    -0.030 C 
ATOM     33  C   UNL     1       2.454  -3.499  -1.675  0.00  0.00    +0.004 C 
ENDBRANCH  31  32
ENDBRANCH  23  31
ENDBRANCH  20  21
ENDBRANCH   8  20
TORSDOF 9
