REMARK  Name = ZINC24766914
REMARK  10 active torsions:
REMARK  status: ('A' for Active; 'I' for Inactive)
REMARK    1  A    between atoms: C_1  and  C_2
REMARK    2  A    between atoms: C_2  and  C_3
REMARK    3  A    between atoms: C_2  and  C_4
REMARK    4  A    between atoms: C_4  and  N_5
REMARK    5  A    between atoms: N_5  and  C_6
REMARK    6  A    between atoms: C_7  and  N_22
REMARK    7  A    between atoms: N_8  and  C_15
REMARK    8  A    between atoms: C_15  and  C_16
REMARK    9  A    between atoms: C_23  and  C_25
REMARK   10  A    between atoms: C_29  and  N_31
REMARK                            x       y       z     vdW  Elec       q    Type
REMARK                         _______ _______ _______ _____ _____    ______ ____
ROOT
ATOM      1  C   UNL     1       2.185   1.005  -0.705  0.00  0.00    +0.140 A 
ATOM      2  C   UNL     1       2.148   0.153  -1.790  0.00  0.00    +0.128 A 
ATOM      3  N   UNL     1       3.238  -0.643  -2.056  0.00  0.00    -0.276 N 
ATOM      4  C   UNL     1       4.323  -0.599  -1.261  0.00  0.00    +0.331 A 
ATOM      5  O   UNL     1       5.274  -1.315  -1.510  0.00  0.00    -0.246 OA
ATOM      6  N   UNL     1       4.374   0.221  -0.196  0.00  0.00    -0.273 N 
ATOM      7  H   UNL     1       5.271   0.240   0.440  0.00  0.00    +0.173 HD
ATOM      8  C   UNL     1       3.336   1.025   0.105  0.00  0.00    +0.277 A 
ATOM      9  O   UNL     1       3.393   1.765   1.073  0.00  0.00    -0.266 OA
ENDROOT
BRANCH   1  10
ATOM     10  N   UNL     1       1.086   1.838  -0.409  0.00  0.00    -0.260 N 
ATOM     11  C   UNL     1      -0.071   1.298   0.023  0.00  0.00    +0.251 C 
ATOM     12  O   UNL     1      -0.990   2.020   0.360  0.00  0.00    -0.270 OA
BRANCH  11  13
ATOM     13  C   UNL     1      -0.221  -0.171   0.094  0.00  0.00    +0.039 A 
ATOM     14  C   UNL     1       0.902  -0.982   0.268  0.00  0.00    +0.013 A 
ATOM     15  C   UNL     1       0.758  -2.352   0.340  0.00  0.00    +0.003 A 
ATOM     16  C   UNL     1      -0.494  -2.928   0.227  0.00  0.00    +0.026 A 
ATOM     17  C   UNL     1      -1.617  -2.129   0.048  0.00  0.00    +0.047 A 
ATOM     18  C   UNL     1      -1.484  -0.752  -0.019  0.00  0.00    +0.039 A 
BRANCH  17  19
ATOM     19  N   UNL     1      -2.884  -2.718  -0.065  0.00  0.00    -0.323 N 
ATOM     20  C   UNL     1      -4.061  -2.047  -0.237  0.00  0.00    +0.091 A 
ATOM     21  C   UNL     1      -5.057  -2.954  -0.305  0.00  0.00    +0.019 A 
ATOM     22  C   UNL     1      -4.477  -4.230  -0.160  0.00  0.00    +0.019 A 
ATOM     23  C   UNL     1      -3.148  -4.057  -0.015  0.00  0.00    +0.091 A 
ENDBRANCH  17  19
ENDBRANCH  11  13
BRANCH  10  24
ATOM     24  C   UNL     1       1.201   3.289  -0.573  0.00  0.00    +0.117 C 
BRANCH  24  26
ATOM     25  C   UNL     1       1.792   5.429   0.573  0.00  0.00    +0.009 C 
ATOM     26  C   UNL     1       1.619   3.920   0.757  0.00  0.00    +0.001 C 
ATOM     27  C   UNL     1       0.540   3.655   1.809  0.00  0.00    +0.009 C 
ENDBRANCH  24  26
ENDBRANCH  10  24
ENDBRANCH   1  10
BRANCH   2  28
ATOM     28  N   UNL     1       1.038   0.104  -2.598  0.00  0.00    -0.343 N 
ATOM     29  H   UNL     1       1.015  -0.578  -3.461  0.00  0.00    +0.144 HD
ATOM     30  H   UNL     1       0.171   0.746  -2.382  0.00  0.00    +0.144 HD
ENDBRANCH   2  28
BRANCH   3  31
ATOM     31  C   UNL     1       3.215  -1.548  -3.207  0.00  0.00    +0.163 C 
BRANCH  31  32
ATOM     32  C   UNL     1       2.651  -2.881  -2.787  0.00  0.00    -0.028 A 
ATOM     33  C   UNL     1       3.495  -3.873  -2.324  0.00  0.00    +0.005 A 
ATOM     34  C   UNL     1       2.977  -5.095  -1.934  0.00  0.00    +0.000 A 
ATOM     35  C   UNL     1       1.617  -5.327  -2.017  0.00  0.00    +0.000 A 
ATOM     36  C   UNL     1       0.774  -4.336  -2.485  0.00  0.00    +0.000 A 
ATOM     37  C   UNL     1       1.291  -3.114  -2.870  0.00  0.00    +0.005 A 
ENDBRANCH  31  32
ENDBRANCH   3  31
TORSDOF 8
