REMARK  Name = ZINC06134196
REMARK  14 active torsions:
REMARK  status: ('A' for Active; 'I' for Inactive)
REMARK    1  A    between atoms: C_1  and  C_2
REMARK    2  A    between atoms: C_2  and  C_3
REMARK    3  A    between atoms: C_2  and  C_4
REMARK    4  A    between atoms: C_4  and  C_5
REMARK    5  A    between atoms: C_5  and  N_6
REMARK    6  A    between atoms: C_7  and  C_9
REMARK    7  A    between atoms: C_9  and  C_11
REMARK    8  A    between atoms: C_9  and  N_18
REMARK    9  A    between atoms: C_14  and  O_17
REMARK   10  A    between atoms: N_18  and  C_19
REMARK   11  A    between atoms: C_19  and  C_20
REMARK   12  A    between atoms: C_26  and  C_28
REMARK   13  A    between atoms: C_28  and  N_29
REMARK   14  A    between atoms: C_31  and  C_34
REMARK                            x       y       z     vdW  Elec       q    Type
REMARK                         _______ _______ _______ _____ _____    ______ ____
ROOT
ATOM      1  N   UNL     1       0.697  -2.921   0.389  0.00  0.00    -0.282 N 
ATOM      2  C   UNL     1      -0.627  -2.716   0.538  0.00  0.00    +0.240 C 
ATOM      3  O   UNL     1      -1.411  -3.243  -0.224  0.00  0.00    -0.273 OA
ENDROOT
BRANCH   1   4
ATOM      4  C   UNL     1       1.189  -3.778  -0.692  0.00  0.00    +0.192 C 
BRANCH   4   5
ATOM      5  C   UNL     1       0.800  -5.208  -0.415  0.00  0.00    -0.018 A 
ATOM      6  C   UNL     1       0.856  -5.701   0.876  0.00  0.00    +0.009 A 
ATOM      7  C   UNL     1       0.494  -7.009   1.133  0.00  0.00    +0.046 A 
ATOM      8  C   UNL     1       0.087  -7.832   0.093  0.00  0.00    +0.117 A 
ATOM      9  C   UNL     1       0.038  -7.337  -1.202  0.00  0.00    +0.046 A 
ATOM     10  C   UNL     1       0.395  -6.026  -1.453  0.00  0.00    +0.009 A 
BRANCH   8  11
ATOM     11  O   UNL     1      -0.264  -9.121   0.342  0.00  0.00    -0.507 OA
ATOM     12  H   UNL     1       0.471  -9.747   0.286  0.00  0.00    +0.292 HD
ENDBRANCH   8  11
ENDBRANCH   4   5
BRANCH   4  14
ATOM     13  N   UNL     1       3.398  -4.615  -1.426  0.00  0.00    -0.313 N 
ATOM     14  C   UNL     1       2.690  -3.672  -0.772  0.00  0.00    +0.238 C 
ATOM     15  O   UNL     1       3.261  -2.739  -0.250  0.00  0.00    -0.273 OA
ATOM     16  H   UNL     1       2.941  -5.362  -1.844  0.00  0.00    +0.149 HD
BRANCH  13  17
ATOM     17  C   UNL     1       4.857  -4.512  -1.505  0.00  0.00    +0.104 C 
BRANCH  17  18
ATOM     18  C   UNL     1       5.410  -5.700  -2.295  0.00  0.00    +0.022 C 
BRANCH  18  20
ATOM     19  C   UNL     1       7.531  -5.726  -0.975  0.00  0.00    +0.007 C 
ATOM     20  C   UNL     1       6.934  -5.592  -2.377  0.00  0.00    -0.016 C 
ATOM     21  C   UNL     1       7.477  -6.709  -3.271  0.00  0.00    +0.007 C 
ENDBRANCH  18  20
ENDBRANCH  17  18
ENDBRANCH  13  17
ENDBRANCH   4  14
ENDBRANCH   1   4
BRANCH   1  22
ATOM     22  C   UNL     1       1.643  -2.285   1.309  0.00  0.00    +0.140 C 
BRANCH  22  23
ATOM     23  C   UNL     1       2.011  -0.896   0.782  0.00  0.00    +0.136 C 
ATOM     24  C   UNL     1       3.081  -0.240   1.691  0.00  0.00    +0.035 C 
ATOM     25  C   UNL     1       2.826   1.265   1.408  0.00  0.00    +0.031 C 
ATOM     26  C   UNL     1       1.297   1.304   1.196  0.00  0.00    +0.160 C 
ATOM     27  O   UNL     1       0.875  -0.020   0.849  0.00  0.00    -0.375 OA
ENDBRANCH  22  23
ENDBRANCH   1  22
BRANCH   2  28
ATOM     28  C   UNL     1      -1.134  -1.834   1.649  0.00  0.00    +0.264 C 
BRANCH  28  29
ATOM     29  N   UNL     1      -2.597  -1.774   1.597  0.00  0.00    -0.154 N 
ATOM     30  N   UNL     1      -3.284  -0.905   0.938  0.00  0.00    -0.130 NA
ATOM     31  C   UNL     1      -4.560  -1.171   1.130  0.00  0.00    +0.205 A 
ATOM     32  N   UNL     1      -4.613  -2.236   1.942  0.00  0.00    -0.108 NA
ATOM     33  N   UNL     1      -3.397  -2.576   2.206  0.00  0.00    -0.045 NA
BRANCH  31  34
ATOM     34  C   UNL     1      -5.715  -0.431   0.561  0.00  0.00    +0.023 A 
ATOM     35  C   UNL     1      -5.501   0.668  -0.268  0.00  0.00    +0.014 A 
ATOM     36  C   UNL     1      -6.577   1.350  -0.798  0.00  0.00    +0.039 A 
ATOM     37  C   UNL     1      -7.869   0.950  -0.498  0.00  0.00    +0.123 A 
ATOM     38  C   UNL     1      -8.086  -0.139   0.330  0.00  0.00    +0.039 A 
ATOM     39  C   UNL     1      -7.016  -0.830   0.860  0.00  0.00    +0.014 A 
ATOM     40  F   UNL     1      -8.920   1.623  -1.015  0.00  0.00    -0.205 F 
ENDBRANCH  31  34
ENDBRANCH  28  29
ENDBRANCH   2  28
TORSDOF 12
