REMARK  Name = ZINC16735363
REMARK  12 active torsions:
REMARK  status: ('A' for Active; 'I' for Inactive)
REMARK    1  A    between atoms: C_1  and  C_2
REMARK    2  A    between atoms: C_2  and  O_3
REMARK    3  A    between atoms: O_3  and  C_4
REMARK    4  A    between atoms: C_4  and  C_6
REMARK    5  A    between atoms: C_7  and  C_31
REMARK    6  A    between atoms: C_10  and  N_11
REMARK    7  A    between atoms: N_11  and  C_12
REMARK    8  A    between atoms: C_12  and  C_14
REMARK    9  A    between atoms: C_12  and  N_23
REMARK   10  A    between atoms: C_14  and  C_16
REMARK   11  A    between atoms: C_24  and  C_26
REMARK   12  A    between atoms: C_34  and  C_37
REMARK                            x       y       z     vdW  Elec       q    Type
REMARK                         _______ _______ _______ _____ _____    ______ ____
ROOT
ATOM      1  N   UNL     1       3.913   5.561   1.232  0.00  0.00    -0.314 N 
ATOM      2  H   UNL     1       4.814   5.499   1.586  0.00  0.00    +0.149 HD
ENDROOT
BRANCH   1   7
ATOM      3  C   UNL     1       3.117   7.081   3.041  0.00  0.00    +0.095 A 
ATOM      4  C   UNL     1       1.947   7.806   3.503  0.00  0.00    +0.005 A 
ATOM      5  C   UNL     1       0.818   7.678   2.763  0.00  0.00    +0.056 A 
ATOM      6  S   UNL     1       1.314   6.593   1.441  0.00  0.00    -0.081 S 
ATOM      7  C   UNL     1       2.968   6.333   1.879  0.00  0.00    +0.082 A 
BRANCH   4   8
ATOM      8  C   UNL     1       1.984   8.642   4.727  0.00  0.00    -0.017 A 
ATOM      9  C   UNL     1       2.493   8.121   5.915  0.00  0.00    +0.009 A 
ATOM     10  C   UNL     1       2.529   8.905   7.050  0.00  0.00    +0.004 A 
ATOM     11  C   UNL     1       2.051  10.203   7.012  0.00  0.00    -0.050 A 
ATOM     12  C   UNL     1       1.540  10.724   5.837  0.00  0.00    +0.004 A 
ATOM     13  C   UNL     1       1.504   9.951   4.695  0.00  0.00    +0.009 A 
ATOM     14  C   UNL     1       2.088  11.053   8.256  0.00  0.00    +0.044 C 
ENDBRANCH   4   8
BRANCH   3  15
ATOM     15  C   UNL     1       4.350   7.135   3.739  0.00  0.00    +0.342 C 
ATOM     16  O   UNL     1       5.167   7.994   3.464  0.00  0.00    -0.245 OA
BRANCH  15  17
ATOM     17  O   UNL     1       4.618   6.235   4.708  0.00  0.00    -0.461 OA
BRANCH  17  19
ATOM     18  C   UNL     1       6.002   5.250   6.427  0.00  0.00    +0.048 C 
ATOM     19  C   UNL     1       5.879   6.349   5.369  0.00  0.00    +0.229 C 
ENDBRANCH  17  19
ENDBRANCH  15  17
ENDBRANCH   3  15
ENDBRANCH   1   7
BRANCH   1  20
ATOM     20  C   UNL     1       3.555   4.836   0.010  0.00  0.00    +0.232 C 
BRANCH  20  21
ATOM     21  N   UNL     1       3.408   3.410   0.314  0.00  0.00    -0.284 N 
ATOM     22  C   UNL     1       2.180   2.861   0.389  0.00  0.00    +0.281 C 
ATOM     23  O   UNL     1       1.193   3.548   0.205  0.00  0.00    -0.267 OA
ATOM     24  H   UNL     1       4.195   2.862   0.460  0.00  0.00    +0.151 HD
BRANCH  22  25
ATOM     25  C   UNL     1       2.033   1.433   0.693  0.00  0.00    +0.189 A 
ATOM     26  C   UNL     1       0.854   0.753   0.799  0.00  0.00    +0.054 A 
ATOM     27  C   UNL     1       1.182  -0.579   1.099  0.00  0.00    +0.042 A 
ATOM     28  C   UNL     1       2.530  -0.651   1.162  0.00  0.00    +0.196 A 
ATOM     29  O   UNL     1       3.039   0.563   0.917  0.00  0.00    -0.458 OA
ENDBRANCH  22  25
ENDBRANCH  20  21
BRANCH  20  30
ATOM     30  C   UNL     1       4.639   5.021  -1.020  0.00  0.00    +0.201 C 
ATOM     31  O   UNL     1       5.494   5.865  -0.855  0.00  0.00    -0.288 OA
BRANCH  30  32
ATOM     32  C   UNL     1       4.660   4.179  -2.225  0.00  0.00    +0.021 A 
ATOM     33  C   UNL     1       5.732   4.258  -3.120  0.00  0.00    +0.013 A 
ATOM     34  C   UNL     1       5.748   3.461  -4.244  0.00  0.00    +0.021 A 
ATOM     35  C   UNL     1       4.698   2.592  -4.496  0.00  0.00    +0.041 A 
ATOM     36  C   UNL     1       3.629   2.513  -3.618  0.00  0.00    +0.021 A 
ATOM     37  C   UNL     1       3.603   3.299  -2.486  0.00  0.00    +0.013 A 
ATOM     38 CL   UNL     1       4.723   1.598  -5.919  0.00  0.00    -0.084 Cl
ENDBRANCH  30  32
ENDBRANCH  20  30
ENDBRANCH   1  20
TORSDOF 10
