REMARK  Name = ZINC38837789
REMARK  10 active torsions:
REMARK  status: ('A' for Active; 'I' for Inactive)
REMARK    1  A    between atoms: C_1  and  C_2
REMARK    2  A    between atoms: N_11  and  C_12
REMARK    3  A    between atoms: C_12  and  C_13
REMARK    4  A    between atoms: C_13  and  C_14
REMARK    5  A    between atoms: C_14  and  N_15
REMARK    6  A    between atoms: N_15  and  C_16
REMARK    7  A    between atoms: N_15  and  C_17
REMARK    8  A    between atoms: C_18  and  C_20
REMARK    9  A    between atoms: N_25  and  S_26
REMARK   10  A    between atoms: S_26  and  C_29
REMARK                            x       y       z     vdW  Elec       q    Type
REMARK                         _______ _______ _______ _____ _____    ______ ____
ROOT
ATOM      1  C   UNL     1      -1.444   1.298   0.194  0.00  0.00    +0.046 C 
ATOM      2  C   UNL     1      -0.613   0.053   0.023  0.00  0.00    -0.023 A 
ATOM      3  C   UNL     1      -0.488  -0.513  -1.219  0.00  0.00    +0.025 A 
ATOM      4  C   UNL     1       0.267  -1.661  -1.420  0.00  0.00    +0.042 A 
ATOM      5  C   UNL     1       0.909  -2.247  -0.343  0.00  0.00    +0.037 A 
ATOM      6  C   UNL     1       0.788  -1.686   0.904  0.00  0.00    +0.042 A 
ATOM      7  C   UNL     1       0.033  -0.516   1.145  0.00  0.00    +0.083 A 
ATOM      8  N   UNL     1       0.015  -0.084   2.425  0.00  0.00    -0.224 NA
ATOM      9  C   UNL     1       0.659  -0.702   3.387  0.00  0.00    +0.168 A 
ATOM     10  S   UNL     1       1.409  -2.075   2.523  0.00  0.00    -0.052 S 
ATOM     11  N   UNL     1       0.732  -0.377   4.732  0.00  0.00    -0.249 N 
ATOM     12  C   UNL     1       0.081   0.706   5.200  0.00  0.00    +0.240 C 
ATOM     13  O   UNL     1      -0.638   1.346   4.463  0.00  0.00    -0.273 OA
ATOM     14 CL   UNL     1       0.405  -2.353  -3.006  0.00  0.00    -0.083 Cl
ENDROOT
BRANCH  12  15
ATOM     15  C   UNL     1       0.248   1.121   6.639  0.00  0.00    +0.166 C 
ATOM     16  C   UNL     1      -0.861   0.482   7.502  0.00  0.00    +0.031 C 
ATOM     17  C   UNL     1      -1.212   1.610   8.508  0.00  0.00    +0.019 C 
ATOM     18  C   UNL     1      -1.047   2.874   7.628  0.00  0.00    +0.110 C 
ATOM     19  N   UNL     1       0.110   2.580   6.757  0.00  0.00    -0.164 NA
BRANCH  19  20
ATOM     20  S   UNL     1       1.089   3.704   6.035  0.00  0.00    +0.068 S 
ATOM     21  O   UNL     1       0.989   4.890   6.811  0.00  0.00    -0.152 OA
ATOM     22  O   UNL     1       2.331   3.060   5.785  0.00  0.00    -0.152 OA
BRANCH  20  23
ATOM     23  C   UNL     1       0.388   4.071   4.461  0.00  0.00    +0.143 A 
ATOM     24  C   UNL     1      -0.516   5.026   4.131  0.00  0.00    +0.036 A 
ATOM     25  C   UNL     1      -0.928   5.133   2.816  0.00  0.00    +0.010 A 
ATOM     26  C   UNL     1      -0.418   4.279   1.895  0.00  0.00    +0.047 A 
ATOM     27  S   UNL     1       0.688   3.287   2.885  0.00  0.00    -0.077 S 
ENDBRANCH  20  23
ENDBRANCH  19  20
ENDBRANCH  12  15
BRANCH  11  28
ATOM     28  C   UNL     1       1.517  -1.212   5.645  0.00  0.00    +0.114 C 
BRANCH  28  29
ATOM     29  C   UNL     1       2.973  -0.743   5.641  0.00  0.00    +0.001 C 
BRANCH  29  30
ATOM     30  C   UNL     1       3.792  -1.614   6.595  0.00  0.00    -0.078 C 
BRANCH  30  31
ATOM     31  N   UNL     1       5.190  -1.163   6.592  0.00  0.00    +0.376 N 
ATOM     32  C   UNL     1       5.952  -1.920   7.594  0.00  0.00    -0.097 C 
ATOM     33  C   UNL     1       5.774  -1.388   5.262  0.00  0.00    -0.097 C 
ATOM     34  H   UNL     1       5.227  -0.180   6.814  0.00  0.00    -0.083 HD
ENDBRANCH  30  31
ENDBRANCH  29  30
ENDBRANCH  28  29
ENDBRANCH  11  28
TORSDOF 7
