REMARK  Name = ZINC63558360
REMARK  6 active torsions:
REMARK  status: ('A' for Active; 'I' for Inactive)
REMARK    1  A    between atoms: C_1  and  N_2
REMARK    2  A    between atoms: N_2  and  C_3
REMARK    3  A    between atoms: N_2  and  S_15
REMARK    4  A    between atoms: C_3  and  C_4
REMARK    5  A    between atoms: N_6  and  C_7
REMARK    6  A    between atoms: S_15  and  C_18
REMARK                            x       y       z     vdW  Elec       q    Type
REMARK                         _______ _______ _______ _____ _____    ______ ____
ROOT
ATOM      1  S   UNL     1      -0.000  -0.824  -1.437  0.00  0.00    +0.061 S 
ATOM      2  O   UNL     1      -0.531  -2.115  -1.167  0.00  0.00    -0.153 OA
ATOM      3  O   UNL     1      -0.572   0.049  -2.401  0.00  0.00    -0.153 OA
ENDROOT
BRANCH   1   4
ATOM      4  C   UNL     1       1.682  -1.059  -1.905  0.00  0.00    +0.106 C 
ATOM      5  C   UNL     1       2.230  -2.312  -1.876  0.00  0.00    +0.035 C 
ATOM      6  C   UNL     1       3.595  -2.373  -2.214  0.00  0.00    -0.013 C 
ATOM      7  C   UNL     1       4.347  -3.311  -2.807  0.00  0.00    -0.021 C 
ATOM      8  C   UNL     1       3.967  -4.747  -3.092  0.00  0.00    +0.037 C 
ATOM      9  C   UNL     1       4.896  -5.284  -4.187  0.00  0.00    +0.005 C 
ATOM     10  C   UNL     1       6.353  -5.018  -3.804  0.00  0.00    +0.006 C 
ATOM     11  C   UNL     1       6.659  -3.522  -3.932  0.00  0.00    +0.055 C 
ATOM     12  C   UNL     1       5.604  -2.752  -3.164  0.00  0.00    +0.040 C 
ATOM     13  N   UNL     1       5.730  -1.530  -2.731  0.00  0.00    -0.276 NA
ATOM     14  C   UNL     1       4.536  -1.205  -1.967  0.00  0.00    +0.159 C 
ATOM     15  C   UNL     1       3.824   0.044  -2.390  0.00  0.00    +0.006 C 
ATOM     16  C   UNL     1       2.487   0.082  -2.330  0.00  0.00    +0.027 C 
ENDBRANCH   1   4
BRANCH   1  18
ATOM     17  C   UNL     1      -0.018   1.461   0.010  0.00  0.00    +0.132 C 
ATOM     18  N   UNL     1       0.002  -0.004   0.002  0.00  0.00    -0.171 NA
BRANCH  18  19
ATOM     19  C   UNL     1       0.024  -0.743   1.267  0.00  0.00    +0.204 C 
BRANCH  19  20
ATOM     20  C   UNL     1      -1.384  -0.909   1.776  0.00  0.00    +0.229 C 
ATOM     21  O   UNL     1      -2.315  -0.455   1.145  0.00  0.00    -0.274 OA
ATOM     22  N   UNL     1      -1.610  -1.563   2.933  0.00  0.00    -0.311 N 
ATOM     23  H   UNL     1      -0.866  -1.926   3.438  0.00  0.00    +0.149 HD
BRANCH  22  24
ATOM     24  C   UNL     1      -2.979  -1.724   3.429  0.00  0.00    +0.073 C 
ATOM     25  C   UNL     1      -3.384  -0.480   4.222  0.00  0.00    +0.022 C 
ATOM     26  C   UNL     1      -4.904  -0.460   4.398  0.00  0.00    +0.002 C 
ATOM     27  C   UNL     1      -5.576  -0.827   3.074  0.00  0.00    +0.000 C 
ATOM     28  C   UNL     1      -6.282  -2.177   3.217  0.00  0.00    +0.000 C 
ATOM     29  C   UNL     1      -5.244  -3.300   3.187  0.00  0.00    +0.000 C 
ATOM     30  C   UNL     1      -4.515  -3.357   4.531  0.00  0.00    +0.002 C 
ATOM     31  C   UNL     1      -3.052  -2.954   4.336  0.00  0.00    +0.022 C 
ENDBRANCH  22  24
ENDBRANCH  19  20
ENDBRANCH  18  19
ENDBRANCH   1  18
TORSDOF 5
