REMARK  Name = ZINC09111301
REMARK  8 active torsions:
REMARK  status: ('A' for Active; 'I' for Inactive)
REMARK    1  A    between atoms: C_1  and  C_2
REMARK    2  A    between atoms: C_16  and  C_33
REMARK    3  A    between atoms: C_18  and  C_27
REMARK    4  A    between atoms: C_27  and  C_29
REMARK    5  A    between atoms: C_29  and  C_30
REMARK    6  A    between atoms: C_29  and  C_31
REMARK    7  A    between atoms: C_29  and  C_32
REMARK    8  A    between atoms: C_33  and  C_35
REMARK                            x       y       z     vdW  Elec       q    Type
REMARK                         _______ _______ _______ _____ _____    ______ ____
ROOT
ATOM      1  C   UNL     1       6.211  -0.604  -1.115  0.00  0.00    +0.044 C 
ATOM      2  C   UNL     1       5.040   0.340  -1.031  0.00  0.00    -0.044 C 
ATOM      3  C   UNL     1       4.886   1.171   0.017  0.00  0.00    +0.000 C 
ATOM      4  C   UNL     1       3.681   2.060  -0.015  0.00  0.00    +0.118 C 
ATOM      5  C   UNL     1       3.232   2.604   1.333  0.00  0.00    +0.108 C 
ATOM      6  C   UNL     1       3.822   3.937   1.644  0.00  0.00    -0.008 A 
ATOM      7  C   UNL     1       3.776   5.143   0.977  0.00  0.00    +0.006 A 
ATOM      8  C   UNL     1       4.451   6.211   1.556  0.00  0.00    +0.000 A 
ATOM      9  C   UNL     1       5.135   6.070   2.747  0.00  0.00    +0.002 A 
ATOM     10  C   UNL     1       5.185   4.862   3.424  0.00  0.00    +0.023 A 
ATOM     11  C   UNL     1       4.512   3.780   2.854  0.00  0.00    +0.038 A 
ATOM     12  N   UNL     1       4.398   2.477   3.307  0.00  0.00    -0.284 N 
ATOM     13  C   UNL     1       3.661   1.713   2.472  0.00  0.00    +0.231 C 
ATOM     14  O   UNL     1       3.395   0.538   2.611  0.00  0.00    -0.274 OA
ATOM     15  C   UNL     1       1.694   2.671   1.243  0.00  0.00    +0.109 C 
ATOM     16  C   UNL     1       1.357   2.094  -0.161  0.00  0.00    +0.153 C 
ATOM     17  N   UNL     1       2.518   1.251  -0.472  0.00  0.00    -0.311 N 
ATOM     18  C   UNL     1       2.720   0.858  -1.773  0.00  0.00    +0.038 A 
ATOM     19  C   UNL     1       4.013   0.390  -2.099  0.00  0.00    -0.001 A 
ATOM     20  C   UNL     1       4.293  -0.015  -3.397  0.00  0.00    +0.010 A 
ATOM     21  C   UNL     1       3.302   0.037  -4.359  0.00  0.00    +0.001 A 
ATOM     22  C   UNL     1       2.035   0.491  -4.036  0.00  0.00    +0.002 A 
ATOM     23  C   UNL     1       1.743   0.900  -2.747  0.00  0.00    +0.024 A 
ATOM     24  H   UNL     1       4.801   2.151   4.128  0.00  0.00    +0.155 HD
ENDROOT
BRANCH  16  25
ATOM     25  C   UNL     1       0.099   1.266  -0.108  0.00  0.00    +0.160 C 
ATOM     26  O   UNL     1       0.170   0.066   0.006  0.00  0.00    -0.295 OA
BRANCH  25  27
ATOM     27  C   UNL     1      -1.248   1.936  -0.203  0.00  0.00    +0.022 C 
ATOM     28  C   UNL     1      -2.351   0.891  -0.019  0.00  0.00    +0.018 C 
ATOM     29  C   UNL     1      -1.367   3.001   0.889  0.00  0.00    +0.018 C 
ATOM     30  C   UNL     1      -1.394   2.595  -1.576  0.00  0.00    +0.018 C 
ENDBRANCH  25  27
ENDBRANCH  16  25
BRANCH  15  31
ATOM     31  C   UNL     1       1.067   1.825   2.322  0.00  0.00    +0.170 C 
ATOM     32  O   UNL     1       0.970   0.626   2.173  0.00  0.00    -0.292 OA
BRANCH  31  33
ATOM     33  C   UNL     1       0.574   2.455   3.557  0.00  0.00    +0.018 A 
ATOM     34  C   UNL     1       0.792   3.817   3.787  0.00  0.00    +0.011 A 
ATOM     35  C   UNL     1       0.322   4.402   4.944  0.00  0.00    +0.001 A 
ATOM     36  C   UNL     1      -0.355   3.641   5.882  0.00  0.00    +0.000 A 
ATOM     37  C   UNL     1      -0.570   2.292   5.664  0.00  0.00    +0.001 A 
ATOM     38  C   UNL     1      -0.111   1.694   4.510  0.00  0.00    +0.011 A 
ENDBRANCH  31  33
ENDBRANCH  15  31
TORSDOF 4
