REMARK  Name = ZINC58647286
REMARK  8 active torsions:
REMARK  status: ('A' for Active; 'I' for Inactive)
REMARK    1  A    between atoms: C_1  and  C_2
REMARK    2  A    between atoms: C_2  and  C_3
REMARK    3  A    between atoms: C_2  and  C_4
REMARK    4  A    between atoms: C_7  and  C_10
REMARK    5  A    between atoms: C_10  and  C_12
REMARK    6  A    between atoms: C_10  and  N_17
REMARK    7  A    between atoms: N_17  and  S_18
REMARK    8  A    between atoms: S_18  and  C_21
REMARK                            x       y       z     vdW  Elec       q    Type
REMARK                         _______ _______ _______ _____ _____    ______ ____
ROOT
ATOM      1  N   UNL     1       3.145  -3.252  -4.553  0.00  0.00    -0.178 NA
ATOM      2  H   UNL     1       3.441  -3.545  -3.678  0.00  0.00    +0.149 HD
ENDROOT
BRANCH   1   3
ATOM      3  S   UNL     1       3.135  -4.314  -5.824  0.00  0.00    +0.059 S 
ATOM      4  O   UNL     1       3.633  -5.548  -5.325  0.00  0.00    -0.153 OA
ATOM      5  O   UNL     1       1.859  -4.201  -6.438  0.00  0.00    -0.153 OA
BRANCH   3   6
ATOM      6  C   UNL     1       4.313  -3.733  -6.998  0.00  0.00    +0.106 A 
ATOM      7  C   UNL     1       3.918  -2.851  -7.992  0.00  0.00    +0.030 A 
ATOM      8  C   UNL     1       4.826  -2.384  -8.921  0.00  0.00    +0.028 A 
ATOM      9  C   UNL     1       6.147  -2.801  -8.861  0.00  0.00    +0.056 A 
ATOM     10  C   UNL     1       6.549  -3.696  -7.854  0.00  0.00    +0.065 A 
ATOM     11  C   UNL     1       5.624  -4.155  -6.920  0.00  0.00    +0.043 A 
ATOM     12  C   UNL     1       7.961  -4.118  -7.820  0.00  0.00    +0.262 A 
ATOM     13  O   UNL     1       8.360  -4.890  -6.970  0.00  0.00    -0.267 OA
ATOM     14  N   UNL     1       8.799  -3.625  -8.757  0.00  0.00    -0.275 N 
ATOM     15  H   UNL     1       9.732  -3.892  -8.749  0.00  0.00    +0.173 HD
ATOM     16  C   UNL     1       8.367  -2.772  -9.699  0.00  0.00    +0.327 A 
ATOM     17  O   UNL     1       9.164  -2.358 -10.518  0.00  0.00    -0.247 OA
ATOM     18  N   UNL     1       7.092  -2.356  -9.775  0.00  0.00    -0.307 N 
ATOM     19  H   UNL     1       6.829  -1.738 -10.475  0.00  0.00    +0.170 HD
ENDBRANCH   3   6
ENDBRANCH   1   3
BRANCH   1  20
ATOM     20  C   UNL     1       2.707  -1.868  -4.752  0.00  0.00    +0.143 C 
BRANCH  20  24
ATOM     21  C   UNL     1       0.707  -0.490  -1.238  0.00  0.00    -0.045 A 
ATOM     22  C   UNL     1       0.222  -0.151  -2.487  0.00  0.00    +0.004 A 
ATOM     23  C   UNL     1       0.869  -0.597  -3.624  0.00  0.00    +0.006 A 
ATOM     24  C   UNL     1       2.002  -1.381  -3.513  0.00  0.00    -0.024 A 
ATOM     25  C   UNL     1       2.488  -1.720  -2.263  0.00  0.00    +0.006 A 
ATOM     26  C   UNL     1       1.843  -1.270  -1.126  0.00  0.00    +0.004 A 
BRANCH  21  28
ATOM     27  C   UNL     1      -0.019   1.526   0.010  0.00  0.00    +0.012 C 
ATOM     28  C   UNL     1       0.002  -0.004   0.002  0.00  0.00    +0.013 C 
ATOM     29  C   UNL     1      -1.433  -0.534   0.013  0.00  0.00    +0.012 C 
ENDBRANCH  21  28
ENDBRANCH  20  24
BRANCH  20  30
ATOM     30  C   UNL     1       3.905  -0.996  -5.024  0.00  0.00    +0.013 A 
ATOM     31  C   UNL     1       4.033   0.029  -5.903  0.00  0.00    +0.013 A 
ATOM     32  C   UNL     1       5.241   0.696  -5.982  0.00  0.00    +0.008 A 
ATOM     33  C   UNL     1       6.261   0.307  -5.180  0.00  0.00    +0.045 A 
ATOM     34  S   UNL     1       5.521  -1.038  -4.268  0.00  0.00    -0.100 S 
ENDBRANCH  20  30
ENDBRANCH   1  20
TORSDOF 6
