REMARK  Name = ZINC59461721
REMARK  6 active torsions:
REMARK  status: ('A' for Active; 'I' for Inactive)
REMARK    1  A    between atoms: C_1  and  C_2
REMARK    2  A    between atoms: C_5  and  C_8
REMARK    3  A    between atoms: N_13  and  N_14
REMARK    4  A    between atoms: C_16  and  C_24
REMARK    5  A    between atoms: N_18  and  C_21
REMARK    6  A    between atoms: C_21  and  N_23
REMARK                            x       y       z     vdW  Elec       q    Type
REMARK                         _______ _______ _______ _____ _____    ______ ____
ROOT
ATOM      1  N   UNL     1       0.115  -8.468   1.834  0.00  0.00    -0.140 NA
ATOM      2  C   UNL     1       0.127  -9.344   2.841  0.00  0.00    +0.177 C 
ATOM      3  C   UNL     1       0.153 -10.812   2.742  0.00  0.00    +0.122 C 
ATOM      4  N   UNL     1       0.157 -11.283   3.965  0.00  0.00    -0.168 NA
ATOM      5  N   UNL     1       0.136 -10.230   4.881  0.00  0.00    -0.134 N 
ATOM      6  C   UNL     1       0.123  -9.052   4.228  0.00  0.00    +0.294 C 
ATOM      7  O   UNL     1       0.107  -7.942   4.734  0.00  0.00    -0.266 OA
ENDROOT
BRANCH   1  13
ATOM      8  C   UNL     1       0.059  -4.252  -0.021  0.00  0.00    +0.055 A 
ATOM      9  C   UNL     1       0.069  -4.957  -1.180  0.00  0.00    +0.075 A 
ATOM     10  S   UNL     1       0.091  -6.637  -0.583  0.00  0.00    -0.056 S 
ATOM     11  C   UNL     1       0.086  -6.323   1.068  0.00  0.00    +0.192 A 
ATOM     12  N   UNL     1       0.074  -4.972   1.133  0.00  0.00    -0.332 N 
ATOM     13  N   UNL     1       0.098  -7.202   2.080  0.00  0.00    -0.123 NA
ATOM     14  H   UNL     1       0.073  -4.522   1.993  0.00  0.00    +0.168 HD
BRANCH   8  19
ATOM     15  C   UNL     1      -0.018   1.503   0.010  0.00  0.00    +0.044 C 
ATOM     16  C   UNL     1       0.002  -0.004   0.002  0.00  0.00    -0.050 A 
ATOM     17  C   UNL     1       0.006  -0.686  -1.202  0.00  0.00    +0.004 A 
ATOM     18  C   UNL     1       0.024  -2.066  -1.216  0.00  0.00    +0.010 A 
ATOM     19  C   UNL     1       0.040  -2.773  -0.013  0.00  0.00    -0.001 A 
ATOM     20  C   UNL     1       0.036  -2.079   1.197  0.00  0.00    +0.010 A 
ATOM     21  C   UNL     1       0.023  -0.699   1.198  0.00  0.00    +0.004 A 
ENDBRANCH   8  19
ENDBRANCH   1  13
BRANCH   3  22
ATOM     22  C   UNL     1       0.170 -11.610   1.493  0.00  0.00    +0.004 A 
ATOM     23  C   UNL     1       0.167 -10.970   0.254  0.00  0.00    +0.010 A 
ATOM     24  C   UNL     1       0.183 -11.717  -0.906  0.00  0.00    +0.001 A 
ATOM     25  C   UNL     1       0.202 -13.099  -0.841  0.00  0.00    +0.000 A 
ATOM     26  C   UNL     1       0.204 -13.740   0.385  0.00  0.00    +0.001 A 
ATOM     27  C   UNL     1       0.194 -13.003   1.552  0.00  0.00    +0.010 A 
ENDBRANCH   3  22
BRANCH   5  28
ATOM     28  C   UNL     1       0.134 -10.370   6.222  0.00  0.00    +0.158 C 
ATOM     29  S   UNL     1       0.106  -8.985   7.228  0.00  0.00    -0.017 S 
BRANCH  28  30
ATOM     30  N   UNL     1       0.154 -11.601   6.770  0.00  0.00    -0.339 N 
ATOM     31  H   UNL     1       0.170 -12.386   6.200  0.00  0.00    +0.144 HD
ATOM     32  H   UNL     1       0.152 -11.703   7.735  0.00  0.00    +0.144 HD
ENDBRANCH  28  30
ENDBRANCH   5  28
TORSDOF 5
