REMARK  Name = ZINC36637815
REMARK  16 active torsions:
REMARK  status: ('A' for Active; 'I' for Inactive)
REMARK    1  A    between atoms: C_1  and  C_2
REMARK    2  A    between atoms: C_2  and  C_3
REMARK    3  A    between atoms: C_3  and  C_4
REMARK    4  A    between atoms: C_4  and  N_5
REMARK    5  A    between atoms: N_5  and  C_6
REMARK    6  A    between atoms: N_5  and  S_8
REMARK    7  A    between atoms: C_6  and  C_7
REMARK    8  A    between atoms: S_8  and  C_11
REMARK    9  A    between atoms: C_14  and  C_17
REMARK   10  A    between atoms: N_19  and  C_20
REMARK   11  A    between atoms: C_20  and  C_21
REMARK   12  A    between atoms: C_21  and  N_22
REMARK   13  A    between atoms: N_22  and  C_23
REMARK   14  A    between atoms: N_22  and  C_25
REMARK   15  A    between atoms: C_23  and  C_24
REMARK   16  A    between atoms: C_25  and  C_26
REMARK                            x       y       z     vdW  Elec       q    Type
REMARK                         _______ _______ _______ _____ _____    ______ ____
ROOT
ATOM      1  C   UNL     1      -6.223   1.954   3.383  0.00  0.00    +0.252 C 
ATOM      2  O   UNL     1      -5.647   2.674   4.175  0.00  0.00    -0.270 OA
ATOM      3  N   UNL     1      -7.483   2.244   3.002  0.00  0.00    -0.248 N 
ATOM      4  C   UNL     1      -8.072   3.431   3.405  0.00  0.00    +0.168 A 
ATOM      5  N   UNL     1      -9.277   3.882   3.144  0.00  0.00    -0.224 NA
ATOM      6  C   UNL     1      -9.724   5.070   3.607  0.00  0.00    +0.080 A 
ATOM      7  C   UNL     1     -10.989   5.667   3.400  0.00  0.00    +0.032 A 
ATOM      8  C   UNL     1     -11.284   6.889   3.945  0.00  0.00    +0.040 A 
ATOM      9  C   UNL     1     -10.359   7.583   4.715  0.00  0.00    +0.125 A 
ATOM     10  C   UNL     1      -9.111   7.027   4.938  0.00  0.00    +0.055 A 
ATOM     11  C   UNL     1      -8.808   5.803   4.395  0.00  0.00    +0.043 A 
ATOM     12  S   UNL     1      -7.389   4.735   4.418  0.00  0.00    -0.052 S 
ATOM     13  F   UNL     1     -10.674   8.787   5.240  0.00  0.00    -0.205 F 
ENDROOT
BRANCH   1  17
ATOM     14  C   UNL     1      -4.266  -1.474   1.816  0.00  0.00    +0.106 A 
ATOM     15  C   UNL     1      -3.597  -0.265   1.873  0.00  0.00    +0.029 A 
ATOM     16  C   UNL     1      -4.227   0.853   2.381  0.00  0.00    +0.015 A 
ATOM     17  C   UNL     1      -5.543   0.761   2.837  0.00  0.00    +0.037 A 
ATOM     18  C   UNL     1      -6.212  -0.462   2.777  0.00  0.00    +0.015 A 
ATOM     19  C   UNL     1      -5.573  -1.571   2.263  0.00  0.00    +0.029 A 
BRANCH  14  20
ATOM     20  S   UNL     1      -3.455  -2.897   1.166  0.00  0.00    +0.061 S 
ATOM     21  O   UNL     1      -4.112  -4.028   1.720  0.00  0.00    -0.153 OA
ATOM     22  O   UNL     1      -2.060  -2.674   1.321  0.00  0.00    -0.153 OA
BRANCH  20  23
ATOM     23  N   UNL     1      -3.751  -2.927  -0.463  0.00  0.00    -0.177 NA
BRANCH  23  24
ATOM     24  C   UNL     1      -4.928  -3.631  -0.981  0.00  0.00    +0.106 C 
ATOM     25  C   UNL     1      -4.532  -5.049  -1.396  0.00  0.00    +0.022 C 
ENDBRANCH  23  24
BRANCH  23  26
ATOM     26  C   UNL     1      -2.837  -2.251  -1.387  0.00  0.00    +0.109 C 
BRANCH  26  27
ATOM     27  C   UNL     1      -3.362  -0.846  -1.688  0.00  0.00    +0.017 C 
BRANCH  27  29
ATOM     28  C   UNL     1      -2.933   1.265  -2.953  0.00  0.00    +0.004 C 
ATOM     29  C   UNL     1      -2.407  -0.140  -2.653  0.00  0.00    -0.002 C 
ENDBRANCH  27  29
ENDBRANCH  26  27
ENDBRANCH  23  26
ENDBRANCH  20  23
ENDBRANCH  14  20
ENDBRANCH   1  17
BRANCH   3  30
ATOM     30  C   UNL     1      -8.230   1.304   2.163  0.00  0.00    +0.097 C 
BRANCH  30  31
ATOM     31  C   UNL     1      -9.185   0.488   3.036  0.00  0.00    -0.059 C 
BRANCH  31  32
ATOM     32  N   UNL     1      -9.953  -0.436   2.191  0.00  0.00    +0.380 N 
ATOM     33  H   UNL     1     -10.411   0.082   1.456  0.00  0.00    -0.082 HD
BRANCH  32  34
ATOM     34  C   UNL     1      -9.046  -1.427   1.599  0.00  0.00    -0.082 C 
ATOM     35  C   UNL     1      -9.823  -2.312   0.622  0.00  0.00    -0.017 C 
ENDBRANCH  32  34
BRANCH  32  36
ATOM     36  C   UNL     1     -10.963  -1.123   3.008  0.00  0.00    -0.082 C 
ATOM     37  C   UNL     1     -12.002  -0.110   3.492  0.00  0.00    -0.017 C 
ENDBRANCH  32  36
ENDBRANCH  31  32
ENDBRANCH  30  31
ENDBRANCH   3  30
TORSDOF 12
