REMARK  Name = ZINC01119451
REMARK  10 active torsions:
REMARK  status: ('A' for Active; 'I' for Inactive)
REMARK    1  A    between atoms: C_1  and  C_2
REMARK    2  A    between atoms: C_2  and  O_3
REMARK    3  A    between atoms: O_3  and  C_4
REMARK    4  A    between atoms: C_6  and  C_15
REMARK    5  A    between atoms: C_9  and  O_10
REMARK    6  A    between atoms: O_10  and  C_11
REMARK    7  A    between atoms: C_11  and  C_12
REMARK    8  A    between atoms: C_18  and  C_29
REMARK    9  A    between atoms: C_24  and  N_28
REMARK   10  A    between atoms: C_25  and  C_26
REMARK                            x       y       z     vdW  Elec       q    Type
REMARK                         _______ _______ _______ _____ _____    ______ ____
ROOT
ATOM      1  C   UNL     1       0.312  -4.887   0.064  0.00  0.00    +0.102 C 
ATOM      2  C   UNL     1       0.551  -5.726   1.293  0.00  0.00    +0.054 A 
ATOM      3  C   UNL     1       1.012  -5.336   2.554  0.00  0.00    +0.102 A 
ATOM      4  N   UNL     1       1.064  -6.411   3.318  0.00  0.00    -0.171 NA
ATOM      5  N   UNL     1       0.637  -7.513   2.560  0.00  0.00    -0.246 N 
ATOM      6  H   UNL     1       0.575  -8.429   2.871  0.00  0.00    +0.192 HD
ATOM      7  C   UNL     1       0.329  -7.072   1.322  0.00  0.00    +0.223 A 
ATOM      8  O   UNL     1      -0.124  -7.763   0.246  0.00  0.00    -0.423 OA
ATOM      9  C   UNL     1      -0.094  -7.144  -0.951  0.00  0.00    +0.200 C 
ATOM     10  C   UNL     1       0.105  -5.815  -1.107  0.00  0.00    +0.098 C 
ENDROOT
BRANCH   3  11
ATOM     11  C   UNL     1       1.379  -3.957   2.962  0.00  0.00    +0.021 A 
ATOM     12  C   UNL     1       2.205  -3.184   2.149  0.00  0.00    +0.013 A 
ATOM     13  C   UNL     1       2.543  -1.902   2.532  0.00  0.00    +0.021 A 
ATOM     14  C   UNL     1       2.062  -1.383   3.722  0.00  0.00    +0.042 A 
ATOM     15  C   UNL     1       1.241  -2.146   4.534  0.00  0.00    +0.040 A 
ATOM     16  C   UNL     1       0.892  -3.428   4.157  0.00  0.00    +0.052 A 
ATOM     17 CL   UNL     1      -0.144  -4.382   5.172  0.00  0.00    -0.083 Cl
ATOM     18 CL   UNL     1       2.491   0.231   4.198  0.00  0.00    -0.083 Cl
ENDBRANCH   3  11
BRANCH   1  21
ATOM     19  C   UNL     1      -1.958  -1.878   0.311  0.00  0.00    +0.162 A 
ATOM     20  C   UNL     1      -0.830  -2.662   0.130  0.00  0.00    +0.054 A 
ATOM     21  C   UNL     1      -0.916  -4.036   0.261  0.00  0.00    -0.031 A 
ATOM     22  C   UNL     1      -2.125  -4.630   0.572  0.00  0.00    +0.008 A 
ATOM     23  C   UNL     1      -3.254  -3.853   0.753  0.00  0.00    +0.050 A 
ATOM     24  C   UNL     1      -3.174  -2.475   0.629  0.00  0.00    +0.163 A 
BRANCH  19  25
ATOM     25  O   UNL     1      -1.876  -0.526   0.183  0.00  0.00    -0.489 OA
BRANCH  25  27
ATOM     26  C   UNL     1      -0.699   1.541  -0.246  0.00  0.00    +0.048 C 
ATOM     27  C   UNL     1      -0.596   0.018  -0.146  0.00  0.00    +0.226 C 
ENDBRANCH  25  27
ENDBRANCH  19  25
BRANCH  24  28
ATOM     28  O   UNL     1      -4.282  -1.709   0.813  0.00  0.00    -0.479 OA
BRANCH  28  29
ATOM     29  C   UNL     1      -5.495  -2.390   1.138  0.00  0.00    +0.324 C 
BRANCH  29  30
ATOM     30  C   UNL     1      -6.607  -1.386   1.303  0.00  0.00    +0.248 C 
ATOM     31  O   UNL     1      -6.382  -0.203   1.157  0.00  0.00    -0.272 OA
ATOM     32  N   UNL     1      -7.851  -1.803   1.613  0.00  0.00    -0.327 N 
ATOM     33  H   UNL     1      -8.030  -2.749   1.730  0.00  0.00    +0.145 HD
ATOM     34  H   UNL     1      -8.566  -1.156   1.720  0.00  0.00    +0.145 HD
ENDBRANCH  29  30
ENDBRANCH  28  29
ENDBRANCH  24  28
ENDBRANCH   1  21
BRANCH   9  35
ATOM     35  N   UNL     1      -0.278  -7.906  -2.078  0.00  0.00    -0.328 N 
ATOM     36  H   UNL     1      -0.423  -8.861  -1.999  0.00  0.00    +0.145 HD
ATOM     37  H   UNL     1      -0.262  -7.489  -2.954  0.00  0.00    +0.145 HD
ENDBRANCH   9  35
BRANCH  10  38
ATOM     38  C   UNL     1       0.121  -5.269  -2.431  0.00  0.00    +0.101 C 
ATOM     39  N   UNL     1       0.133  -4.836  -3.481  0.00  0.00    -0.191 NA
ENDBRANCH  10  38
TORSDOF 9
