REMARK  Name = ZINC11739762
REMARK  9 active torsions:
REMARK  status: ('A' for Active; 'I' for Inactive)
REMARK    1  A    between atoms: C_1  and  C_2
REMARK    2  A    between atoms: C_2  and  C_4
REMARK    3  A    between atoms: C_2  and  O_16
REMARK    4  A    between atoms: N_6  and  C_7
REMARK    5  A    between atoms: O_16  and  C_17
REMARK    6  A    between atoms: C_17  and  C_19
REMARK    7  A    between atoms: C_19  and  C_20
REMARK    8  A    between atoms: C_20  and  C_22
REMARK    9  A    between atoms: C_20  and  N_28
REMARK                            x       y       z     vdW  Elec       q    Type
REMARK                         _______ _______ _______ _____ _____    ______ ____
ROOT
ATOM      1  C   UNL     1       0.018   0.022   0.122  0.00  0.00    +0.310 C 
ATOM      2  O   UNL     1      -0.467  -0.604   1.034  0.00  0.00    -0.251 OA
ENDROOT
BRANCH   1   3
ATOM      3  O   UNL     1       0.591  -0.625  -0.905  0.00  0.00    -0.452 OA
BRANCH   3   5
ATOM      4  C   UNL     1       1.858  -2.561  -0.145  0.00  0.00    +0.062 C 
ATOM      5  C   UNL     1       0.591  -2.076  -0.854  0.00  0.00    +0.259 C 
BRANCH   5   6
ATOM      6  C   UNL     1       0.557  -2.629  -2.255  0.00  0.00    +0.258 C 
ATOM      7  O   UNL     1       0.626  -1.878  -3.205  0.00  0.00    -0.271 OA
ATOM      8  N   UNL     1       0.450  -3.957  -2.453  0.00  0.00    -0.281 N 
ATOM      9  H   UNL     1       0.460  -4.563  -1.696  0.00  0.00    +0.155 HD
BRANCH   8  10
ATOM     10  C   UNL     1       0.324  -4.464  -3.752  0.00  0.00    +0.053 A 
ATOM     11  C   UNL     1       0.981  -3.845  -4.807  0.00  0.00    +0.046 A 
ATOM     12  C   UNL     1       0.858  -4.349  -6.088  0.00  0.00    +0.061 A 
ATOM     13  C   UNL     1       0.073  -5.465  -6.322  0.00  0.00    +0.061 A 
ATOM     14  C   UNL     1      -0.588  -6.081  -5.273  0.00  0.00    +0.043 A 
ATOM     15  C   UNL     1      -0.465  -5.583  -3.990  0.00  0.00    +0.064 A 
ATOM     16 CL   UNL     1      -1.293  -6.357  -2.675  0.00  0.00    -0.082 Cl
ATOM     17 CL   UNL     1      -0.084  -6.093  -7.933  0.00  0.00    -0.082 Cl
ATOM     18 CL   UNL     1       1.685  -3.579  -7.406  0.00  0.00    -0.082 Cl
ENDBRANCH   8  10
ENDBRANCH   5   6
ENDBRANCH   3   5
ENDBRANCH   1   3
BRANCH   1  19
ATOM     19  C   UNL     1      -0.020   1.528   0.138  0.00  0.00    +0.147 C 
BRANCH  19  20
ATOM     20  C   UNL     1      -0.722   2.007   1.409  0.00  0.00    +0.115 C 
BRANCH  20  21
ATOM     21  N   UNL     1      -2.125   1.585   1.381  0.00  0.00    -0.292 N 
ATOM     22  C   UNL     1      -2.959   2.079   0.446  0.00  0.00    +0.298 C 
ATOM     23  O   UNL     1      -2.529   2.805  -0.430  0.00  0.00    -0.253 OA
ATOM     24  N   UNL     1      -4.270   1.769   0.480  0.00  0.00    -0.313 N 
ATOM     25  H   UNL     1      -2.453   0.949   2.036  0.00  0.00    +0.151 HD
ATOM     26  H   UNL     1      -4.613   1.190   1.179  0.00  0.00    +0.146 HD
ATOM     27  H   UNL     1      -4.871   2.125  -0.193  0.00  0.00    +0.146 HD
ENDBRANCH  20  21
BRANCH  20  28
ATOM     28  C   UNL     1      -0.652   3.511   1.486  0.00  0.00    -0.027 A 
ATOM     29  C   UNL     1       0.304   4.196   0.760  0.00  0.00    +0.005 A 
ATOM     30  C   UNL     1       0.365   5.575   0.826  0.00  0.00    +0.000 A 
ATOM     31  C   UNL     1      -0.524   6.269   1.626  0.00  0.00    +0.000 A 
ATOM     32  C   UNL     1      -1.477   5.583   2.356  0.00  0.00    +0.000 A 
ATOM     33  C   UNL     1      -1.541   4.205   2.286  0.00  0.00    +0.005 A 
ENDBRANCH  20  28
ENDBRANCH  19  20
ENDBRANCH   1  19
TORSDOF 8
