REMARK  Name = ZINC12531312
REMARK  5 active torsions:
REMARK  status: ('A' for Active; 'I' for Inactive)
REMARK    1  A    between atoms: C_1  and  C_2
REMARK    2  A    between atoms: C_5  and  C_37
REMARK    3  A    between atoms: N_8  and  S_10
REMARK    4  A    between atoms: S_10  and  C_13
REMARK    5  A    between atoms: C_16  and  C_19
REMARK                            x       y       z     vdW  Elec       q    Type
REMARK                         _______ _______ _______ _____ _____    ______ ____
ROOT
ATOM      1  C   UNL     1       4.213  -0.426   1.159  0.00  0.00    +0.249 C 
ATOM      2  O   UNL     1       3.062  -0.508   1.552  0.00  0.00    -0.270 OA
ATOM      3  N   UNL     1       4.605   0.642   0.456  0.00  0.00    -0.267 N 
ATOM      4  C   UNL     1       4.014   0.931  -0.699  0.00  0.00    +0.116 A 
ATOM      5  C   UNL     1       4.420   2.066  -1.547  0.00  0.00    +0.039 A 
ATOM      6  C   UNL     1       5.110   3.167  -1.056  0.00  0.00    +0.013 A 
ATOM      7  C   UNL     1       5.434   4.191  -1.905  0.00  0.00    +0.001 A 
ATOM      8  C   UNL     1       5.077   4.137  -3.247  0.00  0.00    +0.002 A 
ATOM      9  C   UNL     1       4.401   3.052  -3.759  0.00  0.00    +0.028 A 
ATOM     10  C   UNL     1       4.067   1.989  -2.917  0.00  0.00    +0.076 A 
ATOM     11  N   UNL     1       3.433   0.884  -3.373  0.00  0.00    -0.234 NA
ATOM     12  C   UNL     1       2.907  -0.006  -2.564  0.00  0.00    +0.112 A 
ATOM     13  N   UNL     1       2.966   0.198  -1.211  0.00  0.00    -0.317 N 
ATOM     14  C   UNL     1       1.923  -0.324  -0.352  0.00  0.00    +0.125 C 
ATOM     15  C   UNL     1       2.134  -1.815  -0.063  0.00  0.00    +0.022 C 
ATOM     16  C   UNL     1       1.765  -2.666  -1.211  0.00  0.00    +0.002 C 
ATOM     17  C   UNL     1       2.661  -2.468  -2.435  0.00  0.00    +0.008 C 
ATOM     18  C   UNL     1       2.268  -1.223  -3.203  0.00  0.00    +0.074 C 
ATOM     19  H   UNL     1       5.417   1.281   0.833  0.00  0.00    +0.157 HD
ENDROOT
BRANCH   1  23
ATOM     20  C   UNL     1       6.979  -3.535   2.022  0.00  0.00    +0.106 A 
ATOM     21  C   UNL     1       5.673  -3.631   2.469  0.00  0.00    +0.029 A 
ATOM     22  C   UNL     1       4.770  -2.625   2.192  0.00  0.00    +0.015 A 
ATOM     23  C   UNL     1       5.176  -1.510   1.459  0.00  0.00    +0.037 A 
ATOM     24  C   UNL     1       6.493  -1.422   1.006  0.00  0.00    +0.015 A 
ATOM     25  C   UNL     1       7.388  -2.432   1.295  0.00  0.00    +0.029 A 
BRANCH  20  26
ATOM     26  S   UNL     1       8.126  -4.824   2.380  0.00  0.00    +0.061 S 
ATOM     27  O   UNL     1       9.421  -4.244   2.320  0.00  0.00    -0.153 OA
ATOM     28  O   UNL     1       7.642  -5.488   3.539  0.00  0.00    -0.153 OA
BRANCH  26  34
ATOM     29  C   UNL     1       5.345  -8.275  -0.096  0.00  0.00    +0.009 C 
ATOM     30  C   UNL     1       6.239  -7.034  -0.074  0.00  0.00    +0.002 C 
ATOM     31  C   UNL     1       7.154  -7.042  -1.302  0.00  0.00    +0.009 C 
ATOM     32  C   UNL     1       8.025  -5.784  -1.299  0.00  0.00    +0.002 C 
ATOM     33  C   UNL     1       8.902  -5.778  -0.043  0.00  0.00    +0.112 C 
ATOM     34  N   UNL     1       8.038  -5.916   1.138  0.00  0.00    -0.176 NA
ATOM     35  C   UNL     1       7.100  -7.045   1.198  0.00  0.00    +0.112 C 
ATOM     36  C   UNL     1       7.131  -4.542  -1.303  0.00  0.00    +0.009 C 
ENDBRANCH  26  34
ENDBRANCH  20  26
ENDBRANCH   1  23
TORSDOF 3
