REMARK  Name = ZINC38085581
REMARK  8 active torsions:
REMARK  status: ('A' for Active; 'I' for Inactive)
REMARK    1  A    between atoms: C_1  and  C_2
REMARK    2  A    between atoms: C_2  and  C_4
REMARK    3  A    between atoms: C_2  and  N_23
REMARK    4  A    between atoms: C_4  and  C_5
REMARK    5  A    between atoms: C_7  and  O_21
REMARK    6  A    between atoms: C_8  and  O_12
REMARK    7  A    between atoms: O_12  and  C_13
REMARK    8  A    between atoms: O_21  and  C_22
REMARK                            x       y       z     vdW  Elec       q    Type
REMARK                         _______ _______ _______ _____ _____    ______ ____
ROOT
ATOM      1  C   UNL     1      -1.414  -2.036   0.129  0.00  0.00    -0.044 A 
ATOM      2  C   UNL     1      -1.374  -2.815  -1.013  0.00  0.00    +0.053 A 
ATOM      3  C   UNL     1      -1.356  -4.197  -0.909  0.00  0.00    +0.163 A 
ATOM      4  C   UNL     1      -1.377  -4.797   0.346  0.00  0.00    +0.176 A 
ATOM      5  C   UNL     1      -1.416  -4.011   1.486  0.00  0.00    +0.063 A 
ATOM      6  C   UNL     1      -1.429  -2.632   1.375  0.00  0.00    +0.022 A 
ATOM      7 BR   UNL     1      -1.445  -4.822   3.194  0.00  0.00    -0.046 Br
ENDROOT
BRANCH   3   8
ATOM      8  O   UNL     1      -1.318  -4.964  -2.031  0.00  0.00    -0.491 OA
ATOM      9  C   UNL     1      -1.298  -4.279  -3.285  0.00  0.00    +0.277 C 
ENDBRANCH   3   8
BRANCH   1  10
ATOM     10  C   UNL     1      -1.433  -0.534   0.013  0.00  0.00    +0.019 C 
BRANCH  10  12
ATOM     11  C   UNL     1      -0.019   1.526   0.010  0.00  0.00    -0.014 C 
ATOM     12  C   UNL     1       0.002  -0.004   0.002  0.00  0.00    -0.074 C 
BRANCH  12  13
ATOM     13  N   UNL     1       0.690  -0.478  -1.207  0.00  0.00    +0.380 N 
ATOM     14  H   UNL     1       1.636  -0.129  -1.214  0.00  0.00    -0.090 HD
ATOM     15  H   UNL     1       0.703  -1.487  -1.212  0.00  0.00    -0.090 HD
ATOM     16  H   UNL     1       0.202  -0.144  -2.024  0.00  0.00    -0.090 HD
ENDBRANCH  12  13
ENDBRANCH  10  12
ENDBRANCH   1  10
BRANCH   4  17
ATOM     17  O   UNL     1      -1.360  -6.153   0.453  0.00  0.00    -0.482 OA
BRANCH  17  18
ATOM     18  C   UNL     1      -0.079  -6.781   0.534  0.00  0.00    +0.196 C 
ATOM     19  C   UNL     1       0.408  -7.154  -0.876  0.00  0.00    +0.069 C 
ATOM     20  C   UNL     1       1.623  -8.108  -0.780  0.00  0.00    +0.169 C 
ATOM     21  S   UNL     1       1.336  -8.967   0.820  0.00  0.00    -0.027 S 
ATOM     22  O   UNL     1       1.018 -10.328   0.564  0.00  0.00    -0.174 OA
ATOM     23  O   UNL     1       2.399  -8.654   1.710  0.00  0.00    -0.174 OA
ATOM     24  C   UNL     1      -0.187  -8.089   1.370  0.00  0.00    +0.210 C 
ENDBRANCH  17  18
ENDBRANCH   4  17
TORSDOF 6
