REMARK  Name = ZINC36296979
REMARK  6 active torsions:
REMARK  status: ('A' for Active; 'I' for Inactive)
REMARK    1  A    between atoms: C_1  and  O_2
REMARK    2  A    between atoms: O_2  and  C_3
REMARK    3  A    between atoms: C_3  and  C_5
REMARK    4  A    between atoms: C_7  and  S_11
REMARK    5  A    between atoms: S_11  and  N_14
REMARK    6  A    between atoms: C_18  and  N_21
REMARK                            x       y       z     vdW  Elec       q    Type
REMARK                         _______ _______ _______ _____ _____    ______ ____
ROOT
ATOM      1  S   UNL     1       1.839  -5.389   2.982  0.00  0.00    +0.062 S 
ATOM      2  O   UNL     1       2.597  -6.318   2.220  0.00  0.00    -0.153 OA
ATOM      3  O   UNL     1       2.409  -4.621   4.034  0.00  0.00    -0.153 OA
ENDROOT
BRANCH   1   6
ATOM      4  C   UNL     1       0.680  -2.075   1.092  0.00  0.00    +0.099 A 
ATOM      5  C   UNL     1       1.256  -2.889   2.056  0.00  0.00    +0.052 A 
ATOM      6  C   UNL     1       1.151  -4.241   1.837  0.00  0.00    +0.127 A 
ATOM      7  C   UNL     1       0.509  -4.680   0.723  0.00  0.00    +0.082 A 
ATOM      8  S   UNL     1       0.023  -3.272  -0.054  0.00  0.00    -0.073 S 
ATOM      9 BR   UNL     1       0.220  -6.467   0.177  0.00  0.00    -0.041 Br
BRANCH   4  10
ATOM     10  C   UNL     1       0.621  -0.614   1.034  0.00  0.00    +0.346 C 
ATOM     11  O   UNL     1       1.131   0.051   1.916  0.00  0.00    -0.244 OA
BRANCH  10  13
ATOM     12  C   UNL     1      -0.017   1.425   0.010  0.00  0.00    +0.280 C 
ATOM     13  O   UNL     1       0.002  -0.004   0.002  0.00  0.00    -0.464 OA
ENDBRANCH  10  13
ENDBRANCH   4  10
ENDBRANCH   1   6
BRANCH   1  14
ATOM     14  N   UNL     1       0.579  -6.236   3.643  0.00  0.00    -0.178 NA
ATOM     15  C   UNL     1      -0.091  -5.754   4.859  0.00  0.00    +0.109 C 
ATOM     16  C   UNL     1      -1.596  -5.663   4.591  0.00  0.00    +0.016 C 
ATOM     17  C   UNL     1      -2.103  -7.017   4.088  0.00  0.00    -0.014 C 
ATOM     18  C   UNL     1      -1.399  -7.373   2.777  0.00  0.00    -0.059 C 
ATOM     19  C   UNL     1       0.105  -7.480   3.022  0.00  0.00    +0.093 C 
BRANCH  18  20
ATOM     20  N   UNL     1      -1.909  -8.657   2.279  0.00  0.00    +0.381 N 
ATOM     21  H   UNL     1      -2.903  -8.584   2.118  0.00  0.00    -0.090 HD
ATOM     22  H   UNL     1      -1.445  -8.891   1.414  0.00  0.00    -0.090 HD
ATOM     23  H   UNL     1      -1.731  -9.377   2.962  0.00  0.00    -0.090 HD
ENDBRANCH  18  20
ENDBRANCH   1  14
TORSDOF 5
