REMARK  Name = ZINC39142930
REMARK  12 active torsions:
REMARK  status: ('A' for Active; 'I' for Inactive)
REMARK    1  A    between atoms: C_1  and  C_2
REMARK    2  A    between atoms: C_2  and  C_3
REMARK    3  A    between atoms: C_3  and  C_4
REMARK    4  A    between atoms: C_4  and  C_5
REMARK    5  A    between atoms: C_5  and  C_6
REMARK    6  A    between atoms: C_6  and  N_7
REMARK    7  A    between atoms: C_14  and  O_39
REMARK    8  A    between atoms: C_16  and  C_20
REMARK    9  A    between atoms: N_22  and  N_23
REMARK   10  A    between atoms: C_24  and  C_25
REMARK   11  A    between atoms: C_24  and  C_26
REMARK   12  A    between atoms: C_28  and  O_38
REMARK                            x       y       z     vdW  Elec       q    Type
REMARK                         _______ _______ _______ _____ _____    ______ ____
ROOT
ATOM      1  C   UNL     1       1.282  -6.037   6.894  0.00  0.00    +0.247 C 
ATOM      2  O   UNL     1       1.490  -7.199   7.177  0.00  0.00    -0.273 OA
ATOM      3  N   UNL     1       0.180  -5.417   7.359  0.00  0.00    -0.206 N 
ATOM      4  H   UNL     1       0.013  -4.489   7.133  0.00  0.00    +0.177 HD
ENDROOT
BRANCH   1  13
ATOM      5  N   UNL     1       2.232  -4.563   3.651  0.00  0.00    -0.270 N 
ATOM      6  C   UNL     1       3.614  -4.770   3.599  0.00  0.00    +0.042 A 
ATOM      7  C   UNL     1       4.372  -4.175   2.598  0.00  0.00    +0.024 A 
ATOM      8  C   UNL     1       5.736  -4.383   2.552  0.00  0.00    +0.002 A 
ATOM      9  C   UNL     1       6.348  -5.183   3.501  0.00  0.00    +0.000 A 
ATOM     10  C   UNL     1       5.596  -5.776   4.498  0.00  0.00    +0.008 A 
ATOM     11  C   UNL     1       4.231  -5.572   4.549  0.00  0.00    +0.003 A 
ATOM     12  C   UNL     1       3.409  -6.216   5.635  0.00  0.00    +0.167 C 
ATOM     13  C   UNL     1       2.256  -5.288   6.022  0.00  0.00    +0.195 C 
ATOM     14  C   UNL     1       1.550  -4.801   4.786  0.00  0.00    +0.235 C 
ATOM     15  O   UNL     1       0.350  -4.626   4.812  0.00  0.00    -0.274 OA
BRANCH  12  16
ATOM     16  O   UNL     1       2.882  -7.457   5.160  0.00  0.00    -0.386 OA
ATOM     17  H   UNL     1       3.558  -8.096   4.896  0.00  0.00    +0.210 HD
ENDBRANCH  12  16
BRANCH   5  18
ATOM     18  C   UNL     1       1.524  -4.077   2.464  0.00  0.00    +0.114 C 
BRANCH  18  19
ATOM     19  C   UNL     1       1.503  -2.548   2.473  0.00  0.00    +0.019 C 
BRANCH  19  20
ATOM     20  C   UNL     1       0.763  -2.041   1.233  0.00  0.00    +0.002 C 
BRANCH  20  21
ATOM     21  C   UNL     1       0.742  -0.511   1.242  0.00  0.00    -0.000 C 
BRANCH  21  23
ATOM     22  C   UNL     1      -0.019   1.526   0.010  0.00  0.00    +0.004 C 
ATOM     23  C   UNL     1       0.002  -0.004   0.002  0.00  0.00    -0.003 C 
ENDBRANCH  21  23
ENDBRANCH  20  21
ENDBRANCH  19  20
ENDBRANCH  18  19
ENDBRANCH   5  18
ENDBRANCH   1  13
BRANCH   3  24
ATOM     24  N   UNL     1      -0.726  -6.114   8.170  0.00  0.00    -0.188 NA
ATOM     25  C   UNL     1      -1.773  -5.525   8.612  0.00  0.00    +0.053 C 
ATOM     26  C   UNL     1      -2.032  -4.082   8.260  0.00  0.00    +0.063 C 
BRANCH  25  27
ATOM     27  C   UNL     1      -2.748  -6.274   9.485  0.00  0.00    +0.186 C 
ATOM     28  C   UNL     1      -2.122  -7.609   9.841  0.00  0.00    +0.120 C 
ATOM     29  C   UNL     1      -2.830  -8.758   9.483  0.00  0.00    +0.035 A 
ATOM     30  C   UNL     1      -2.321 -10.039   9.778  0.00  0.00    +0.013 A 
ATOM     31  C   UNL     1      -3.031 -11.143   9.419  0.00  0.00    +0.001 A 
ATOM     32  C   UNL     1      -4.254 -11.034   8.764  0.00  0.00    +0.002 A 
ATOM     33  C   UNL     1      -4.797  -9.823   8.453  0.00  0.00    +0.024 A 
ATOM     34  C   UNL     1      -4.118  -8.641   8.794  0.00  0.00    +0.044 A 
ATOM     35  N   UNL     1      -4.654  -7.452   8.488  0.00  0.00    -0.284 N 
ATOM     36  C   UNL     1      -4.081  -6.302   8.773  0.00  0.00    +0.233 C 
ATOM     37  O   UNL     1      -4.627  -5.258   8.463  0.00  0.00    -0.274 OA
ATOM     38  H   UNL     1      -5.510  -7.439   8.031  0.00  0.00    +0.155 HD
BRANCH  28  39
ATOM     39  O   UNL     1      -0.944  -7.682  10.471  0.00  0.00    -0.509 OA
ATOM     40  H   UNL     1      -0.647  -8.585  10.645  0.00  0.00    +0.292 HD
ENDBRANCH  28  39
ENDBRANCH  25  27
ENDBRANCH   3  24
TORSDOF 10
