REMARK  Name = ZINC01659579
REMARK  4 active torsions:
REMARK  status: ('A' for Active; 'I' for Inactive)
REMARK    1  A    between atoms: C_3  and  N_20
REMARK    2  A    between atoms: C_6  and  C_7
REMARK    3  A    between atoms: N_8  and  N_9
REMARK    4  A    between atoms: N_12  and  C_13
REMARK                            x       y       z     vdW  Elec       q    Type
REMARK                         _______ _______ _______ _____ _____    ______ ____
ROOT
ATOM      1  N   UNL     1      -2.443  -2.780   0.006  0.00  0.00    -0.191 N 
ATOM      2  C   UNL     1      -2.422  -4.127   0.006  0.00  0.00    +0.323 C 
ATOM      3  O   UNL     1      -3.465  -4.752   0.021  0.00  0.00    -0.251 OA
ATOM      4  N   UNL     1      -1.244  -4.782  -0.011  0.00  0.00    -0.268 N 
ATOM      5  H   UNL     1      -3.291  -2.308   0.018  0.00  0.00    +0.179 HD
ATOM      6  H   UNL     1      -0.414  -4.286  -0.091  0.00  0.00    +0.156 HD
ENDROOT
BRANCH   4   7
ATOM      7  C   UNL     1      -1.218  -6.178   0.087  0.00  0.00    +0.035 A 
ATOM      8  C   UNL     1      -0.189  -6.808   0.774  0.00  0.00    +0.024 A 
ATOM      9  C   UNL     1      -0.166  -8.185   0.869  0.00  0.00    +0.017 A 
ATOM     10  C   UNL     1      -1.166  -8.938   0.280  0.00  0.00    +0.018 A 
ATOM     11  C   UNL     1      -2.192  -8.313  -0.406  0.00  0.00    +0.017 A 
ATOM     12  C   UNL     1      -2.224  -6.935  -0.499  0.00  0.00    +0.024 A 
ATOM     13 BR   UNL     1      -1.130 -10.824   0.411  0.00  0.00    -0.050 Br
ENDBRANCH   4   7
BRANCH   1  15
ATOM     14  C   UNL     1      -1.263  -0.762  -0.013  0.00  0.00    +0.138 C 
ATOM     15  N   UNL     1      -1.242  -2.059  -0.012  0.00  0.00    -0.186 NA
BRANCH  14  21
ATOM     16  C   UNL     1      -0.017   1.393  -0.032  0.00  0.00    +0.012 A 
ATOM     17  C   UNL     1       1.170   2.095  -0.049  0.00  0.00    +0.033 A 
ATOM     18  C   UNL     1       2.378   1.419  -0.067  0.00  0.00    +0.126 A 
ATOM     19  C   UNL     1       2.404   0.036  -0.067  0.00  0.00    +0.033 A 
ATOM     20  C   UNL     1       1.225  -0.679  -0.049  0.00  0.00    +0.012 A 
ATOM     21  C   UNL     1       0.002  -0.004  -0.032  0.00  0.00    -0.005 A 
BRANCH  18  22
ATOM     22  N   UNL     1       3.647   2.180  -0.086  0.00  0.00    +0.056 N 
ATOM     23  O   UNL     1       3.628   3.389  -0.087  0.00  0.00    -0.126 OA
ATOM     24  O   UNL     1       4.704   1.593  -0.102  0.00  0.00    -0.126 OA
ENDBRANCH  18  22
ENDBRANCH  14  21
ENDBRANCH   1  15
TORSDOF 4
