REMARK  Name = ZINC18524565
REMARK  7 active torsions:
REMARK  status: ('A' for Active; 'I' for Inactive)
REMARK    1  A    between atoms: C_6  and  C_7
REMARK    2  A    between atoms: C_10  and  S_13
REMARK    3  A    between atoms: N_11  and  N_12
REMARK    4  A    between atoms: S_13  and  C_14
REMARK    5  A    between atoms: C_14  and  C_15
REMARK    6  A    between atoms: N_17  and  C_18
REMARK    7  A    between atoms: C_21  and  N_24
REMARK                            x       y       z     vdW  Elec       q    Type
REMARK                         _______ _______ _______ _____ _____    ______ ____
ROOT
ATOM      1  C   UNL     1       2.062  -0.929   1.512  0.00  0.00    +0.173 C 
ENDROOT
BRANCH   1   2
ATOM      2  C   UNL     1       1.624  -0.597   2.915  0.00  0.00    +0.227 C 
ATOM      3  O   UNL     1       1.845  -1.374   3.820  0.00  0.00    -0.275 OA
ATOM      4  N   UNL     1       0.988   0.564   3.165  0.00  0.00    -0.285 N 
ATOM      5  H   UNL     1       0.744   1.151   2.432  0.00  0.00    +0.155 HD
BRANCH   4   6
ATOM      6  C   UNL     1       0.678   0.924   4.484  0.00  0.00    +0.034 A 
ATOM      7  C   UNL     1      -0.485   1.633   4.755  0.00  0.00    +0.025 A 
ATOM      8  C   UNL     1      -0.793   1.983   6.054  0.00  0.00    +0.025 A 
ATOM      9  C   UNL     1       0.066   1.635   7.089  0.00  0.00    +0.030 A 
ATOM     10  C   UNL     1       1.231   0.931   6.817  0.00  0.00    +0.025 A 
ATOM     11  C   UNL     1       1.536   0.577   5.518  0.00  0.00    +0.025 A 
BRANCH   9  12
ATOM     12  N   UNL     1      -0.244   1.994   8.405  0.00  0.00    -0.330 N 
ATOM     13  C   UNL     1      -1.538   2.709   8.470  0.00  0.00    +0.105 C 
ATOM     14  C   UNL     1      -1.784   3.350   9.808  0.00  0.00    +0.019 C 
ATOM     15  C   UNL     1      -1.296   4.812   9.749  0.00  0.00    +0.002 C 
ATOM     16  C   UNL     1       0.154   4.915   9.877  0.00  0.00    +0.002 C 
ATOM     17  C   UNL     1       0.893   4.179   8.740  0.00  0.00    +0.019 C 
ATOM     18  C   UNL     1       0.887   2.705   9.041  0.00  0.00    +0.105 C 
ENDBRANCH   9  12
ENDBRANCH   4   6
ENDBRANCH   1   2
BRANCH   1  19
ATOM     19  S   UNL     1       2.882  -2.543   1.502  0.00  0.00    -0.075 S 
BRANCH  19  23
ATOM     20  C   UNL     1       4.005  -3.379  -2.146  0.00  0.00    +0.182 A 
ATOM     21  N   UNL     1       3.435  -2.204  -2.282  0.00  0.00    -0.127 NA
ATOM     22  N   UNL     1       3.002  -1.792  -1.144  0.00  0.00    -0.121 NA
ATOM     23  C   UNL     1       3.277  -2.675  -0.210  0.00  0.00    +0.209 A 
ATOM     24  N   UNL     1       3.921  -3.717  -0.815  0.00  0.00    -0.224 N 
BRANCH  20  30
ATOM     25  C   UNL     1       4.956  -3.592  -4.438  0.00  0.00    +0.014 A 
ATOM     26  C   UNL     1       5.533  -4.350  -5.436  0.00  0.00    +0.039 A 
ATOM     27  C   UNL     1       5.770  -5.700  -5.235  0.00  0.00    +0.123 A 
ATOM     28  C   UNL     1       5.434  -6.296  -4.030  0.00  0.00    +0.039 A 
ATOM     29  C   UNL     1       4.860  -5.547  -3.024  0.00  0.00    +0.014 A 
ATOM     30  C   UNL     1       4.620  -4.187  -3.221  0.00  0.00    +0.021 A 
ATOM     31  F   UNL     1       6.332  -6.439  -6.217  0.00  0.00    -0.205 F 
ENDBRANCH  20  30
BRANCH  24  32
ATOM     32  N   UNL     1       4.387  -4.856  -0.222  0.00  0.00    -0.295 N 
ATOM     33  H   UNL     1       3.719  -5.607  -0.309  0.00  0.00    +0.163 HD
ATOM     34  H   UNL     1       5.282  -5.122  -0.602  0.00  0.00    +0.163 HD
ENDBRANCH  24  32
ENDBRANCH  19  23
ENDBRANCH   1  19
TORSDOF 7
