REMARK  Name = ZINC40731101
REMARK  10 active torsions:
REMARK  status: ('A' for Active; 'I' for Inactive)
REMARK    1  A    between atoms: C_1  and  C_2
REMARK    2  A    between atoms: C_10  and  N_29
REMARK    3  A    between atoms: C_11  and  N_15
REMARK    4  A    between atoms: N_15  and  C_16
REMARK    5  A    between atoms: C_19  and  C_22
REMARK    6  A    between atoms: C_22  and  O_24
REMARK    7  A    between atoms: O_24  and  C_25
REMARK    8  A    between atoms: C_25  and  C_26
REMARK    9  A    between atoms: C_26  and  C_27
REMARK   10  A    between atoms: C_26  and  C_28
REMARK                            x       y       z     vdW  Elec       q    Type
REMARK                         _______ _______ _______ _____ _____    ______ ____
ROOT
ATOM      1  C   UNL     1      -0.791   0.745   3.191  0.00  0.00    +0.009 C 
ATOM      2  C   UNL     1      -0.063   0.116   2.002  0.00  0.00    +0.003 C 
ATOM      3  C   UNL     1      -0.868   0.361   0.723  0.00  0.00    +0.006 C 
ATOM      4  C   UNL     1      -0.125  -0.239  -0.473  0.00  0.00    +0.019 C 
ATOM      5  C   UNL     1       0.017  -1.752  -0.273  0.00  0.00    +0.106 C 
ATOM      6  N   UNL     1       0.662  -1.999   1.024  0.00  0.00    -0.313 N 
ATOM      7  C   UNL     1       0.081  -1.392   2.229  0.00  0.00    +0.109 C 
ATOM      8  C   UNL     1       1.800  -2.792   1.109  0.00  0.00    +0.147 A 
ATOM      9  C   UNL     1       1.694  -4.157   1.384  0.00  0.00    +0.106 A 
ATOM     10  C   UNL     1       2.868  -4.908   1.459  0.00  0.00    +0.149 A 
ATOM     11  N   UNL     1       4.036  -4.298   1.267  0.00  0.00    -0.219 NA
ATOM     12  C   UNL     1       4.092  -3.007   1.010  0.00  0.00    +0.225 A 
ATOM     13  N   UNL     1       3.007  -2.264   0.925  0.00  0.00    -0.219 NA
ENDROOT
BRANCH   9  14
ATOM     14  N   UNL     1       0.440  -4.758   1.581  0.00  0.00    -0.353 N 
ATOM     15  H   UNL     1      -0.371  -4.246   1.436  0.00  0.00    +0.143 HD
ATOM     16  H   UNL     1       0.385  -5.685   1.861  0.00  0.00    +0.143 HD
ENDBRANCH   9  14
BRANCH  10  17
ATOM     17  N   UNL     1       2.819  -6.271   1.731  0.00  0.00    -0.298 N 
ATOM     18  H   UNL     1       1.963  -6.722   1.794  0.00  0.00    +0.154 HD
BRANCH  17  19
ATOM     19  C   UNL     1       3.998  -6.987   1.912  0.00  0.00    +0.032 A 
ATOM     20  C   UNL     1       5.103  -6.370   2.491  0.00  0.00    +0.024 A 
ATOM     21  C   UNL     1       6.267  -7.072   2.670  0.00  0.00    +0.017 A 
ATOM     22  C   UNL     1       6.342  -8.411   2.271  0.00  0.00    +0.059 A 
ATOM     23  C   UNL     1       5.230  -9.028   1.690  0.00  0.00    +0.017 A 
ATOM     24  C   UNL     1       4.068  -8.321   1.518  0.00  0.00    +0.024 A 
BRANCH  22  25
ATOM     25  C   UNL     1       7.592  -9.169   2.463  0.00  0.00    +0.339 C 
ATOM     26  O   UNL     1       8.557  -8.632   2.967  0.00  0.00    -0.245 OA
BRANCH  25  27
ATOM     27  O   UNL     1       7.663 -10.459   2.078  0.00  0.00    -0.461 OA
BRANCH  27  28
ATOM     28  C   UNL     1       8.904 -11.133   2.293  0.00  0.00    +0.235 C 
BRANCH  28  29
ATOM     29  C   UNL     1       8.794 -12.576   1.796  0.00  0.00    +0.020 C 
ATOM     30  C   UNL     1       8.589 -12.579   0.280  0.00  0.00    +0.010 C 
ATOM     31  C   UNL     1      10.079 -13.332   2.139  0.00  0.00    +0.010 C 
ENDBRANCH  28  29
ENDBRANCH  27  28
ENDBRANCH  25  27
ENDBRANCH  22  25
ENDBRANCH  17  19
ENDBRANCH  10  17
TORSDOF 7
