REMARK  Name = ZINC63458041
REMARK  3 active torsions:
REMARK  status: ('A' for Active; 'I' for Inactive)
REMARK    1  A    between atoms: C_7  and  C_10
REMARK    2  A    between atoms: C_10  and  C_11
REMARK    3  A    between atoms: N_19  and  C_22
REMARK                            x       y       z     vdW  Elec       q    Type
REMARK                         _______ _______ _______ _____ _____    ______ ____
ROOT
ATOM      1  C   UNL     1       0.457  -3.653  -1.462  0.00  0.00    +0.072 C 
ATOM      2  C   UNL     1      -0.435  -4.913  -1.478  0.00  0.00    +0.108 C 
ATOM      3  C   UNL     1      -1.354  -4.735  -2.719  0.00  0.00    +0.123 C 
ATOM      4  C   UNL     1      -2.735  -4.610  -2.114  0.00  0.00    +0.233 C 
ATOM      5  O   UNL     1      -3.763  -4.462  -2.739  0.00  0.00    -0.274 OA
ATOM      6  N   UNL     1      -2.645  -4.689  -0.781  0.00  0.00    -0.207 N 
ATOM      7  C   UNL     1      -1.390  -4.864  -0.307  0.00  0.00    +0.232 C 
ATOM      8  O   UNL     1      -1.075  -4.963   0.859  0.00  0.00    -0.274 OA
ATOM      9  C   UNL     1      -0.922  -3.397  -3.331  0.00  0.00    +0.136 C 
ATOM     10  N   UNL     1      -0.310  -2.630  -2.221  0.00  0.00    -0.295 NA
ATOM     11  C   UNL     1       0.028  -3.598  -4.477  0.00  0.00    +0.003 A 
ATOM     12  C   UNL     1       1.263  -4.197  -4.591  0.00  0.00    +0.008 A 
ATOM     13  C   UNL     1       1.909  -4.224  -5.814  0.00  0.00    +0.000 A 
ATOM     14  C   UNL     1       1.310  -3.650  -6.921  0.00  0.00    +0.002 A 
ATOM     15  C   UNL     1       0.074  -3.049  -6.811  0.00  0.00    +0.023 A 
ATOM     16  C   UNL     1      -0.583  -3.016  -5.583  0.00  0.00    +0.039 A 
ATOM     17  N   UNL     1      -1.819  -2.475  -5.223  0.00  0.00    -0.283 N 
ATOM     18  C   UNL     1      -2.092  -2.656  -3.917  0.00  0.00    +0.243 C 
ATOM     19  O   UNL     1      -3.088  -2.292  -3.328  0.00  0.00    -0.273 OA
ATOM     20  H   UNL     1      -1.012  -2.198  -1.638  0.00  0.00    +0.124 HD
ATOM     21  H   UNL     1      -2.412  -2.021  -5.843  0.00  0.00    +0.155 HD
ENDROOT
BRANCH   6  22
ATOM     22  C   UNL     1      -3.764  -4.604   0.060  0.00  0.00    +0.079 A 
ATOM     23  C   UNL     1      -4.453  -5.753   0.421  0.00  0.00    +0.027 A 
ATOM     24  C   UNL     1      -5.554  -5.666   1.251  0.00  0.00    +0.002 A 
ATOM     25  C   UNL     1      -5.972  -4.435   1.722  0.00  0.00    +0.003 A 
ATOM     26  C   UNL     1      -5.290  -3.287   1.365  0.00  0.00    +0.040 A 
ATOM     27  C   UNL     1      -4.183  -3.368   0.540  0.00  0.00    +0.145 A 
ATOM     28  F   UNL     1      -3.512  -2.246   0.196  0.00  0.00    -0.204 F 
ENDBRANCH   6  22
BRANCH   1  29
ATOM     29  C   UNL     1       0.691  -3.186  -0.024  0.00  0.00    +0.052 C 
BRANCH  29  36
ATOM     30  C   UNL     1      -0.016   1.348   0.009  0.00  0.00    +0.001 A 
ATOM     31  C   UNL     1       1.166   2.101   0.002  0.00  0.00    +0.002 A 
ATOM     32  C   UNL     1       2.391   1.535  -0.013  0.00  0.00    +0.026 A 
ATOM     33  C   UNL     1       2.529   0.120  -0.022  0.00  0.00    +0.043 A 
ATOM     34  N   UNL     1       3.587  -0.654  -0.037  0.00  0.00    -0.380 N 
ATOM     35  C   UNL     1       3.143  -2.053  -0.041  0.00  0.00    +0.144 C 
ATOM     36  C   UNL     1       1.631  -2.008  -0.025  0.00  0.00    -0.040 C 
ATOM     37  C   UNL     1       1.295  -0.698  -0.014  0.00  0.00    -0.001 A 
ATOM     38  C   UNL     1       0.002  -0.004   0.002  0.00  0.00    +0.010 A 
ATOM     39  H   UNL     1       4.509  -0.353  -0.045  0.00  0.00    +0.160 HD
ENDBRANCH  29  36
ENDBRANCH   1  29
TORSDOF 3
