REMARK  Name = ZINC37403159
REMARK  3 active torsions:
REMARK  status: ('A' for Active; 'I' for Inactive)
REMARK    1  A    between atoms: N_7  and  C_11
REMARK    2  A    between atoms: C_11  and  C_12
REMARK    3  A    between atoms: C_14  and  N_19
REMARK                            x       y       z     vdW  Elec       q    Type
REMARK                         _______ _______ _______ _____ _____    ______ ____
ROOT
ATOM      1  C   UNL     1       0.628  -3.160  -0.020  0.00  0.00    +0.165 C 
ENDROOT
BRANCH   1   8
ATOM      2  C   UNL     1       5.121  -3.923  -0.502  0.00  0.00    +0.002 A 
ATOM      3  C   UNL     1       5.871  -2.760  -0.463  0.00  0.00    +0.004 A 
ATOM      4  C   UNL     1       5.253  -1.537  -0.293  0.00  0.00    +0.048 A 
ATOM      5  C   UNL     1       3.875  -1.471  -0.161  0.00  0.00    +0.157 A 
ATOM      6  C   UNL     1       3.120  -2.643  -0.200  0.00  0.00    +0.090 A 
ATOM      7  C   UNL     1       3.747  -3.867  -0.371  0.00  0.00    +0.030 A 
ATOM      8  N   UNL     1       1.787  -2.264  -0.043  0.00  0.00    -0.270 N 
ATOM      9  C   UNL     1       1.760  -0.922   0.084  0.00  0.00    +0.422 A 
ATOM     10  O   UNL     1       0.757  -0.252   0.238  0.00  0.00    -0.223 OA
ATOM     11  O   UNL     1       3.011  -0.441   0.014  0.00  0.00    -0.407 OA
ENDBRANCH   1   8
BRANCH   1  12
ATOM     12  C   UNL     1       0.199  -3.462  -1.433  0.00  0.00    -0.008 A 
ATOM     13  C   UNL     1       0.628  -4.620  -2.052  0.00  0.00    +0.029 A 
ATOM     14  C   UNL     1       0.232  -4.898  -3.353  0.00  0.00    +0.025 A 
ATOM     15  C   UNL     1      -0.595  -4.010  -4.030  0.00  0.00    +0.024 A 
ATOM     16  C   UNL     1      -1.020  -2.853  -3.406  0.00  0.00    +0.022 A 
ATOM     17  C   UNL     1      -0.628  -2.581  -2.107  0.00  0.00    +0.046 A 
ATOM     18 CL   UNL     1      -1.171  -1.130  -1.324  0.00  0.00    -0.083 Cl
BRANCH  14  19
ATOM     19  N   UNL     1       0.664  -6.069  -3.982  0.00  0.00    -0.358 N 
ATOM     20  H   UNL     1       1.241  -6.688  -3.509  0.00  0.00    +0.142 HD
ATOM     21  H   UNL     1       0.387  -6.262  -4.891  0.00  0.00    +0.142 HD
ENDBRANCH  14  19
ENDBRANCH   1  12
TORSDOF 3
