REMARK  Name = ZINC29256710
REMARK  4 active torsions:
REMARK  status: ('A' for Active; 'I' for Inactive)
REMARK    1  A    between atoms: C_1  and  N_2
REMARK    2  A    between atoms: N_2  and  C_3
REMARK    3  A    between atoms: C_14  and  C_16
REMARK    4  A    between atoms: C_21  and  N_22
REMARK                            x       y       z     vdW  Elec       q    Type
REMARK                         _______ _______ _______ _____ _____    ______ ____
ROOT
ATOM      1  C   UNL     1      -0.097   1.950   2.496  0.00  0.00    +0.133 C 
ATOM      2  N   UNL     1      -0.690   2.187   1.178  0.00  0.00    -0.293 N 
ATOM      3  C   UNL     1      -1.877   2.817   1.077  0.00  0.00    +0.249 C 
ATOM      4  O   UNL     1      -2.330   3.088  -0.018  0.00  0.00    -0.270 OA
ENDROOT
BRANCH   2   5
ATOM      5  C   UNL     1       0.007   1.740  -0.031  0.00  0.00    +0.106 C 
ATOM      6  C   UNL     1       0.193   0.225   0.027  0.00  0.00    +0.027 C 
ATOM      7  C   UNL     1       1.107  -0.194  -1.131  0.00  0.00    +0.007 C 
ATOM      8  C   UNL     1       2.518   0.313  -0.838  0.00  0.00    +0.035 C 
ATOM      9  C   UNL     1       2.494   1.779  -0.495  0.00  0.00    -0.042 A 
ATOM     10  C   UNL     1       1.341   2.434  -0.120  0.00  0.00    -0.024 A 
ATOM     11  C   UNL     1       1.389   3.786   0.190  0.00  0.00    +0.006 A 
ATOM     12  C   UNL     1       2.579   4.480   0.123  0.00  0.00    +0.000 A 
ATOM     13  C   UNL     1       3.735   3.824  -0.257  0.00  0.00    +0.000 A 
ATOM     14  C   UNL     1       3.691   2.480  -0.564  0.00  0.00    +0.004 A 
ENDBRANCH   2   5
BRANCH   3  15
ATOM     15  C   UNL     1      -2.628   3.178   2.297  0.00  0.00    +0.067 A 
ATOM     16  C   UNL     1      -2.050   4.016   3.254  0.00  0.00    +0.017 A 
ATOM     17  C   UNL     1      -2.758   4.354   4.388  0.00  0.00    +0.021 A 
ATOM     18  C   UNL     1      -4.035   3.855   4.584  0.00  0.00    +0.043 A 
ATOM     19  C   UNL     1      -4.612   3.020   3.642  0.00  0.00    +0.053 A 
ATOM     20  C   UNL     1      -3.916   2.679   2.501  0.00  0.00    +0.140 A 
ATOM     21 CL   UNL     1      -4.918   4.279   6.018  0.00  0.00    -0.083 Cl
BRANCH  20  22
ATOM     22  N   UNL     1      -4.533   1.788   1.494  0.00  0.00    +0.057 N 
ATOM     23  O   UNL     1      -5.632   1.304   1.701  0.00  0.00    -0.126 OA
ATOM     24  O   UNL     1      -3.943   1.538   0.458  0.00  0.00    -0.126 OA
ENDBRANCH  20  22
ENDBRANCH   3  15
TORSDOF 3
