REMARK  Name = ZINC25409517
REMARK  4 active torsions:
REMARK  status: ('A' for Active; 'I' for Inactive)
REMARK    1  A    between atoms: C_1  and  C_2
REMARK    2  A    between atoms: C_10  and  C_11
REMARK    3  A    between atoms: N_13  and  C_14
REMARK    4  A    between atoms: C_14  and  C_15
REMARK                            x       y       z     vdW  Elec       q    Type
REMARK                         _______ _______ _______ _____ _____    ______ ____
ROOT
ATOM      1  C   UNL     1       0.002  -0.004   0.002  0.00  0.00    +0.280 C 
ATOM      2  O   UNL     1       1.064  -0.598  -0.011  0.00  0.00    -0.267 OA
ATOM      3  N   UNL     1      -0.016   1.344   0.009  0.00  0.00    -0.302 N 
ATOM      4  H   UNL     1      -0.976   1.881   0.021  0.00  0.00    +0.150 HD
ENDROOT
BRANCH   1  14
ATOM      5  C   UNL     1      -0.232  -3.105  -0.025  0.00  0.00    +0.048 C 
ATOM      6  C   UNL     1      -1.364  -2.110  -0.002  0.00  0.00    +0.008 A 
ATOM      7  C   UNL     1      -2.796  -2.408   0.016  0.00  0.00    +0.025 A 
ATOM      8  C   UNL     1      -3.545  -3.587   0.017  0.00  0.00    +0.027 A 
ATOM      9  C   UNL     1      -4.911  -3.521   0.030  0.00  0.00    +0.019 A 
ATOM     10  C   UNL     1      -5.556  -2.291   0.042  0.00  0.00    +0.019 A 
ATOM     11  C   UNL     1      -4.834  -1.117   0.042  0.00  0.00    +0.048 A 
ATOM     12  C   UNL     1      -3.444  -1.159   0.028  0.00  0.00    +0.136 A 
ATOM     13  O   UNL     1      -2.493  -0.205   0.024  0.00  0.00    -0.450 OA
ATOM     14  C   UNL     1      -1.261  -0.756   0.010  0.00  0.00    +0.193 A 
ATOM     15 BR   UNL     1      -5.928  -5.115   0.031  0.00  0.00    -0.050 Br
ENDBRANCH   1  14
BRANCH   3  16
ATOM     16  C   UNL     1       1.242   2.093   0.001  0.00  0.00    +0.181 C 
BRANCH  16  17
ATOM     17  C   UNL     1       0.947   3.571   0.012  0.00  0.00    +0.151 A 
ATOM     18  N   UNL     1       0.805   4.327   1.069  0.00  0.00    -0.133 NA
ATOM     19  N   UNL     1       0.566   5.539   0.707  0.00  0.00    -0.134 NA
ATOM     20  C   UNL     1       0.548   5.609  -0.593  0.00  0.00    +0.133 A 
ATOM     21  N   UNL     1       0.785   4.365  -1.069  0.00  0.00    -0.314 N 
ATOM     22  C   UNL     1       0.837   3.965  -2.476  0.00  0.00    +0.125 C 
ATOM     23  C   UNL     1       1.284   5.157  -3.326  0.00  0.00    +0.022 C 
ATOM     24  C   UNL     1       0.064   5.968  -3.760  0.00  0.00    +0.002 C 
ATOM     25  C   UNL     1      -0.673   6.518  -2.542  0.00  0.00    +0.008 C 
ATOM     26  C   UNL     1       0.327   6.840  -1.435  0.00  0.00    +0.076 C 
ENDBRANCH  16  17
ENDBRANCH   3  16
TORSDOF 3
