REMARK  Name = ZINC58356892
REMARK  4 active torsions:
REMARK  status: ('A' for Active; 'I' for Inactive)
REMARK    1  A    between atoms: C_3  and  C_14
REMARK    2  A    between atoms: C_5  and  C_6
REMARK    3  A    between atoms: N_16  and  N_17
REMARK    4  A    between atoms: C_18  and  C_20
REMARK                            x       y       z     vdW  Elec       q    Type
REMARK                         _______ _______ _______ _____ _____    ______ ____
ROOT
ATOM      1  C   UNL     1      -0.017   1.381   0.010  0.00  0.00    +0.017 A 
ATOM      2  C   UNL     1       1.172   2.055   0.002  0.00  0.00    +0.021 A 
ATOM      3  C   UNL     1       2.352   1.325  -0.013  0.00  0.00    +0.076 A 
ATOM      4  S   UNL     1       1.752  -0.357  -0.017  0.00  0.00    -0.084 S 
ATOM      5  C   UNL     1       0.002  -0.004   0.002  0.00  0.00    +0.020 A 
ENDROOT
BRANCH   5   6
ATOM      6  C   UNL     1      -1.135  -0.948   0.008  0.00  0.00    -0.009 A 
ATOM      7  C   UNL     1      -2.445  -0.467   0.018  0.00  0.00    +0.029 A 
ATOM      8  C   UNL     1      -3.504  -1.353   0.023  0.00  0.00    +0.043 A 
ATOM      9  C   UNL     1      -3.267  -2.718   0.019  0.00  0.00    +0.040 A 
ATOM     10  C   UNL     1      -1.970  -3.201   0.010  0.00  0.00    +0.043 A 
ATOM     11  C   UNL     1      -0.903  -2.324  -0.002  0.00  0.00    +0.029 A 
ATOM     12 CL   UNL     1      -1.684  -4.913   0.005  0.00  0.00    -0.083 Cl
ATOM     13 CL   UNL     1      -5.134  -0.757   0.035  0.00  0.00    -0.083 Cl
ENDBRANCH   5   6
BRANCH   3  14
ATOM     14  C   UNL     1       3.734   1.809  -0.025  0.00  0.00    +0.267 C 
ATOM     15  O   UNL     1       3.960   3.005  -0.021  0.00  0.00    -0.268 OA
ATOM     16  N   UNL     1       4.756   0.930  -0.039  0.00  0.00    -0.230 N 
ATOM     17  H   UNL     1       4.576  -0.023  -0.042  0.00  0.00    +0.173 HD
BRANCH  16  18
ATOM     18  N   UNL     1       6.078   1.394  -0.050  0.00  0.00    -0.234 N 
ATOM     19  C   UNL     1       7.100   0.515  -0.064  0.00  0.00    +0.232 C 
ATOM     20  O   UNL     1       6.875  -0.677  -0.068  0.00  0.00    -0.274 OA
ATOM     21  H   UNL     1       6.258   2.347  -0.047  0.00  0.00    +0.173 HD
BRANCH  19  22
ATOM     22  C   UNL     1       8.522   1.013  -0.076  0.00  0.00    +0.076 C 
ATOM     23  C   UNL     1       9.340   0.786  -1.349  0.00  0.00    +0.013 C 
ATOM     24  C   UNL     1       9.637  -0.034  -0.092  0.00  0.00    +0.013 C 
ENDBRANCH  19  22
ENDBRANCH  16  18
ENDBRANCH   3  14
TORSDOF 4
