REMARK  Name = ZINC13031630
REMARK  8 active torsions:
REMARK  status: ('A' for Active; 'I' for Inactive)
REMARK    1  A    between atoms: C_1  and  N_2
REMARK    2  A    between atoms: N_2  and  C_3
REMARK    3  A    between atoms: C_4  and  N_19
REMARK    4  A    between atoms: N_5  and  C_12
REMARK    5  A    between atoms: C_12  and  C_13
REMARK    6  A    between atoms: C_20  and  C_22
REMARK    7  A    between atoms: C_22  and  N_56
REMARK    8  A    between atoms: C_26  and  C_28
REMARK                            x       y       z     vdW  Elec       q    Type
REMARK                         _______ _______ _______ _____ _____    ______ ____
ROOT
ATOM      1  C   UNL     1       3.999   5.946  -5.197  0.00  0.00    +0.139 A 
ATOM      2  C   UNL     1       4.606   4.732  -5.448  0.00  0.00    +0.128 A 
ATOM      3  N   UNL     1       5.748   4.697  -6.213  0.00  0.00    -0.276 N 
ATOM      4  C   UNL     1       6.268   5.833  -6.712  0.00  0.00    +0.331 A 
ATOM      5  O   UNL     1       7.278   5.782  -7.387  0.00  0.00    -0.246 OA
ATOM      6  N   UNL     1       5.691   7.026  -6.478  0.00  0.00    -0.273 N 
ATOM      7  H   UNL     1       6.100   7.856  -6.856  0.00  0.00    +0.173 HD
ATOM      8  C   UNL     1       4.568   7.114  -5.738  0.00  0.00    +0.277 A 
ATOM      9  O   UNL     1       4.050   8.199  -5.536  0.00  0.00    -0.266 OA
ENDROOT
BRANCH   1  11
ATOM     10  C   UNL     1       1.562   6.429  -5.027  0.00  0.00    +0.138 C 
ATOM     11  N   UNL     1       2.826   6.014  -4.415  0.00  0.00    -0.269 N 
ATOM     12  C   UNL     1       2.870   5.698  -3.104  0.00  0.00    +0.203 C 
ATOM     13  O   UNL     1       3.897   5.275  -2.616  0.00  0.00    -0.277 OA
BRANCH  12  14
ATOM     14  C   UNL     1       1.643   5.870  -2.247  0.00  0.00    +0.020 C 
BRANCH  14  19
ATOM     15  C   UNL     1       2.877   6.407  -0.229  0.00  0.00    -0.077 C 
ATOM     16  C   UNL     1       2.194   6.922   1.055  0.00  0.00    -0.020 C 
ATOM     17  C   UNL     1       1.153   5.814   1.369  0.00  0.00    -0.012 C 
ATOM     18  C   UNL     1       0.715   5.386  -0.054  0.00  0.00    -0.030 C 
ATOM     19  N   UNL     1       1.953   5.448  -0.856  0.00  0.00    +0.390 N 
ATOM     20  H   UNL     1       2.391   4.519  -0.877  0.00  0.00    -0.080 HD
BRANCH  18  21
ATOM     21  C   UNL     1       0.180   3.978  -0.038  0.00  0.00    -0.024 A 
ATOM     22  C   UNL     1      -1.107   3.553  -0.078  0.00  0.00    +0.009 A 
ATOM     23  C   UNL     1      -1.365   2.195  -0.058  0.00  0.00    +0.008 A 
ATOM     24  C   UNL     1      -0.325   1.329   0.013  0.00  0.00    +0.045 A 
ATOM     25  S   UNL     1       1.076   2.436   0.040  0.00  0.00    -0.103 S 
ENDBRANCH  18  21
ENDBRANCH  14  19
ENDBRANCH  12  14
ENDBRANCH   1  11
BRANCH   2  26
ATOM     26  N   UNL     1       4.074   3.571  -4.939  0.00  0.00    -0.343 N 
ATOM     27  H   UNL     1       3.306   3.607  -4.348  0.00  0.00    +0.144 HD
ATOM     28  H   UNL     1       4.467   2.715  -5.171  0.00  0.00    +0.144 HD
ENDBRANCH   2  26
BRANCH   3  29
ATOM     29  C   UNL     1       6.402   3.416  -6.487  0.00  0.00    +0.163 C 
BRANCH  29  30
ATOM     30  C   UNL     1       5.837   2.823  -7.753  0.00  0.00    -0.028 A 
ATOM     31  C   UNL     1       4.742   1.982  -7.693  0.00  0.00    +0.005 A 
ATOM     32  C   UNL     1       4.220   1.443  -8.854  0.00  0.00    +0.000 A 
ATOM     33  C   UNL     1       4.800   1.736 -10.074  0.00  0.00    +0.000 A 
ATOM     34  C   UNL     1       5.898   2.573 -10.133  0.00  0.00    +0.000 A 
ATOM     35  C   UNL     1       6.417   3.117  -8.973  0.00  0.00    +0.005 A 
ENDBRANCH  29  30
ENDBRANCH   3  29
TORSDOF 7
