REMARK  Name = ZINC12346054
REMARK  7 active torsions:
REMARK  status: ('A' for Active; 'I' for Inactive)
REMARK    1  A    between atoms: C_1  and  N_2
REMARK    2  A    between atoms: N_15  and  C_16
REMARK    3  A    between atoms: C_16  and  C_18
REMARK    4  A    between atoms: N_23  and  S_24
REMARK    5  A    between atoms: S_24  and  C_27
REMARK    6  A    between atoms: C_30  and  O_33
REMARK    7  A    between atoms: O_33  and  C_34
REMARK                            x       y       z     vdW  Elec       q    Type
REMARK                         _______ _______ _______ _____ _____    ______ ____
ROOT
ATOM      1  C   UNL     1      -0.654   0.814   2.338  0.00  0.00    +0.257 C 
ATOM      2  O   UNL     1      -0.272   1.608   3.177  0.00  0.00    -0.272 OA
ENDROOT
BRANCH   1  17
ATOM      3  C   UNL     1      -0.168  -3.320   3.204  0.00  0.00    +0.151 C 
ATOM      4  N   UNL     1       0.231  -2.213   4.077  0.00  0.00    -0.324 N 
ATOM      5  C   UNL     1       0.824  -2.478   5.298  0.00  0.00    +0.058 A 
ATOM      6  C   UNL     1       1.120  -3.742   5.863  0.00  0.00    +0.027 A 
ATOM      7  C   UNL     1       1.700  -3.862   7.080  0.00  0.00    +0.010 A 
ATOM      8  C   UNL     1       2.035  -2.727   7.838  0.00  0.00    -0.017 A 
ATOM      9  C   UNL     1       2.637  -2.835   9.101  0.00  0.00    +0.008 A 
ATOM     10  C   UNL     1       2.944  -1.707   9.801  0.00  0.00    +0.001 A 
ATOM     11  C   UNL     1       2.669  -0.445   9.279  0.00  0.00    +0.001 A 
ATOM     12  C   UNL     1       2.086  -0.303   8.057  0.00  0.00    +0.009 A 
ATOM     13  C   UNL     1       1.755  -1.441   7.306  0.00  0.00    -0.002 A 
ATOM     14  C   UNL     1       1.155  -1.351   6.046  0.00  0.00    +0.047 A 
ATOM     15  S   UNL     1       0.635  -0.004   5.014  0.00  0.00    -0.051 S 
ATOM     16  C   UNL     1       0.022  -0.930   3.683  0.00  0.00    +0.166 A 
ATOM     17  N   UNL     1      -0.525  -0.491   2.551  0.00  0.00    -0.155 NA
ENDBRANCH   1  17
BRANCH   1  18
ATOM     18  C   UNL     1      -1.273   1.312   1.058  0.00  0.00    +0.167 C 
ATOM     19  C   UNL     1      -0.172   1.767   0.067  0.00  0.00    +0.031 C 
ATOM     20  C   UNL     1      -0.950   2.771  -0.824  0.00  0.00    +0.019 C 
ATOM     21  C   UNL     1      -1.920   3.439   0.173  0.00  0.00    +0.110 C 
ATOM     22  N   UNL     1      -2.076   2.522   1.311  0.00  0.00    -0.165 NA
BRANCH  22  23
ATOM     23  S   UNL     1      -3.002   2.802   2.655  0.00  0.00    +0.062 S 
ATOM     24  O   UNL     1      -2.573   1.876   3.644  0.00  0.00    -0.153 OA
ATOM     25  O   UNL     1      -2.991   4.206   2.871  0.00  0.00    -0.153 OA
BRANCH  23  26
ATOM     26  C   UNL     1      -4.660   2.368   2.246  0.00  0.00    +0.106 A 
ATOM     27  C   UNL     1      -5.513   3.321   1.719  0.00  0.00    +0.032 A 
ATOM     28  C   UNL     1      -6.811   2.982   1.391  0.00  0.00    +0.047 A 
ATOM     29  C   UNL     1      -7.263   1.687   1.603  0.00  0.00    +0.120 A 
ATOM     30  C   UNL     1      -6.408   0.735   2.137  0.00  0.00    +0.047 A 
ATOM     31  C   UNL     1      -5.108   1.077   2.457  0.00  0.00    +0.032 A 
BRANCH  29  32
ATOM     32  O   UNL     1      -8.542   1.353   1.286  0.00  0.00    -0.495 OA
ATOM     33  C   UNL     1      -9.366   2.384   0.740  0.00  0.00    +0.277 C 
ENDBRANCH  29  32
ENDBRANCH  23  26
ENDBRANCH  22  23
ENDBRANCH   1  18
TORSDOF 5
