REMARK  Name = ZINC20463360
REMARK  7 active torsions:
REMARK  status: ('A' for Active; 'I' for Inactive)
REMARK    1  A    between atoms: N_11  and  C_12
REMARK    2  A    between atoms: N_15  and  C_18
REMARK    3  A    between atoms: C_18  and  C_19
REMARK    4  A    between atoms: C_19  and  C_20
REMARK    5  A    between atoms: C_26  and  C_28
REMARK    6  A    between atoms: C_28  and  C_29
REMARK    7  A    between atoms: N_34  and  C_35
REMARK                            x       y       z     vdW  Elec       q    Type
REMARK                         _______ _______ _______ _____ _____    ______ ____
ROOT
ATOM      1  C   UNL     1      -8.473   5.475  -1.022  0.00  0.00    -0.013 C 
ENDROOT
BRANCH   1   2
ATOM      2  C   UNL     1      -9.998   5.361  -1.009  0.00  0.00    +0.008 C 
ATOM      3  C   UNL     1     -10.545   5.971   0.285  0.00  0.00    +0.113 C 
ATOM      4  N   UNL     1     -10.262   7.413   0.285  0.00  0.00    -0.285 N 
ATOM      5  C   UNL     1     -10.696   8.218  -0.865  0.00  0.00    +0.109 C 
ATOM      6  C   UNL     1     -10.147   7.582  -2.147  0.00  0.00    +0.023 C 
ATOM      7  C   UNL     1     -10.577   6.115  -2.208  0.00  0.00    +0.006 C 
ATOM      8  C   UNL     1      -9.617   7.986   1.320  0.00  0.00    +0.302 C 
ATOM      9  O   UNL     1      -9.345   7.329   2.306  0.00  0.00    -0.253 OA
ATOM     10  N   UNL     1      -9.274   9.288   1.263  0.00  0.00    -0.296 N 
ATOM     11  H   UNL     1      -9.592   9.904   0.408  0.00  0.00    +0.151 HD
BRANCH  10  12
ATOM     12  C   UNL     1      -8.476   9.884   2.338  0.00  0.00    +0.074 C 
ATOM     13  C   UNL     1      -9.402  10.329   3.472  0.00  0.00    +0.022 C 
ATOM     14  C   UNL     1      -8.569  10.951   4.595  0.00  0.00    +0.002 C 
ATOM     15  C   UNL     1      -7.806  12.162   4.053  0.00  0.00    +0.000 C 
ATOM     16  C   UNL     1      -6.881  11.717   2.919  0.00  0.00    +0.002 C 
ATOM     17  C   UNL     1      -7.714  11.095   1.796  0.00  0.00    +0.022 C 
ENDBRANCH  10  12
BRANCH   7  18
ATOM     18  C   UNL     1     -10.060   5.486  -3.504  0.00  0.00    +0.129 C 
BRANCH  18  19
ATOM     19  C   UNL     1     -10.724   6.148  -4.683  0.00  0.00    +0.356 C 
ATOM     20  O   UNL     1     -11.529   7.032  -4.506  0.00  0.00    -0.246 OA
ATOM     21  O   UNL     1     -10.422   5.756  -5.931  0.00  0.00    -0.246 OA
ENDBRANCH  18  19
ENDBRANCH   7  18
ENDBRANCH   1   2
BRANCH   1  22
ATOM     22  C   UNL     1      -7.888   4.622   0.106  0.00  0.00    -0.079 C 
BRANCH  22  26
ATOM     23  C   UNL     1      -3.695   3.785   0.062  0.00  0.00    +0.089 C 
ATOM     24  C   UNL     1      -4.354   4.398  -1.177  0.00  0.00    +0.006 C 
ATOM     25  C   UNL     1      -5.861   4.139  -1.128  0.00  0.00    -0.077 C 
ATOM     26  N   UNL     1      -6.423   4.732   0.093  0.00  0.00    +0.380 N 
ATOM     27  C   UNL     1      -5.839   4.124   1.296  0.00  0.00    -0.077 C 
ATOM     28  C   UNL     1      -4.331   4.384   1.319  0.00  0.00    +0.006 C 
ATOM     29  H   UNL     1      -6.162   5.801   0.097  0.00  0.00    -0.082 HD
BRANCH  23  40
ATOM     30  C   UNL     1       1.184   1.789   0.008  0.00  0.00    +0.002 A 
ATOM     31  C   UNL     1      -0.007   1.083   0.015  0.00  0.00    +0.002 A 
ATOM     32  C   UNL     1      -1.214   1.753   0.023  0.00  0.00    +0.028 A 
ATOM     33  C   UNL     1      -1.234   3.139   0.037  0.00  0.00    +0.070 A 
ATOM     34  C   UNL     1      -0.033   3.852   0.030  0.00  0.00    +0.067 A 
ATOM     35  C   UNL     1       1.174   3.170   0.015  0.00  0.00    +0.028 A 
ATOM     36  N   UNL     1      -0.367   5.204   0.040  0.00  0.00    -0.306 N 
ATOM     37  H   UNL     1       0.426   5.966   0.036  0.00  0.00    +0.170 HD
ATOM     38  C   UNL     1      -1.709   5.309   0.052  0.00  0.00    +0.328 A 
ATOM     39  O   UNL     1      -2.330   6.356   0.064  0.00  0.00    -0.247 OA
ATOM     40  N   UNL     1      -2.260   4.081   0.051  0.00  0.00    -0.289 N 
ENDBRANCH  23  40
ENDBRANCH  22  26
ENDBRANCH   1  22
TORSDOF 7
