REMARK  Name = ZINC09789183
REMARK  7 active torsions:
REMARK  status: ('A' for Active; 'I' for Inactive)
REMARK    1  A    between atoms: C_1  and  C_2
REMARK    2  A    between atoms: C_3  and  C_15
REMARK    3  A    between atoms: N_5  and  C_7
REMARK    4  A    between atoms: C_7  and  C_8
REMARK    5  A    between atoms: N_16  and  N_17
REMARK    6  A    between atoms: C_18  and  C_20
REMARK    7  A    between atoms: C_22  and  N_27
REMARK                            x       y       z     vdW  Elec       q    Type
REMARK                         _______ _______ _______ _____ _____    ______ ____
ROOT
ATOM      1  N   UNL     1      -3.681   5.744   0.067  0.00  0.00    -0.202 N 
ATOM      2  C   UNL     1      -5.021   5.604   0.080  0.00  0.00    +0.281 C 
ATOM      3  O   UNL     1      -5.517   4.494   0.079  0.00  0.00    -0.267 OA
ATOM      4  H   UNL     1      -3.285   6.629   0.068  0.00  0.00    +0.178 HD
ENDROOT
BRANCH   2   5
ATOM      5  C   UNL     1      -5.890   6.802   0.094  0.00  0.00    +0.125 A 
ATOM      6  C   UNL     1      -7.274   6.651   0.100  0.00  0.00    +0.091 A 
ATOM      7  C   UNL     1      -8.078   7.790   0.119  0.00  0.00    +0.067 A 
ATOM      8  C   UNL     1      -7.458   9.039   0.119  0.00  0.00    +0.098 A 
ATOM      9  C   UNL     1      -6.074   9.107   0.107  0.00  0.00    +0.128 A 
ATOM     10 CL   UNL     1      -5.295  10.658   0.107  0.00  0.00    -0.062 Cl
ATOM     11 CL   UNL     1      -8.409  10.491   0.135  0.00  0.00    -0.079 Cl
ATOM     12 CL   UNL     1      -7.987   5.068   0.092  0.00  0.00    -0.079 Cl
ATOM     13  N   UNL     1      -5.261   8.020   0.094  0.00  0.00    -0.339 N 
ATOM     14  H   UNL     1      -4.238   8.105   0.085  0.00  0.00    +0.167 HD
BRANCH   7  15
ATOM     15  N   UNL     1      -9.468   7.683   0.132  0.00  0.00    -0.356 N 
ATOM     16  H   UNL     1     -10.016   8.484   0.141  0.00  0.00    +0.142 HD
ATOM     17  H   UNL     1      -9.887   6.809   0.131  0.00  0.00    +0.142 HD
ENDBRANCH   7  15
ENDBRANCH   2   5
BRANCH   1  19
ATOM     18  C   UNL     1      -1.568   4.744   0.042  0.00  0.00    +0.143 C 
ATOM     19  N   UNL     1      -2.859   4.609   0.054  0.00  0.00    -0.187 NA
BRANCH  18  22
ATOM     20  C   UNL     1       1.603   4.752   0.013  0.00  0.00    +0.068 C 
ATOM     21  C   UNL     1       0.710   3.539   0.014  0.00  0.00    +0.070 A 
ATOM     22  C   UNL     1      -0.702   3.550   0.028  0.00  0.00    +0.054 A 
ATOM     23  C   UNL     1      -1.121   2.234   0.019  0.00  0.00    +0.136 A 
ATOM     24  N   UNL     1      -0.018   1.461   0.010  0.00  0.00    -0.248 N 
ATOM     25  N   UNL     1       1.106   2.295   0.004  0.00  0.00    -0.174 NA
ATOM     26 CL   UNL     1      -2.766   1.679   0.023  0.00  0.00    -0.062 Cl
BRANCH  24  27
ATOM     27  C   UNL     1       0.002  -0.004   0.002  0.00  0.00    +0.180 C 
BRANCH  27  28
ATOM     28  C   UNL     1       0.022  -0.514   1.420  0.00  0.00    -0.026 A 
ATOM     29  C   UNL     1       1.228  -0.737   2.058  0.00  0.00    +0.005 A 
ATOM     30  C   UNL     1       1.246  -1.200   3.360  0.00  0.00    +0.000 A 
ATOM     31  C   UNL     1       0.058  -1.450   4.021  0.00  0.00    +0.000 A 
ATOM     32  C   UNL     1      -1.148  -1.232   3.382  0.00  0.00    +0.000 A 
ATOM     33  C   UNL     1      -1.166  -0.764   2.081  0.00  0.00    +0.005 A 
ENDBRANCH  27  28
ENDBRANCH  24  27
ENDBRANCH  18  22
ENDBRANCH   1  19
TORSDOF 6
