REMARK  Name = ZINC33597020
REMARK  7 active torsions:
REMARK  status: ('A' for Active; 'I' for Inactive)
REMARK    1  A    between atoms: C_1  and  C_2
REMARK    2  A    between atoms: C_7  and  N_8
REMARK    3  A    between atoms: C_13  and  C_32
REMARK    4  A    between atoms: C_16  and  C_21
REMARK    5  A    between atoms: C_16  and  C_29
REMARK    6  A    between atoms: C_21  and  C_22
REMARK    7  A    between atoms: C_25  and  O_28
REMARK                            x       y       z     vdW  Elec       q    Type
REMARK                         _______ _______ _______ _____ _____    ______ ____
ROOT
ATOM      1  N   UNL     1      -1.202  -0.723   0.009  0.00  0.00    -0.210 N 
ATOM      2  C   UNL     1      -1.841  -1.124   1.156  0.00  0.00    +0.229 C 
ATOM      3  O   UNL     1      -1.608  -0.767   2.291  0.00  0.00    -0.275 OA
ATOM      4  C   UNL     1      -2.846  -2.056   0.725  0.00  0.00    +0.080 C 
ATOM      5  C   UNL     1      -4.080  -2.733   1.156  0.00  0.00    +0.010 C 
ATOM      6  N   UNL     1      -4.539  -3.430  -0.094  0.00  0.00    +0.398 N 
ATOM      7  C   UNL     1      -3.921  -2.733  -1.261  0.00  0.00    +0.052 C 
ATOM      8  C   UNL     1      -3.237  -1.502  -0.694  0.00  0.00    +0.087 C 
ATOM      9  C   UNL     1      -1.862  -1.105  -1.125  0.00  0.00    +0.229 C 
ATOM     10  O   UNL     1      -1.420  -1.118  -2.254  0.00  0.00    -0.275 OA
ATOM     11  H   UNL     1      -4.220  -4.482  -0.065  0.00  0.00    -0.083 HD
ATOM     12  H   UNL     1      -5.636  -3.382  -0.158  0.00  0.00    -0.083 HD
ENDROOT
BRANCH   5  13
ATOM     13  C   UNL     1      -5.098  -1.718   1.607  0.00  0.00    +0.093 A 
ATOM     14  C   UNL     1      -5.423  -1.472   2.883  0.00  0.00    +0.051 A 
ATOM     15  C   UNL     1      -6.445  -0.419   2.850  0.00  0.00    +0.020 A 
ATOM     16  C   UNL     1      -7.174   0.263   3.823  0.00  0.00    +0.011 A 
ATOM     17  C   UNL     1      -8.076   1.220   3.448  0.00  0.00    +0.001 A 
ATOM     18  C   UNL     1      -8.271   1.514   2.106  0.00  0.00    +0.004 A 
ATOM     19  C   UNL     1      -7.559   0.850   1.130  0.00  0.00    +0.047 A 
ATOM     20  C   UNL     1      -6.637  -0.125   1.490  0.00  0.00    +0.135 A 
ATOM     21  O   UNL     1      -5.807  -0.922   0.787  0.00  0.00    -0.461 OA
ENDBRANCH   5  13
BRANCH   1  28
ATOM     22  C   UNL     1       1.240  -2.186  -0.022  0.00  0.00    +0.045 C 
ATOM     23  C   UNL     1       1.215  -0.679  -0.013  0.00  0.00    -0.029 A 
ATOM     24  C   UNL     1       2.399   0.032  -0.021  0.00  0.00    +0.005 A 
ATOM     25  C   UNL     1       2.377   1.415  -0.013  0.00  0.00    +0.000 A 
ATOM     26  C   UNL     1       1.171   2.090   0.002  0.00  0.00    +0.002 A 
ATOM     27  C   UNL     1      -0.017   1.384   0.010  0.00  0.00    +0.024 A 
ATOM     28  C   UNL     1       0.002  -0.004   0.002  0.00  0.00    +0.047 A 
ENDBRANCH   1  28
BRANCH   7  29
ATOM     29  C   UNL     1      -4.986  -2.329  -2.248  0.00  0.00    +0.347 C 
ATOM     30  O   UNL     1      -4.906  -1.268  -2.822  0.00  0.00    -0.248 OA
ATOM     31  O   UNL     1      -6.022  -3.147  -2.491  0.00  0.00    -0.248 OA
ENDBRANCH   7  29
BRANCH   7  32
ATOM     32  C   UNL     1      -2.893  -3.643  -1.937  0.00  0.00    +0.035 C 
BRANCH  32  33
ATOM     33  C   UNL     1      -3.588  -4.859  -2.494  0.00  0.00    -0.048 A 
ATOM     34  C   UNL     1      -3.727  -5.992  -1.714  0.00  0.00    +0.007 A 
ATOM     35  C   UNL     1      -4.369  -7.106  -2.220  0.00  0.00    +0.045 A 
ATOM     36  C   UNL     1      -4.863  -7.091  -3.516  0.00  0.00    +0.117 A 
ATOM     37  C   UNL     1      -4.718  -5.955  -4.298  0.00  0.00    +0.045 A 
ATOM     38  C   UNL     1      -4.080  -4.842  -3.786  0.00  0.00    +0.007 A 
BRANCH  36  39
ATOM     39  O   UNL     1      -5.490  -8.188  -4.017  0.00  0.00    -0.507 OA
ATOM     40  H   UNL     1      -5.882  -8.175  -5.045  0.00  0.00    +0.292 HD
ENDBRANCH  36  39
ENDBRANCH  32  33
ENDBRANCH   7  32
TORSDOF 6
