REMARK  Name = ZINC00870319
REMARK  8 active torsions:
REMARK  status: ('A' for Active; 'I' for Inactive)
REMARK    1  A    between atoms: C_1  and  C_2
REMARK    2  A    between atoms: C_3  and  N_9
REMARK    3  A    between atoms: N_9  and  C_10
REMARK    4  A    between atoms: C_10  and  C_11
REMARK    5  A    between atoms: N_13  and  N_14
REMARK    6  A    between atoms: C_15  and  C_16
REMARK    7  A    between atoms: C_15  and  C_17
REMARK    8  A    between atoms: C_20  and  N_23
REMARK                            x       y       z     vdW  Elec       q    Type
REMARK                         _______ _______ _______ _____ _____    ______ ____
ROOT
ATOM      1  C   UNL     1       0.142   5.686   0.030  0.00  0.00    +0.249 C 
ATOM      2  O   UNL     1       1.281   6.104   0.021  0.00  0.00    -0.272 OA
ATOM      3  N   UNL     1      -0.892   6.550   0.044  0.00  0.00    -0.205 N 
ATOM      4  H   UNL     1      -1.803   6.216   0.051  0.00  0.00    +0.177 HD
ENDROOT
BRANCH   3   5
ATOM      5  N   UNL     1      -0.652   7.930   0.049  0.00  0.00    -0.185 NA
ATOM      6  C   UNL     1      -1.648   8.762   0.062  0.00  0.00    +0.063 C 
ATOM      7  C   UNL     1      -3.063   8.243   0.073  0.00  0.00    +0.068 C 
BRANCH   6   8
ATOM      8  C   UNL     1      -1.395  10.215   0.067  0.00  0.00    -0.002 A 
ATOM      9  C   UNL     1      -2.465  11.113   0.076  0.00  0.00    +0.012 A 
ATOM     10  C   UNL     1      -2.221  12.471   0.087  0.00  0.00    +0.033 A 
ATOM     11  C   UNL     1      -0.920  12.943   0.077  0.00  0.00    +0.126 A 
ATOM     12  C   UNL     1       0.144  12.059   0.062  0.00  0.00    +0.033 A 
ATOM     13  C   UNL     1      -0.085  10.699   0.057  0.00  0.00    +0.012 A 
BRANCH  11  14
ATOM     14  N   UNL     1      -0.667  14.402   0.083  0.00  0.00    +0.056 N 
ATOM     15  O   UNL     1       0.477  14.821   0.075  0.00  0.00    -0.126 OA
ATOM     16  O   UNL     1      -1.601  15.182   0.096  0.00  0.00    -0.126 OA
ENDBRANCH  11  14
ENDBRANCH   6   8
ENDBRANCH   3   5
BRANCH   1  17
ATOM     17  C   UNL     1      -0.116   4.201   0.025  0.00  0.00    +0.199 C 
BRANCH  17  18
ATOM     18  N   UNL     1       1.161   3.483   0.009  0.00  0.00    -0.335 N 
ATOM     19  H   UNL     1       1.996   3.978   0.004  0.00  0.00    +0.147 HD
BRANCH  18  22
ATOM     20  C   UNL     1       3.685   2.171  -0.022  0.00  0.00    +0.047 C 
ATOM     21  C   UNL     1       2.387   1.405  -0.014  0.00  0.00    -0.011 A 
ATOM     22  C   UNL     1       1.177   2.087   0.002  0.00  0.00    +0.032 A 
ATOM     23  C   UNL     1      -0.017   1.377   0.010  0.00  0.00    +0.023 A 
ATOM     24  C   UNL     1       0.002  -0.004   0.002  0.00  0.00    +0.003 A 
ATOM     25  C   UNL     1       1.208  -0.681  -0.013  0.00  0.00    +0.020 A 
ATOM     26  C   UNL     1       2.400   0.023  -0.020  0.00  0.00    +0.046 A 
ATOM     27 CL   UNL     1       3.911  -0.831  -0.039  0.00  0.00    -0.083 Cl
ENDBRANCH  18  22
ENDBRANCH  17  18
ENDBRANCH   1  17
TORSDOF 6
