REMARK  Name = ZINC10201845
REMARK  5 active torsions:
REMARK  status: ('A' for Active; 'I' for Inactive)
REMARK    1  A    between atoms: C_1  and  C_2
REMARK    2  A    between atoms: C_2  and  C_3
REMARK    3  A    between atoms: C_2  and  C_4
REMARK    4  A    between atoms: C_4  and  C_6
REMARK    5  A    between atoms: C_4  and  N_11
REMARK                            x       y       z     vdW  Elec       q    Type
REMARK                         _______ _______ _______ _____ _____    ______ ____
ROOT
ATOM      1  N   UNL     1      -2.142  -0.048  -1.174  0.00  0.00    -0.292 N 
ATOM      2  C   UNL     1      -2.727   1.166  -1.160  0.00  0.00    +0.306 C 
ATOM      3  O   UNL     1      -2.667   1.858  -0.163  0.00  0.00    -0.252 OA
ATOM      4  N   UNL     1      -3.379   1.612  -2.252  0.00  0.00    -0.248 N 
ATOM      5  C   UNL     1      -3.980   2.860  -2.238  0.00  0.00    +0.167 A 
ATOM      6  N   UNL     1      -4.018   3.745  -1.269  0.00  0.00    -0.225 NA
ATOM      7  C   UNL     1      -4.646   4.933  -1.395  0.00  0.00    +0.080 A 
ATOM      8  C   UNL     1      -4.761   5.967  -0.437  0.00  0.00    +0.029 A 
ATOM      9  C   UNL     1      -5.440   7.120  -0.729  0.00  0.00    +0.002 A 
ATOM     10  C   UNL     1      -6.037   7.317  -1.966  0.00  0.00    +0.001 A 
ATOM     11  C   UNL     1      -5.945   6.327  -2.927  0.00  0.00    +0.017 A 
ATOM     12  C   UNL     1      -5.266   5.169  -2.644  0.00  0.00    +0.041 A 
ATOM     13  S   UNL     1      -4.895   3.678  -3.537  0.00  0.00    -0.052 S 
ATOM     14  H   UNL     1      -2.190  -0.601  -1.970  0.00  0.00    +0.151 HD
ATOM     15  H   UNL     1      -3.427   1.060  -3.048  0.00  0.00    +0.158 HD
ENDROOT
BRANCH   1  16
ATOM     16  C   UNL     1      -1.433  -0.534   0.013  0.00  0.00    +0.114 C 
BRANCH  16  17
ATOM     17  C   UNL     1      -1.413  -2.041   0.005  0.00  0.00    +0.010 A 
ATOM     18  C   UNL     1      -1.580  -2.902   1.038  0.00  0.00    +0.013 A 
ATOM     19  C   UNL     1      -1.521  -4.261   0.793  0.00  0.00    +0.008 A 
ATOM     20  C   UNL     1      -1.299  -4.692  -0.473  0.00  0.00    +0.045 A 
ATOM     21  S   UNL     1      -1.171  -3.154  -1.370  0.00  0.00    -0.100 S 
ENDBRANCH  16  17
BRANCH  16  23
ATOM     22  C   UNL     1      -0.019   1.526   0.010  0.00  0.00    +0.009 C 
ATOM     23  C   UNL     1       0.002  -0.004   0.002  0.00  0.00    +0.008 C 
ATOM     24  C   UNL     1       0.742  -0.511   1.242  0.00  0.00    +0.009 C 
ENDBRANCH  16  23
ENDBRANCH   1  16
TORSDOF 3
