REMARK  Name = ZINC20916042
REMARK  14 active torsions:
REMARK  status: ('A' for Active; 'I' for Inactive)
REMARK    1  A    between atoms: C_1  and  O_2
REMARK    2  A    between atoms: O_2  and  C_3
REMARK    3  A    between atoms: C_5  and  N_13
REMARK    4  A    between atoms: C_7  and  O_11
REMARK    5  A    between atoms: C_8  and  O_9
REMARK    6  A    between atoms: O_9  and  C_10
REMARK    7  A    between atoms: O_11  and  C_12
REMARK    8  A    between atoms: C_14  and  C_16
REMARK    9  A    between atoms: C_16  and  S_17
REMARK   10  A    between atoms: S_17  and  C_18
REMARK   11  A    between atoms: N_22  and  N_23
REMARK   12  A    between atoms: N_24  and  N_25
REMARK   13  A    between atoms: C_26  and  C_27
REMARK   14  A    between atoms: C_36  and  O_37
REMARK                            x       y       z     vdW  Elec       q    Type
REMARK                         _______ _______ _______ _____ _____    ______ ____
ROOT
ATOM      1  C   UNL     1      -5.290   0.834   0.258  0.00  0.00    +0.210 A 
ATOM      2  N   UNL     1      -5.246  -0.474   0.344  0.00  0.00    -0.119 NA
ATOM      3  N   UNL     1      -6.562  -0.946   0.443  0.00  0.00    -0.109 NA
ATOM      4  C   UNL     1      -7.367   0.089   0.406  0.00  0.00    +0.254 A 
ATOM      5  N   UNL     1      -6.601   1.216   0.291  0.00  0.00    -0.211 N 
ATOM      6  N   UNL     1      -8.752   0.047   0.472  0.00  0.00    -0.204 N 
ATOM      7  H   UNL     1      -9.332   0.980   0.431  0.00  0.00    +0.177 HD
ENDROOT
BRANCH   5   8
ATOM      8  N   UNL     1      -7.066   2.498   0.221  0.00  0.00    -0.294 N 
ATOM      9  H   UNL     1      -8.148   2.694   0.256  0.00  0.00    +0.163 HD
ATOM     10  H   UNL     1      -6.359   3.336   0.129  0.00  0.00    +0.163 HD
ENDBRANCH   5   8
BRANCH   6  11
ATOM     11  N   UNL     1      -9.410  -1.184   0.590  0.00  0.00    -0.187 NA
ATOM     12  C   UNL     1     -10.709  -1.223   0.651  0.00  0.00    +0.142 C 
BRANCH  12  13
ATOM     13  C   UNL     1     -11.400  -2.514   0.775  0.00  0.00    +0.044 A 
ATOM     14  C   UNL     1     -12.858  -2.576   0.851  0.00  0.00    -0.006 A 
ATOM     15  C   UNL     1     -13.642  -1.417   0.810  0.00  0.00    +0.009 A 
ATOM     16  C   UNL     1     -14.999  -1.518   0.885  0.00  0.00    +0.001 A 
ATOM     17  C   UNL     1     -15.618  -2.760   1.002  0.00  0.00    +0.001 A 
ATOM     18  C   UNL     1     -14.887  -3.909   1.034  0.00  0.00    +0.008 A 
ATOM     19  C   UNL     1     -13.485  -3.841   0.965  0.00  0.00    -0.017 A 
ATOM     20  C   UNL     1     -12.696  -5.004   1.013  0.00  0.00    +0.012 A 
ATOM     21  C   UNL     1     -11.340  -4.928   0.945  0.00  0.00    +0.046 A 
ATOM     22  C   UNL     1     -10.678  -3.707   0.827  0.00  0.00    +0.126 A 
BRANCH  22  23
ATOM     23  O   UNL     1      -9.322  -3.678   0.763  0.00  0.00    -0.506 OA
ATOM     24  H   UNL     1      -8.749  -4.616   0.804  0.00  0.00    +0.292 HD
ENDBRANCH  22  23
ENDBRANCH  12  13
ENDBRANCH   6  11
BRANCH   1  25
ATOM     25  S   UNL     1      -3.902   1.910   0.118  0.00  0.00    -0.075 S 
BRANCH  25  26
ATOM     26  C   UNL     1      -2.475   0.789   0.133  0.00  0.00    +0.173 C 
BRANCH  26  28
ATOM     27  N   UNL     1      -0.011   0.966   0.007  0.00  0.00    -0.285 N 
ATOM     28  C   UNL     1      -1.205   1.591   0.017  0.00  0.00    +0.227 C 
ATOM     29  O   UNL     1      -1.257   2.800  -0.067  0.00  0.00    -0.275 OA
ATOM     30  H   UNL     1       0.034  -0.133   0.011  0.00  0.00    +0.155 HD
BRANCH  27  33
ATOM     31  C   UNL     1       3.464   1.998   0.658  0.00  0.00    +0.167 A 
ATOM     32  C   UNL     1       2.292   1.258   0.673  0.00  0.00    +0.073 A 
ATOM     33  C   UNL     1       1.172   1.715  -0.008  0.00  0.00    +0.041 A 
ATOM     34  C   UNL     1       1.226   2.912  -0.709  0.00  0.00    +0.073 A 
ATOM     35  C   UNL     1       2.396   3.657  -0.721  0.00  0.00    +0.167 A 
ATOM     36  C   UNL     1       3.517   3.199  -0.039  0.00  0.00    +0.204 A 
BRANCH  31  38
ATOM     37  C   UNL     1       4.434   0.307   2.019  0.00  0.00    +0.277 C 
ATOM     38  O   UNL     1       4.561   1.549   1.325  0.00  0.00    -0.491 OA
ENDBRANCH  31  38
BRANCH  36  39
ATOM     39  O   UNL     1       4.668   3.927  -0.054  0.00  0.00    -0.488 OA
ATOM     40  C   UNL     1       5.596   3.651  -1.105  0.00  0.00    +0.277 C 
ENDBRANCH  36  39
BRANCH  35  41
ATOM     41  O   UNL     1       2.447   4.832  -1.403  0.00  0.00    -0.491 OA
ATOM     42  C   UNL     1       1.257   5.241  -2.080  0.00  0.00    +0.277 C 
ENDBRANCH  35  41
ENDBRANCH  27  33
ENDBRANCH  26  28
ENDBRANCH  25  26
ENDBRANCH   1  25
TORSDOF 11
