REMARK  Name = ZINC14739849
REMARK  9 active torsions:
REMARK  status: ('A' for Active; 'I' for Inactive)
REMARK    1  A    between atoms: C_1  and  C_2
REMARK    2  A    between atoms: C_3  and  C_32
REMARK    3  A    between atoms: C_11  and  C_13
REMARK    4  A    between atoms: C_13  and  S_14
REMARK    5  A    between atoms: S_14  and  C_15
REMARK    6  A    between atoms: C_15  and  C_17
REMARK    7  A    between atoms: C_15  and  C_18
REMARK    8  A    between atoms: C_18  and  O_20
REMARK    9  A    between atoms: O_20  and  C_21
REMARK                            x       y       z     vdW  Elec       q    Type
REMARK                         _______ _______ _______ _____ _____    ______ ____
ROOT
ATOM      1  C   UNL     1      -4.169   1.801   0.112  0.00  0.00    +0.153 C 
ATOM      2  C   UNL     1      -4.199   2.524  -1.236  0.00  0.00    +0.031 C 
ENDROOT
BRANCH   1   3
ATOM      3  C   UNL     1      -5.383   0.917   0.236  0.00  0.00    +0.325 C 
ATOM      4  O   UNL     1      -5.292  -0.268   0.021  0.00  0.00    -0.249 OA
BRANCH   3   5
ATOM      5  O   UNL     1      -6.566   1.447   0.584  0.00  0.00    -0.424 OA
BRANCH   5   6
ATOM      6  C   UNL     1      -7.641   0.616   0.575  0.00  0.00    +0.139 A 
ATOM      7  C   UNL     1      -8.440   0.538  -0.531  0.00  0.00    +0.048 A 
ATOM      8  C   UNL     1      -9.545  -0.308  -0.558  0.00  0.00    +0.024 A 
ATOM      9  C   UNL     1      -9.862  -1.084   0.517  0.00  0.00    +0.049 A 
ATOM     10  C   UNL     1      -9.065  -1.032   1.674  0.00  0.00    +0.004 A 
ATOM     11  C   UNL     1      -7.936  -0.175   1.703  0.00  0.00    +0.026 A 
ATOM     12  C   UNL     1      -7.143  -0.119   2.861  0.00  0.00    +0.012 A 
ATOM     13  C   UNL     1      -7.462  -0.894   3.934  0.00  0.00    +0.001 A 
ATOM     14  C   UNL     1      -8.568  -1.740   3.904  0.00  0.00    +0.001 A 
ATOM     15  C   UNL     1      -9.362  -1.817   2.801  0.00  0.00    +0.010 A 
ATOM     16 CL   UNL     1     -11.245  -2.131   0.458  0.00  0.00    -0.083 Cl
ENDBRANCH   5   6
ENDBRANCH   3   5
ENDBRANCH   1   3
BRANCH   1  17
ATOM     17  S   UNL     1      -2.669   0.786   0.221  0.00  0.00    -0.139 S 
BRANCH  17  18
ATOM     18  C   UNL     1      -1.318   1.997   0.210  0.00  0.00    +0.144 C 
BRANCH  18  29
ATOM     19  C   UNL     1       4.958  -0.338   0.541  0.00  0.00    +0.045 C 
ATOM     20  C   UNL     1       3.565  -0.914   0.525  0.00  0.00    -0.026 A 
ATOM     21  C   UNL     1       3.379  -2.242   0.587  0.00  0.00    -0.008 A 
ATOM     22  S   UNL     1       1.605  -2.412   0.537  0.00  0.00    -0.073 S 
ATOM     23  C   UNL     1       1.166  -0.696   0.435  0.00  0.00    +0.116 A 
ATOM     24  C   UNL     1       2.410  -0.039   0.443  0.00  0.00    +0.075 A 
ATOM     25  C   UNL     1       2.356   1.391   0.368  0.00  0.00    +0.260 A 
ATOM     26  O   UNL     1       3.381   2.050   0.369  0.00  0.00    -0.267 OA
ATOM     27  N   UNL     1       1.155   1.994   0.298  0.00  0.00    -0.310 N 
ATOM     28  H   UNL     1       1.112   2.962   0.247  0.00  0.00    +0.170 HD
ATOM     29  C   UNL     1       0.003   1.276   0.296  0.00  0.00    +0.121 A 
ATOM     30  N   UNL     1       0.019  -0.028   0.364  0.00  0.00    -0.226 NA
ATOM     31  C   UNL     1       4.419  -3.328   0.676  0.00  0.00    +0.052 C 
ENDBRANCH  18  29
ENDBRANCH  17  18
ENDBRANCH   1  17
TORSDOF 6
