REMARK  Name = ZINC00871393
REMARK  8 active torsions:
REMARK  status: ('A' for Active; 'I' for Inactive)
REMARK    1  A    between atoms: C_1  and  C_2
REMARK    2  A    between atoms: C_7  and  O_8
REMARK    3  A    between atoms: O_8  and  C_9
REMARK    4  A    between atoms: C_9  and  C_10
REMARK    5  A    between atoms: N_12  and  C_13
REMARK    6  A    between atoms: C_14  and  C_27
REMARK    7  A    between atoms: C_15  and  C_26
REMARK    8  A    between atoms: C_16  and  C_18
REMARK                            x       y       z     vdW  Elec       q    Type
REMARK                         _______ _______ _______ _____ _____    ______ ____
ROOT
ATOM      1  C   UNL     1       5.194  -2.840  -0.462  0.00  0.00    +0.090 A 
ATOM      2  C   UNL     1       5.600  -3.841   0.426  0.00  0.00    +0.084 A 
ATOM      3  C   UNL     1       6.961  -4.034   0.603  0.00  0.00    -0.012 A 
ATOM      4  C   UNL     1       7.815  -3.231  -0.105  0.00  0.00    +0.080 A 
ATOM      5  S   UNL     1       6.699  -2.197  -1.035  0.00  0.00    -0.067 S 
ATOM      6  C   UNL     1       7.482  -5.092   1.541  0.00  0.00    +0.046 C 
ENDROOT
BRANCH   4   7
ATOM      7  C   UNL     1       9.278  -3.226  -0.104  0.00  0.00    +0.254 C 
ATOM      8  O   UNL     1       9.890  -4.275  -0.010  0.00  0.00    -0.269 OA
ATOM      9  N   UNL     1       9.949  -2.062  -0.206  0.00  0.00    -0.297 N 
ATOM     10  C   UNL     1       9.229  -0.781  -0.200  0.00  0.00    +0.108 C 
ATOM     11  C   UNL     1       9.834   0.115   0.892  0.00  0.00    +0.019 C 
ATOM     12  C   UNL     1      11.342   0.242   0.662  0.00  0.00    +0.003 C 
ATOM     13  C   UNL     1      11.993  -1.139   0.757  0.00  0.00    +0.019 C 
ATOM     14  C   UNL     1      11.413  -2.049  -0.331  0.00  0.00    +0.108 C 
ENDBRANCH   4   7
BRANCH   1  17
ATOM     15  C   UNL     1       3.714  -1.462  -1.687  0.00  0.00    +0.255 C 
ATOM     16  O   UNL     1       4.665  -0.897  -2.184  0.00  0.00    -0.272 OA
ATOM     17  N   UNL     1       3.910  -2.460  -0.803  0.00  0.00    -0.276 N 
ATOM     18  H   UNL     1       3.149  -2.912  -0.406  0.00  0.00    +0.155 HD
BRANCH  15  19
ATOM     19  C   UNL     1       2.314  -1.048  -2.059  0.00  0.00    +0.324 C 
BRANCH  19  20
ATOM     20  O   UNL     1       2.368   0.021  -3.005  0.00  0.00    -0.482 OA
BRANCH  20  27
ATOM     21  C   UNL     1       2.454   2.135  -4.876  0.00  0.00    +0.047 C 
ATOM     22  C   UNL     1       1.161   1.553  -4.367  0.00  0.00    -0.007 A 
ATOM     23  C   UNL     1      -0.046   2.054  -4.815  0.00  0.00    +0.027 A 
ATOM     24  C   UNL     1      -1.234   1.520  -4.348  0.00  0.00    +0.041 A 
ATOM     25  C   UNL     1      -1.215   0.481  -3.434  0.00  0.00    +0.023 A 
ATOM     26  C   UNL     1      -0.011  -0.019  -2.979  0.00  0.00    +0.047 A 
ATOM     27  C   UNL     1       1.182   0.515  -3.447  0.00  0.00    +0.124 A 
ATOM     28 CL   UNL     1      -2.749   2.151  -4.913  0.00  0.00    -0.084 Cl
ENDBRANCH  20  27
ENDBRANCH  19  20
ENDBRANCH  15  19
ENDBRANCH   1  17
BRANCH   2  29
ATOM     29  C   UNL     1       4.642  -4.639   1.129  0.00  0.00    +0.102 C 
ATOM     30  N   UNL     1       3.881  -5.272   1.687  0.00  0.00    -0.191 NA
ENDBRANCH   2  29
TORSDOF 6
