REMARK  Name = ZINC00888041
REMARK  11 active torsions:
REMARK  status: ('A' for Active; 'I' for Inactive)
REMARK    1  A    between atoms: C_1  and  C_2
REMARK    2  A    between atoms: C_7  and  N_8
REMARK    3  A    between atoms: N_8  and  C_9
REMARK    4  A    between atoms: C_9  and  C_11
REMARK    5  A    between atoms: C_9  and  C_18
REMARK    6  A    between atoms: C_14  and  O_17
REMARK    7  A    between atoms: N_20  and  C_21
REMARK    8  A    between atoms: C_21  and  C_22
REMARK    9  A    between atoms: C_29  and  C_31
REMARK   10  A    between atoms: C_31  and  N_32
REMARK   11  A    between atoms: C_34  and  C_37
REMARK                            x       y       z     vdW  Elec       q    Type
REMARK                         _______ _______ _______ _____ _____    ______ ____
ROOT
ATOM      1  N   UNL     1       0.521   1.373   2.338  0.00  0.00    -0.254 N 
ATOM      2  C   UNL     1      -0.223   2.112   3.185  0.00  0.00    +0.244 C 
ATOM      3  O   UNL     1      -0.048   2.023   4.382  0.00  0.00    -0.273 OA
ENDROOT
BRANCH   1  10
ATOM      4  C   UNL     1       2.087   3.254   0.885  0.00  0.00    +0.045 C 
ATOM      5  C   UNL     1       1.061   2.380   0.210  0.00  0.00    -0.029 A 
ATOM      6  C   UNL     1       0.863   2.474  -1.153  0.00  0.00    +0.005 A 
ATOM      7  C   UNL     1      -0.078   1.673  -1.774  0.00  0.00    +0.000 A 
ATOM      8  C   UNL     1      -0.823   0.775  -1.031  0.00  0.00    +0.002 A 
ATOM      9  C   UNL     1      -0.629   0.675   0.332  0.00  0.00    +0.024 A 
ATOM     10  C   UNL     1       0.319   1.475   0.958  0.00  0.00    +0.040 A 
ENDBRANCH   1  10
BRANCH   1  11
ATOM     11  C   UNL     1       1.543   0.465   2.864  0.00  0.00    +0.197 C 
BRANCH  11  12
ATOM     12  C   UNL     1       0.878  -0.647   3.634  0.00  0.00    -0.018 A 
ATOM     13  C   UNL     1      -0.206  -1.311   3.090  0.00  0.00    +0.009 A 
ATOM     14  C   UNL     1      -0.817  -2.330   3.795  0.00  0.00    +0.046 A 
ATOM     15  C   UNL     1      -0.342  -2.687   5.048  0.00  0.00    +0.117 A 
ATOM     16  C   UNL     1       0.746  -2.020   5.591  0.00  0.00    +0.046 A 
ATOM     17  C   UNL     1       1.357  -1.005   4.881  0.00  0.00    +0.009 A 
BRANCH  15  18
ATOM     18  O   UNL     1      -0.942  -3.689   5.744  0.00  0.00    -0.507 OA
ATOM     19  H   UNL     1      -0.571  -4.565   5.571  0.00  0.00    +0.292 HD
ENDBRANCH  15  18
ENDBRANCH  11  12
BRANCH  11  20
ATOM     20  C   UNL     1       2.332  -0.119   1.720  0.00  0.00    +0.239 C 
ATOM     21  O   UNL     1       1.757  -0.540   0.739  0.00  0.00    -0.273 OA
ATOM     22  N   UNL     1       3.677  -0.172   1.787  0.00  0.00    -0.309 N 
ATOM     23  H   UNL     1       4.137   0.165   2.572  0.00  0.00    +0.149 HD
BRANCH  22  24
ATOM     24  C   UNL     1       4.444  -0.740   0.675  0.00  0.00    +0.139 C 
BRANCH  24  25
ATOM     25  C   UNL     1       5.915  -0.682   0.999  0.00  0.00    -0.030 A 
ATOM     26  C   UNL     1       6.656   0.431   0.646  0.00  0.00    +0.008 A 
ATOM     27  C   UNL     1       8.005   0.485   0.943  0.00  0.00    +0.038 A 
ATOM     28  C   UNL     1       8.614  -0.575   1.593  0.00  0.00    +0.123 A 
ATOM     29  C   UNL     1       7.870  -1.689   1.945  0.00  0.00    +0.038 A 
ATOM     30  C   UNL     1       6.521  -1.739   1.652  0.00  0.00    +0.008 A 
ATOM     31  F   UNL     1       9.932  -0.523   1.883  0.00  0.00    -0.205 F 
ENDBRANCH  24  25
ENDBRANCH  22  24
ENDBRANCH  11  20
ENDBRANCH   1  11
BRANCH   2  32
ATOM     32  C   UNL     1      -1.274   3.047   2.645  0.00  0.00    +0.264 C 
BRANCH  32  33
ATOM     33  N   UNL     1      -1.940   3.728   3.757  0.00  0.00    -0.154 N 
ATOM     34  N   UNL     1      -2.988   3.300   4.374  0.00  0.00    -0.129 NA
ATOM     35  C   UNL     1      -3.292   4.179   5.311  0.00  0.00    +0.211 A 
ATOM     36  N   UNL     1      -2.377   5.158   5.230  0.00  0.00    -0.107 NA
ATOM     37  N   UNL     1      -1.567   4.846   4.276  0.00  0.00    -0.045 NA
BRANCH  35  38
ATOM     38  C   UNL     1      -4.420   4.100   6.264  0.00  0.00    +0.060 A 
ATOM     39  C   UNL     1      -4.783   4.981   7.246  0.00  0.00    +0.019 A 
ATOM     40  C   UNL     1      -5.886   4.694   8.020  0.00  0.00    +0.008 A 
ATOM     41  C   UNL     1      -6.579   3.550   7.785  0.00  0.00    +0.046 A 
ATOM     42  S   UNL     1      -5.669   2.834   6.426  0.00  0.00    -0.093 S 
ENDBRANCH  35  38
ENDBRANCH  32  33
ENDBRANCH   2  32
TORSDOF 10
