REMARK  Name = ZINC37844625
REMARK  5 active torsions:
REMARK  status: ('A' for Active; 'I' for Inactive)
REMARK    1  A    between atoms: C_1  and  C_2
REMARK    2  A    between atoms: C_2  and  C_4
REMARK    3  A    between atoms: C_2  and  N_10
REMARK    4  A    between atoms: N_8  and  C_9
REMARK    5  A    between atoms: C_11  and  C_13
REMARK                            x       y       z     vdW  Elec       q    Type
REMARK                         _______ _______ _______ _____ _____    ______ ____
ROOT
ATOM      1  N   UNL     1       0.688  -0.476  -1.203  0.00  0.00    -0.301 N 
ATOM      2  C   UNL     1       2.031  -0.587  -1.215  0.00  0.00    +0.261 C 
ATOM      3  O   UNL     1       2.674  -0.294  -0.224  0.00  0.00    -0.269 OA
ATOM      4  H   UNL     1       0.175  -0.710  -1.993  0.00  0.00    +0.150 HD
ENDROOT
BRANCH   2   5
ATOM      5  C   UNL     1       2.717  -1.060  -2.422  0.00  0.00    +0.103 A 
ATOM      6  C   UNL     1       4.078  -1.227  -2.573  0.00  0.00    +0.047 A 
ATOM      7  C   UNL     1       4.293  -1.693  -3.874  0.00  0.00    +0.036 A 
ATOM      8  C   UNL     1       3.086  -1.800  -4.481  0.00  0.00    +0.098 A 
ATOM      9  N   UNL     1       2.120  -1.424  -3.607  0.00  0.00    -0.356 N 
ATOM     10  H   UNL     1       1.168  -1.411  -3.788  0.00  0.00    +0.165 HD
ATOM     11 BR   UNL     1       5.969  -2.101  -4.648  0.00  0.00    -0.049 Br
ENDBRANCH   2   5
BRANCH   1  13
ATOM     12  C   UNL     1      -0.019   1.526   0.010  0.00  0.00    +0.036 C 
ATOM     13  C   UNL     1       0.002  -0.004   0.002  0.00  0.00    +0.138 C 
BRANCH  13  14
ATOM     14  C   UNL     1      -1.412  -0.526   0.013  0.00  0.00    +0.153 A 
ATOM     15  N   UNL     1      -2.239  -0.538  -0.996  0.00  0.00    -0.133 NA
ATOM     16  N   UNL     1      -3.359  -1.055  -0.632  0.00  0.00    -0.138 NA
ATOM     17  C   UNL     1      -3.297  -1.396   0.626  0.00  0.00    +0.224 A 
ATOM     18  N   UNL     1      -2.057  -1.074   1.070  0.00  0.00    -0.319 N 
ATOM     19  C   UNL     1      -1.524  -1.276   2.420  0.00  0.00    +0.151 C 
ENDBRANCH  13  14
ENDBRANCH   1  13
TORSDOF 3
