REMARK  Name = ZINC20207869
REMARK  11 active torsions:
REMARK  status: ('A' for Active; 'I' for Inactive)
REMARK    1  A    between atoms: C_1  and  C_2
REMARK    2  A    between atoms: C_4  and  C_35
REMARK    3  A    between atoms: C_6  and  O_8
REMARK    4  A    between atoms: O_8  and  C_9
REMARK    5  A    between atoms: C_9  and  C_10
REMARK    6  A    between atoms: C_10  and  C_11
REMARK    7  A    between atoms: C_11  and  O_12
REMARK    8  A    between atoms: O_12  and  C_13
REMARK    9  A    between atoms: C_16  and  C_19
REMARK   10  A    between atoms: C_29  and  S_31
REMARK   11  A    between atoms: S_31  and  C_34
REMARK                            x       y       z     vdW  Elec       q    Type
REMARK                         _______ _______ _______ _____ _____    ______ ____
ROOT
ATOM      1  C   UNL     1       0.128  -2.561   8.616  0.00  0.00    +0.121 A 
ATOM      2  C   UNL     1       0.353  -1.192   8.714  0.00  0.00    +0.046 A 
ATOM      3  C   UNL     1       0.282  -0.571   9.928  0.00  0.00    +0.011 A 
ATOM      4  C   UNL     1      -0.019  -1.316  11.077  0.00  0.00    -0.024 A 
ATOM      5  C   UNL     1      -0.246  -2.696  10.972  0.00  0.00    +0.011 A 
ATOM      6  C   UNL     1      -0.178  -3.305   9.751  0.00  0.00    +0.046 A 
ENDROOT
BRANCH   4   7
ATOM      7  C   UNL     1      -0.097  -0.656  12.383  0.00  0.00    +0.024 C 
ATOM      8  C   UNL     1      -0.546   0.642  12.472  0.00  0.00    +0.081 C 
ATOM      9  C   UNL     1      -1.135   1.352  11.301  0.00  0.00    +0.153 C 
ATOM     10  N   UNL     1      -1.831   0.750  10.373  0.00  0.00    -0.283 NA
ATOM     11  N   UNL     1      -0.868   2.738  11.293  0.00  0.00    -0.150 N 
ATOM     12  C   UNL     1      -0.578   3.337  12.500  0.00  0.00    +0.182 C 
ATOM     13  N   UNL     1      -0.424   2.755  13.664  0.00  0.00    -0.152 NA
ATOM     14  C   UNL     1      -0.476   1.409  13.741  0.00  0.00    +0.273 C 
ATOM     15  O   UNL     1      -0.463   0.838  14.820  0.00  0.00    -0.268 OA
ATOM     16  S   UNL     1      -0.454   5.046  12.046  0.00  0.00    -0.015 S 
ATOM     17  C   UNL     1      -0.692   4.839  10.287  0.00  0.00    +0.235 C 
ATOM     18  N   UNL     1      -0.881   3.555  10.183  0.00  0.00    -0.145 NA
ATOM     19  H   UNL     1      -2.193   1.260   9.632  0.00  0.00    +0.188 HD
BRANCH  17  20
ATOM     20  S   UNL     1      -0.675   6.061   9.017  0.00  0.00    +0.019 S 
ATOM     21  O   UNL     1       0.236   7.049   9.477  0.00  0.00    -0.168 OA
ATOM     22  O   UNL     1      -0.417   5.337   7.822  0.00  0.00    -0.168 OA
ATOM     23  C   UNL     1      -2.361   6.729   8.991  0.00  0.00    +0.202 C 
ENDBRANCH  17  20
ENDBRANCH   4   7
BRANCH   1  24
ATOM     24  O   UNL     1       0.200  -3.173   7.407  0.00  0.00    -0.492 OA
BRANCH  24  25
ATOM     25  C   UNL     1       0.517  -2.351   6.282  0.00  0.00    +0.232 C 
BRANCH  25  26
ATOM     26  C   UNL     1       0.554  -3.210   5.016  0.00  0.00    +0.082 C 
BRANCH  26  27
ATOM     27  C   UNL     1       0.894  -2.330   3.812  0.00  0.00    +0.232 C 
BRANCH  27  28
ATOM     28  O   UNL     1       0.927  -3.132   2.630  0.00  0.00    -0.492 OA
BRANCH  28  34
ATOM     29  C   UNL     1       2.026   0.989   0.258  0.00  0.00    +0.044 C 
ATOM     30  C   UNL     1       1.758  -0.493   0.267  0.00  0.00    -0.047 A 
ATOM     31  C   UNL     1       1.807  -1.212  -0.913  0.00  0.00    +0.007 A 
ATOM     32  C   UNL     1       1.562  -2.572  -0.908  0.00  0.00    -0.047 A 
ATOM     33  C   UNL     1       1.267  -3.218   0.277  0.00  0.00    +0.049 A 
ATOM     34  C   UNL     1       1.217  -2.500   1.463  0.00  0.00    +0.121 A 
ATOM     35  C   UNL     1       1.469  -1.135   1.456  0.00  0.00    +0.049 A 
ATOM     36  C   UNL     1       1.616  -3.352  -2.197  0.00  0.00    +0.044 C 
ENDBRANCH  28  34
ENDBRANCH  27  28
ENDBRANCH  26  27
ENDBRANCH  25  26
ENDBRANCH  24  25
ENDBRANCH   1  24
TORSDOF 8
