REMARK  Name = ZINC36207828
REMARK  16 active torsions:
REMARK  status: ('A' for Active; 'I' for Inactive)
REMARK    1  A    between atoms: C_1  and  C_2
REMARK    2  A    between atoms: C_2  and  C_3
REMARK    3  A    between atoms: C_2  and  C_4
REMARK    4  A    between atoms: C_4  and  N_5
REMARK    5  A    between atoms: N_5  and  C_6
REMARK    6  A    between atoms: N_5  and  C_26
REMARK    7  A    between atoms: C_6  and  C_7
REMARK    8  A    between atoms: C_13  and  C_18
REMARK    9  A    between atoms: C_21  and  O_24
REMARK   10  A    between atoms: O_24  and  C_25
REMARK   11  A    between atoms: C_26  and  C_27
REMARK   12  A    between atoms: C_27  and  C_29
REMARK   13  A    between atoms: C_27  and  O_34
REMARK   14  A    between atoms: C_29  and  O_30
REMARK   15  A    between atoms: O_30  and  C_31
REMARK   16  A    between atoms: C_31  and  C_32
REMARK                            x       y       z     vdW  Elec       q    Type
REMARK                         _______ _______ _______ _____ _____    ______ ____
ROOT
ATOM      1  C   UNL     1      -1.751  -0.844   3.831  0.00  0.00    +0.094 A 
ATOM      2  N   UNL     1      -2.810  -1.618   4.182  0.00  0.00    -0.312 N 
ATOM      3  H   UNL     1      -3.089  -2.337   3.594  0.00  0.00    +0.170 HD
ATOM      4  C   UNL     1      -3.480  -1.407   5.330  0.00  0.00    +0.260 A 
ATOM      5  O   UNL     1      -4.428  -2.112   5.631  0.00  0.00    -0.267 OA
ATOM      6  C   UNL     1      -3.062  -0.344   6.192  0.00  0.00    +0.080 A 
ATOM      7  C   UNL     1      -3.618   0.079   7.472  0.00  0.00    +0.004 A 
ATOM      8  C   UNL     1      -3.048   1.126   8.116  0.00  0.00    +0.056 A 
ATOM      9  S   UNL     1      -1.720   1.607   7.028  0.00  0.00    -0.076 S 
ATOM     10  C   UNL     1      -1.959   0.403   5.746  0.00  0.00    +0.116 A 
ATOM     11  N   UNL     1      -1.343   0.131   4.599  0.00  0.00    -0.229 NA
ENDROOT
BRANCH   7  12
ATOM     12  C   UNL     1      -4.785  -0.624   8.058  0.00  0.00    -0.016 A 
ATOM     13  C   UNL     1      -5.920  -0.858   7.283  0.00  0.00    +0.012 A 
ATOM     14  C   UNL     1      -7.003  -1.512   7.831  0.00  0.00    +0.046 A 
ATOM     15  C   UNL     1      -6.965  -1.937   9.152  0.00  0.00    +0.120 A 
ATOM     16  C   UNL     1      -5.836  -1.705   9.926  0.00  0.00    +0.046 A 
ATOM     17  C   UNL     1      -4.747  -1.056   9.382  0.00  0.00    +0.012 A 
BRANCH  15  18
ATOM     18  O   UNL     1      -8.034  -2.582   9.689  0.00  0.00    -0.495 OA
ATOM     19  C   UNL     1      -7.927  -2.991  11.053  0.00  0.00    +0.277 C 
ENDBRANCH  15  18
ENDBRANCH   7  12
BRANCH   1  20
ATOM     20  C   UNL     1      -1.030  -1.117   2.536  0.00  0.00    -0.003 C 
BRANCH  20  21
ATOM     21  N   UNL     1       0.158  -0.259   2.446  0.00  0.00    +0.386 N 
ATOM     22  H   UNL     1      -0.111   0.704   2.585  0.00  0.00    -0.081 HD
BRANCH  21  23
ATOM     23  C   UNL     1       0.771  -0.409   1.119  0.00  0.00    -0.075 C 
BRANCH  23  25
ATOM     24  C   UNL     1      -0.386   1.633   0.261  0.00  0.00    +0.005 C 
ATOM     25  C   UNL     1      -0.183   0.130   0.052  0.00  0.00    -0.034 C 
ATOM     26  C   UNL     1       0.411  -0.116  -1.335  0.00  0.00    +0.005 C 
ENDBRANCH  23  25
ENDBRANCH  21  23
BRANCH  21  27
ATOM     27  C   UNL     1       1.125  -0.651   3.480  0.00  0.00    -0.044 C 
BRANCH  27  28
ATOM     28  C   UNL     1       2.307   0.320   3.468  0.00  0.00    +0.124 C 
BRANCH  28  29
ATOM     29  O   UNL     1       1.857   1.623   3.846  0.00  0.00    -0.391 OA
ATOM     30  H   UNL     1       1.464   1.662   4.729  0.00  0.00    +0.210 HD
ENDBRANCH  28  29
BRANCH  28  31
ATOM     31  C   UNL     1       3.371  -0.159   4.457  0.00  0.00    +0.189 C 
BRANCH  31  32
ATOM     32  O   UNL     1       4.523   0.682   4.362  0.00  0.00    -0.373 OA
BRANCH  32  33
ATOM     33  C   UNL     1       5.583   0.318   5.249  0.00  0.00    +0.186 C 
BRANCH  33  34
ATOM     34  C   UNL     1       6.739   1.266   5.065  0.00  0.00    -0.007 C 
ATOM     35  C   UNL     1       7.349   1.766   6.111  0.00  0.00    +0.006 C 
ENDBRANCH  33  34
ENDBRANCH  32  33
ENDBRANCH  31  32
ENDBRANCH  28  31
ENDBRANCH  27  28
ENDBRANCH  21  27
ENDBRANCH  20  21
ENDBRANCH   1  20
TORSDOF 13
