REMARK  Name = ZINC42358129
REMARK  4 active torsions:
REMARK  status: ('A' for Active; 'I' for Inactive)
REMARK    1  A    between atoms: C_1  and  C_2
REMARK    2  A    between atoms: C_3  and  C_8
REMARK    3  A    between atoms: C_4  and  C_7
REMARK    4  A    between atoms: N_17  and  C_20
REMARK                            x       y       z     vdW  Elec       q    Type
REMARK                         _______ _______ _______ _____ _____    ______ ____
ROOT
ATOM      1  C   UNL     1      -0.004  -0.429  -2.587  0.00  0.00    +0.255 C 
ATOM      2  O   UNL     1       1.043  -0.234  -3.173  0.00  0.00    -0.270 OA
ATOM      3  N   UNL     1      -1.177  -0.245  -3.225  0.00  0.00    -0.261 N 
ATOM      4  C   UNL     1      -1.190   0.167  -4.552  0.00  0.00    +0.165 A 
ATOM      5  N   UNL     1      -2.228   0.401  -5.326  0.00  0.00    -0.229 NA
ATOM      6  C   UNL     1      -2.087   0.794  -6.586  0.00  0.00    +0.056 A 
ATOM      7  C   UNL     1      -0.801   0.933  -7.004  0.00  0.00    +0.028 A 
ATOM      8  S   UNL     1       0.122   0.497  -5.558  0.00  0.00    -0.055 S 
ATOM      9  C   UNL     1      -0.337   1.353  -8.356  0.00  0.00    +0.128 C 
ATOM     10  N   UNL     1      -1.484   1.261  -9.282  0.00  0.00    -0.300 NA
ATOM     11  C   UNL     1      -2.668   1.918  -8.710  0.00  0.00    +0.090 C 
ATOM     12  C   UNL     1      -3.228   1.090  -7.550  0.00  0.00    +0.071 C 
ATOM     13  C   UNL     1      -1.148   1.830 -10.594  0.00  0.00    +0.105 C 
ATOM     14  H   UNL     1      -2.013  -0.401  -2.758  0.00  0.00    +0.157 HD
ENDROOT
BRANCH   1  17
ATOM     15  C   UNL     1      -0.018   1.503   0.010  0.00  0.00    +0.070 C 
ATOM     16  C   UNL     1       0.002  -0.004   0.002  0.00  0.00    +0.093 A 
ATOM     17  C   UNL     1       0.009  -0.867  -1.181  0.00  0.00    +0.101 A 
ATOM     18  C   UNL     1       0.028  -2.156  -0.729  0.00  0.00    +0.147 A 
ATOM     19  O   UNL     1       0.034  -2.126   0.606  0.00  0.00    -0.359 OA
ATOM     20  N   UNL     1       0.023  -0.782   1.044  0.00  0.00    -0.083 NA
ATOM     21  C   UNL     1       0.041  -3.394  -1.587  0.00  0.00    +0.090 C 
ENDBRANCH   1  17
TORSDOF 1
