REMARK  Name = ZINC54643444
REMARK  10 active torsions:
REMARK  status: ('A' for Active; 'I' for Inactive)
REMARK    1  A    between atoms: C_1  and  C_2
REMARK    2  A    between atoms: C_6  and  N_9
REMARK    3  A    between atoms: C_7  and  C_8
REMARK    4  A    between atoms: C_10  and  C_12
REMARK    5  A    between atoms: C_13  and  C_37
REMARK    6  A    between atoms: C_17  and  S_28
REMARK    7  A    between atoms: C_20  and  C_22
REMARK    8  A    between atoms: C_23  and  C_27
REMARK    9  A    between atoms: S_28  and  C_29
REMARK   10  A    between atoms: C_29  and  C_30
REMARK                            x       y       z     vdW  Elec       q    Type
REMARK                         _______ _______ _______ _____ _____    ______ ____
ROOT
ATOM      1  C   UNL     1      -0.098  -4.848   3.362  0.00  0.00    +0.061 C 
ATOM      2  C   UNL     1      -0.347  -6.151   3.167  0.00  0.00    +0.018 C 
ATOM      3  N   UNL     1      -0.515  -7.028   4.211  0.00  0.00    -0.287 N 
ATOM      4  C   UNL     1      -0.163  -6.587   5.479  0.00  0.00    +0.219 A 
ATOM      5  N   UNL     1      -0.010  -7.256   6.589  0.00  0.00    -0.187 NA
ATOM      6  C   UNL     1       0.343  -6.417   7.574  0.00  0.00    +0.211 A 
ATOM      7  N   UNL     1       0.417  -5.196   7.090  0.00  0.00    -0.141 NA
ATOM      8  N   UNL     1       0.090  -5.280   5.737  0.00  0.00    -0.219 N 
ATOM      9  C   UNL     1       0.013  -4.228   4.729  0.00  0.00    +0.184 C 
ATOM     10  C   UNL     1      -0.446  -6.671   1.756  0.00  0.00    +0.061 C 
ATOM     11  H   UNL     1      -0.867  -7.920   4.068  0.00  0.00    +0.155 HD
ENDROOT
BRANCH   9  12
ATOM     12  C   UNL     1      -1.200  -3.373   4.993  0.00  0.00    +0.022 A 
ATOM     13  C   UNL     1      -1.276  -2.032   5.172  0.00  0.00    -0.038 A 
ATOM     14  C   UNL     1      -2.512  -1.456   5.403  0.00  0.00    +0.011 A 
ATOM     15  C   UNL     1      -3.610  -2.250   5.444  0.00  0.00    +0.046 A 
ATOM     16  S   UNL     1      -2.910  -3.864   5.143  0.00  0.00    -0.099 S 
ATOM     17  C   UNL     1      -0.034  -1.181   5.121  0.00  0.00    +0.044 C 
ENDBRANCH   9  12
BRANCH   1  19
ATOM     18  N   UNL     1      -1.000  -3.493   1.609  0.00  0.00    -0.281 N 
ATOM     19  C   UNL     1       0.075  -4.018   2.229  0.00  0.00    +0.248 C 
ATOM     20  O   UNL     1       1.194  -3.779   1.815  0.00  0.00    -0.270 OA
ATOM     21  H   UNL     1      -1.883  -3.597   1.997  0.00  0.00    +0.155 HD
BRANCH  18  27
ATOM     22  C   UNL     1      -2.831  -2.064  -2.724  0.00  0.00    +0.044 C 
ATOM     23  C   UNL     1      -1.714  -2.088  -1.713  0.00  0.00    -0.046 A 
ATOM     24  C   UNL     1      -0.531  -1.422  -1.975  0.00  0.00    +0.004 A 
ATOM     25  C   UNL     1       0.497  -1.442  -1.050  0.00  0.00    +0.002 A 
ATOM     26  C   UNL     1       0.344  -2.127   0.140  0.00  0.00    +0.023 A 
ATOM     27  C   UNL     1      -0.843  -2.797   0.406  0.00  0.00    +0.037 A 
ATOM     28  C   UNL     1      -1.875  -2.771  -0.523  0.00  0.00    -0.026 A 
ATOM     29  C   UNL     1      -3.167  -3.491  -0.236  0.00  0.00    +0.046 C 
ENDBRANCH  18  27
ENDBRANCH   1  19
BRANCH   6  30
ATOM     30  S   UNL     1       0.658  -6.876   9.246  0.00  0.00    -0.080 S 
BRANCH  30  31
ATOM     31  C   UNL     1       0.392  -8.670   9.266  0.00  0.00    +0.115 C 
BRANCH  31  32
ATOM     32  C   UNL     1       0.631  -9.198  10.657  0.00  0.00    -0.002 A 
ATOM     33  C   UNL     1       1.897  -9.609  11.032  0.00  0.00    +0.007 A 
ATOM     34  C   UNL     1       2.117 -10.093  12.307  0.00  0.00    +0.000 A 
ATOM     35  C   UNL     1       1.072 -10.166  13.210  0.00  0.00    +0.003 A 
ATOM     36  C   UNL     1      -0.193  -9.755  12.838  0.00  0.00    +0.038 A 
ATOM     37  C   UNL     1      -0.414  -9.265  11.562  0.00  0.00    +0.127 A 
ATOM     38  F   UNL     1      -1.650  -8.859  11.198  0.00  0.00    -0.205 F 
ENDBRANCH  31  32
ENDBRANCH  30  31
ENDBRANCH   6  30
TORSDOF 6
