REMARK  Name = ZINC40818201
REMARK  10 active torsions:
REMARK  status: ('A' for Active; 'I' for Inactive)
REMARK    1  A    between atoms: C_1  and  C_2
REMARK    2  A    between atoms: C_8  and  C_34
REMARK    3  A    between atoms: C_19  and  C_26
REMARK    4  A    between atoms: C_19  and  O_33
REMARK    5  A    between atoms: C_20  and  C_25
REMARK    6  A    between atoms: C_22  and  O_24
REMARK    7  A    between atoms: C_26  and  C_28
REMARK    8  A    between atoms: C_28  and  O_29
REMARK    9  A    between atoms: O_29  and  C_30
REMARK   10  A    between atoms: C_30  and  C_32
REMARK                            x       y       z     vdW  Elec       q    Type
REMARK                         _______ _______ _______ _____ _____    ______ ____
ROOT
ATOM      1  C   UNL     1       0.134   1.722  -0.121  0.00  0.00    +0.040 C 
ATOM      2  C   UNL     1       0.156   0.217  -0.203  0.00  0.00    -0.059 C 
ATOM      3  C   UNL     1       0.167  -0.292  -1.430  0.00  0.00    +0.050 C 
ATOM      4  C   UNL     1       0.105  -1.747  -1.630  0.00  0.00    +0.179 C 
ATOM      5  O   UNL     1       0.241  -2.241  -2.731  0.00  0.00    -0.288 OA
ATOM      6  C   UNL     1      -0.146  -2.589  -0.448  0.00  0.00    +0.051 C 
ATOM      7  C   UNL     1      -0.153  -2.055   0.757  0.00  0.00    -0.056 C 
ATOM      8  C   UNL     1       0.134  -0.595   1.042  0.00  0.00    +0.016 C 
ATOM      9  C   UNL     1       1.421  -0.568   1.861  0.00  0.00    +0.035 C 
ATOM     10  C   UNL     1       1.299  -1.431   3.115  0.00  0.00    -0.000 C 
ATOM     11  C   UNL     1       0.899  -2.874   2.788  0.00  0.00    +0.008 C 
ATOM     12  C   UNL     1      -0.395  -2.931   1.972  0.00  0.00    +0.032 C 
ATOM     13  C   UNL     1       2.653  -1.532   3.832  0.00  0.00    +0.002 C 
ATOM     14  C   UNL     1       2.375  -2.139   5.236  0.00  0.00    +0.008 C 
ATOM     15  C   UNL     1       1.924  -0.915   6.064  0.00  0.00    +0.043 C 
ATOM     16  C   UNL     1       2.767   0.263   5.522  0.00  0.00    +0.133 C 
ATOM     17  C   UNL     1       3.274  -0.168   4.147  0.00  0.00    +0.009 C 
ATOM     18  C   UNL     1       3.165   0.834   3.037  0.00  0.00    +0.041 C 
ATOM     19  C   UNL     1       1.876   0.833   2.230  0.00  0.00    +0.120 C 
ATOM     20  C   UNL     1       4.798  -0.427   4.326  0.00  0.00    +0.015 C 
ATOM     21  C   UNL     1      -1.042  -0.089   1.881  0.00  0.00    +0.021 C 
ENDROOT
BRANCH  19  22
ATOM     22  O   UNL     1       0.874   1.589   2.900  0.00  0.00    -0.391 OA
ATOM     23  H   UNL     1       1.118   2.511   3.059  0.00  0.00    +0.210 HD
ENDBRANCH  19  22
BRANCH  16  24
ATOM     24  C   UNL     1       1.941   1.515   5.503  0.00  0.00    +0.202 C 
ATOM     25  O   UNL     1       0.741   1.445   5.388  0.00  0.00    -0.291 OA
BRANCH  24  26
ATOM     26  C   UNL     1       2.609   2.860   5.629  0.00  0.00    +0.309 C 
BRANCH  26  27
ATOM     27  O   UNL     1       1.619   3.889   5.585  0.00  0.00    -0.457 OA
BRANCH  27  28
ATOM     28  C   UNL     1       2.052   5.156   5.685  0.00  0.00    +0.304 C 
ATOM     29  O   UNL     1       3.232   5.383   5.806  0.00  0.00    -0.251 OA
ATOM     30  C   UNL     1       1.065   6.295   5.646  0.00  0.00    +0.136 C 
ENDBRANCH  27  28
ENDBRANCH  26  27
ENDBRANCH  24  26
ENDBRANCH  16  24
BRANCH  16  31
ATOM     31  O   UNL     1       3.893   0.460   6.397  0.00  0.00    -0.380 OA
ATOM     32  H   UNL     1       3.650   0.689   7.305  0.00  0.00    +0.211 HD
ENDBRANCH  16  31
TORSDOF 6
