REMARK  Name = ZINC08791539
REMARK  6 active torsions:
REMARK  status: ('A' for Active; 'I' for Inactive)
REMARK    1  A    between atoms: C_1  and  C_2
REMARK    2  A    between atoms: C_2  and  C_3
REMARK    3  A    between atoms: C_3  and  C_4
REMARK    4  A    between atoms: C_4  and  N_5
REMARK    5  A    between atoms: C_10  and  C_27
REMARK    6  A    between atoms: C_27  and  C_28
REMARK                            x       y       z     vdW  Elec       q    Type
REMARK                         _______ _______ _______ _____ _____    ______ ____
ROOT
ATOM      1  N   UNL     1       1.742  -3.282   0.441  0.00  0.00    -0.242 N 
ATOM      2  C   UNL     1       0.608  -2.623   0.179  0.00  0.00    +0.224 C 
ATOM      3  O   UNL     1       0.109  -2.497  -0.919  0.00  0.00    -0.275 OA
ATOM      4  C   UNL     1       0.046  -2.060   1.464  0.00  0.00    +0.073 C 
ATOM      5  C   UNL     1       0.148  -0.520   1.435  0.00  0.00    -0.053 C 
ATOM      6  C   UNL     1       1.706  -1.202   3.037  0.00  0.00    +0.050 C 
ATOM      7  C   UNL     1       1.079  -2.509   2.535  0.00  0.00    +0.088 C 
ATOM      8  C   UNL     1       2.099  -3.284   1.731  0.00  0.00    +0.225 C 
ATOM      9  O   UNL     1       3.085  -3.823   2.184  0.00  0.00    -0.275 OA
ATOM     10  C   UNL     1       1.076  -0.746   4.322  0.00  0.00    -0.026 A 
ATOM     11  C   UNL     1      -0.212  -0.415   4.682  0.00  0.00    +0.004 A 
ATOM     12  C   UNL     1      -0.490  -0.022   5.979  0.00  0.00    +0.002 A 
ATOM     13  C   UNL     1       0.528   0.038   6.913  0.00  0.00    +0.022 A 
ATOM     14  C   UNL     1       1.820  -0.292   6.557  0.00  0.00    +0.062 A 
ATOM     15  C   UNL     1       2.109  -0.689   5.253  0.00  0.00    +0.054 A 
ATOM     16  N   UNL     1       3.316  -1.065   4.658  0.00  0.00    -0.285 N 
ATOM     17  C   UNL     1       3.165  -1.380   3.357  0.00  0.00    +0.211 C 
ATOM     18  O   UNL     1       4.036  -1.738   2.593  0.00  0.00    -0.277 OA
ATOM     19 CL   UNL     1       3.090  -0.212   7.739  0.00  0.00    -0.082 Cl
ATOM     20  H   UNL     1       4.164  -1.096   5.128  0.00  0.00    +0.155 HD
ATOM     21  N   UNL     1       1.484  -0.243   1.969  0.00  0.00    +0.394 N 
ATOM     22  H   UNL     1       1.527   0.715   2.337  0.00  0.00    -0.083 HD
ATOM     23  H   UNL     1       2.191  -0.360   1.234  0.00  0.00    -0.083 HD
ENDROOT
BRANCH   1  24
ATOM     24  C   UNL     1       2.530  -3.948  -0.599  0.00  0.00    +0.116 C 
BRANCH  24  25
ATOM     25  C   UNL     1       2.052  -5.393  -0.755  0.00  0.00    +0.019 C 
BRANCH  25  27
ATOM     26  C   UNL     1       2.396  -7.533  -1.997  0.00  0.00    +0.004 C 
ATOM     27  C   UNL     1       2.875  -6.088  -1.842  0.00  0.00    -0.002 C 
ENDBRANCH  25  27
ENDBRANCH  24  25
ENDBRANCH   1  24
BRANCH   5  28
ATOM     28  C   UNL     1       0.002  -0.004   0.002  0.00  0.00    +0.022 C 
BRANCH  28  29
ATOM     29  C   UNL     1      -0.018   1.503   0.010  0.00  0.00    -0.024 A 
ATOM     30  C   UNL     1      -1.108   2.287   0.019  0.00  0.00    +0.087 A 
ATOM     31  N   UNL     1      -0.736   3.603   0.029  0.00  0.00    -0.360 N 
ATOM     32  H   UNL     1      -1.348   4.355   0.038  0.00  0.00    +0.165 HD
ATOM     33  C   UNL     1       0.637   3.701   0.016  0.00  0.00    +0.047 A 
ATOM     34  C   UNL     1       1.147   2.390   0.004  0.00  0.00    +0.003 A 
ATOM     35  C   UNL     1       2.527   2.179  -0.011  0.00  0.00    +0.010 A 
ATOM     36  C   UNL     1       3.377   3.250  -0.013  0.00  0.00    +0.001 A 
ATOM     37  C   UNL     1       2.879   4.545  -0.001  0.00  0.00    +0.002 A 
ATOM     38  C   UNL     1       1.521   4.776   0.013  0.00  0.00    +0.026 A 
ENDBRANCH  28  29
ENDBRANCH   5  28
TORSDOF 5
