REMARK  Name = ZINC39296751
REMARK  4 active torsions:
REMARK  status: ('A' for Active; 'I' for Inactive)
REMARK    1  A    between atoms: C_1  and  C_2
REMARK    2  A    between atoms: C_2  and  C_3
REMARK    3  A    between atoms: C_14  and  C_15
REMARK    4  A    between atoms: C_20  and  N_21
REMARK                            x       y       z     vdW  Elec       q    Type
REMARK                         _______ _______ _______ _____ _____    ______ ____
ROOT
ATOM      1  C   UNL     1       0.980   0.121  -1.066  0.00  0.00    -0.011 A 
ATOM      2  C   UNL     1       0.190  -0.329  -2.203  0.00  0.00    +0.034 A 
ATOM      3  C   UNL     1       0.928  -0.787  -3.287  0.00  0.00    +0.083 A 
ATOM      4  S   UNL     1       2.614  -0.623  -2.750  0.00  0.00    -0.061 S 
ATOM      5  C   UNL     1       2.320   0.063  -1.132  0.00  0.00    +0.084 A 
ATOM      6 CL   UNL     1       3.481   0.537   0.068  0.00  0.00    -0.075 Cl
ATOM      7  N   UNL     1       0.489  -1.250  -4.504  0.00  0.00    -0.278 N 
ATOM      8  C   UNL     1      -0.612  -2.007  -4.617  0.00  0.00    +0.239 C 
ATOM      9  O   UNL     1      -0.964  -2.384  -5.715  0.00  0.00    -0.273 OA
ATOM     10  C   UNL     1      -1.418  -2.396  -3.412  0.00  0.00    +0.238 C 
ATOM     11  N   UNL     1      -2.004  -1.222  -2.776  0.00  0.00    -0.273 NA
ATOM     12  C   UNL     1      -1.293  -0.311  -2.196  0.00  0.00    +0.078 C 
ATOM     13  H   UNL     1       0.990  -1.022  -5.303  0.00  0.00    +0.155 HD
ENDROOT
BRANCH  12  14
ATOM     14  C   UNL     1      -1.988   0.795  -1.497  0.00  0.00    +0.031 A 
ATOM     15  C   UNL     1      -2.747   0.536  -0.356  0.00  0.00    +0.012 A 
ATOM     16  C   UNL     1      -3.392   1.570   0.291  0.00  0.00    +0.001 A 
ATOM     17  C   UNL     1      -3.287   2.863  -0.191  0.00  0.00    +0.002 A 
ATOM     18  C   UNL     1      -2.537   3.126  -1.323  0.00  0.00    +0.033 A 
ATOM     19  C   UNL     1      -1.883   2.101  -1.975  0.00  0.00    +0.135 A 
BRANCH  19  20
ATOM     20  N   UNL     1      -1.075   2.386  -3.182  0.00  0.00    +0.057 N 
ATOM     21  O   UNL     1      -0.893   3.529  -3.532  0.00  0.00    -0.126 OA
ATOM     22  O   UNL     1      -0.597   1.476  -3.818  0.00  0.00    -0.126 OA
ENDBRANCH  19  20
ENDBRANCH  12  14
BRANCH   1  24
ATOM     23  C   UNL     1       0.241   2.180   0.101  0.00  0.00    +0.009 C 
ATOM     24  C   UNL     1       0.301   0.653   0.170  0.00  0.00    +0.034 C 
ENDBRANCH   1  24
TORSDOF 3
