REMARK  Name = ZINC67624560
REMARK  6 active torsions:
REMARK  status: ('A' for Active; 'I' for Inactive)
REMARK    1  A    between atoms: C_1  and  C_2
REMARK    2  A    between atoms: C_2  and  C_4
REMARK    3  A    between atoms: C_2  and  N_11
REMARK    4  A    between atoms: N_14  and  C_15
REMARK    5  A    between atoms: N_20  and  S_22
REMARK    6  A    between atoms: S_22  and  C_25
REMARK                            x       y       z     vdW  Elec       q    Type
REMARK                         _______ _______ _______ _____ _____    ______ ____
ROOT
ATOM      1  N   UNL     1       0.711  -0.489   1.189  0.00  0.00    -0.293 N 
ATOM      2  C   UNL     1       0.051  -0.633   2.355  0.00  0.00    +0.300 C 
ATOM      3  O   UNL     1      -1.132  -0.361   2.423  0.00  0.00    -0.253 OA
ATOM      4  N   UNL     1       0.703  -1.080   3.447  0.00  0.00    -0.295 N 
ATOM      5  H   UNL     1       1.654  -0.707   1.135  0.00  0.00    +0.151 HD
ATOM      6  H   UNL     1       1.647  -1.298   3.394  0.00  0.00    +0.151 HD
ENDROOT
BRANCH   4   7
ATOM      7  C   UNL     1      -0.014  -1.237   4.715  0.00  0.00    +0.090 C 
ATOM      8  C   UNL     1      -0.700  -2.604   4.749  0.00  0.00    +0.025 C 
ATOM      9  C   UNL     1      -1.476  -2.755   6.059  0.00  0.00    +0.019 C 
ATOM     10  C   UNL     1      -0.501  -2.675   7.237  0.00  0.00    +0.109 C 
ATOM     11  N   UNL     1       0.267  -1.427   7.132  0.00  0.00    -0.180 NA
ATOM     12  C   UNL     1       0.978  -1.138   5.879  0.00  0.00    +0.131 C 
BRANCH  11  13
ATOM     13  S   UNL     1       0.330  -0.365   8.401  0.00  0.00    +0.029 S 
ATOM     14  O   UNL     1       0.577   0.900   7.803  0.00  0.00    -0.158 OA
ATOM     15  O   UNL     1      -0.867  -0.600   9.130  0.00  0.00    -0.158 OA
ATOM     16  C   UNL     1       1.768  -0.888   9.375  0.00  0.00    +0.215 C 
ENDBRANCH  11  13
ENDBRANCH   4   7
BRANCH   1  18
ATOM     17  C   UNL     1      -0.019   1.526   0.010  0.00  0.00    +0.033 C 
ATOM     18  C   UNL     1       0.002  -0.004   0.002  0.00  0.00    +0.102 C 
BRANCH  18  19
ATOM     19  C   UNL     1       0.707  -0.490  -1.238  0.00  0.00    -0.027 A 
ATOM     20  C   UNL     1       2.089  -0.511  -1.284  0.00  0.00    +0.007 A 
ATOM     21  C   UNL     1       2.736  -0.956  -2.421  0.00  0.00    +0.020 A 
ATOM     22  C   UNL     1       2.002  -1.382  -3.513  0.00  0.00    +0.041 A 
ATOM     23  C   UNL     1       0.619  -1.361  -3.466  0.00  0.00    +0.020 A 
ATOM     24  C   UNL     1      -0.027  -0.920  -2.327  0.00  0.00    +0.007 A 
ATOM     25 CL   UNL     1       2.814  -1.941  -4.941  0.00  0.00    -0.084 Cl
ENDBRANCH  18  19
ENDBRANCH   1  18
TORSDOF 4
