REMARK  Name = ZINC45864240
REMARK  11 active torsions:
REMARK  status: ('A' for Active; 'I' for Inactive)
REMARK    1  A    between atoms: C_1  and  N_2
REMARK    2  A    between atoms: N_2  and  S_3
REMARK    3  A    between atoms: S_3  and  C_6
REMARK    4  A    between atoms: C_8  and  C_14
REMARK    5  A    between atoms: C_11  and  O_12
REMARK    6  A    between atoms: O_12  and  C_13
REMARK    7  A    between atoms: C_15  and  C_16
REMARK    8  A    between atoms: N_18  and  C_19
REMARK    9  A    between atoms: C_19  and  C_20
REMARK   10  A    between atoms: C_20  and  C_22
REMARK   11  A    between atoms: C_20  and  C_28
REMARK                            x       y       z     vdW  Elec       q    Type
REMARK                         _______ _______ _______ _____ _____    ______ ____
ROOT
ATOM      1  C   UNL     1       7.996  -2.949  -0.323  0.00  0.00    +0.237 C 
ATOM      2  O   UNL     1       7.622  -4.091  -0.129  0.00  0.00    -0.271 OA
ATOM      3  N   UNL     1       9.311  -2.656  -0.286  0.00  0.00    -0.311 N 
ATOM      4  H   UNL     1       9.610  -1.746  -0.441  0.00  0.00    +0.149 HD
ENDROOT
BRANCH   1   6
ATOM      5  C   UNL     1       5.702  -2.189  -0.632  0.00  0.00    +0.013 C 
ATOM      6  C   UNL     1       7.019  -1.896  -0.596  0.00  0.00    +0.068 C 
BRANCH   5   9
ATOM      7  C   UNL     1       2.438  -0.437  -1.202  0.00  0.00    +0.147 A 
ATOM      8  C   UNL     1       3.354  -1.433  -0.945  0.00  0.00    +0.040 A 
ATOM      9  C   UNL     1       4.720  -1.131  -0.906  0.00  0.00    -0.023 A 
ATOM     10  C   UNL     1       5.148   0.184  -1.129  0.00  0.00    +0.011 A 
ATOM     11  C   UNL     1       4.225   1.172  -1.385  0.00  0.00    +0.048 A 
ATOM     12  C   UNL     1       2.869   0.865  -1.427  0.00  0.00    +0.146 A 
BRANCH   7  13
ATOM     13  S   UNL     1       0.718  -0.816  -1.251  0.00  0.00    +0.062 S 
ATOM     14  O   UNL     1       0.599  -2.201  -0.959  0.00  0.00    -0.153 OA
ATOM     15  O   UNL     1       0.211  -0.243  -2.449  0.00  0.00    -0.153 OA
BRANCH  13  17
ATOM     16  C   UNL     1      -0.018   1.461   0.010  0.00  0.00    +0.127 C 
ATOM     17  N   UNL     1       0.002  -0.004   0.002  0.00  0.00    -0.193 NA
ATOM     18  H   UNL     1      -0.404  -0.499   0.731  0.00  0.00    +0.148 HD
ENDBRANCH  13  17
ENDBRANCH   7  13
BRANCH  12  19
ATOM     19  O   UNL     1       1.963   1.842  -1.685  0.00  0.00    -0.493 OA
ATOM     20  C   UNL     1       2.473   3.158  -1.908  0.00  0.00    +0.277 C 
ENDBRANCH  12  19
ENDBRANCH   5   9
ENDBRANCH   1   6
BRANCH   3  21
ATOM     21  C   UNL     1      10.290  -3.711  -0.013  0.00  0.00    +0.117 C 
BRANCH  21  22
ATOM     22  C   UNL     1      11.699  -3.116  -0.028  0.00  0.00    +0.068 C 
BRANCH  22  23
ATOM     23  C   UNL     1      12.713  -4.220   0.130  0.00  0.00    -0.013 A 
ATOM     24  C   UNL     1      12.813  -5.069   1.165  0.00  0.00    +0.088 A 
ATOM     25  N   UNL     1      13.853  -5.935   0.960  0.00  0.00    -0.360 N 
ATOM     26  H   UNL     1      14.121  -6.639   1.570  0.00  0.00    +0.165 HD
ATOM     27  C   UNL     1      14.462  -5.657  -0.244  0.00  0.00    +0.047 A 
ATOM     28  C   UNL     1      13.770  -4.575  -0.819  0.00  0.00    +0.003 A 
ATOM     29  C   UNL     1      14.168  -4.075  -2.060  0.00  0.00    +0.010 A 
ATOM     30  C   UNL     1      15.226  -4.642  -2.712  0.00  0.00    +0.001 A 
ATOM     31  C   UNL     1      15.909  -5.712  -2.151  0.00  0.00    +0.002 A 
ATOM     32  C   UNL     1      15.539  -6.216  -0.923  0.00  0.00    +0.026 A 
ENDBRANCH  22  23
BRANCH  22  33
ATOM     33  C   UNL     1      11.843  -2.136   1.108  0.00  0.00    -0.038 A 
ATOM     34  C   UNL     1      11.678  -2.561   2.413  0.00  0.00    +0.004 A 
ATOM     35  C   UNL     1      11.810  -1.662   3.454  0.00  0.00    +0.000 A 
ATOM     36  C   UNL     1      12.106  -0.338   3.191  0.00  0.00    +0.000 A 
ATOM     37  C   UNL     1      12.271   0.087   1.886  0.00  0.00    +0.000 A 
ATOM     38  C   UNL     1      12.144  -0.813   0.845  0.00  0.00    +0.004 A 
ENDBRANCH  22  33
ENDBRANCH  21  22
ENDBRANCH   3  21
TORSDOF 9
