REMARK  Name = ZINC39664187
REMARK  10 active torsions:
REMARK  status: ('A' for Active; 'I' for Inactive)
REMARK    1  A    between atoms: C_1  and  C_2
REMARK    2  A    between atoms: C_5  and  C_8
REMARK    3  A    between atoms: C_8  and  C_9
REMARK    4  A    between atoms: C_13  and  C_22
REMARK    5  A    between atoms: N_24  and  C_25
REMARK    6  A    between atoms: C_25  and  C_26
REMARK    7  A    between atoms: C_26  and  C_28
REMARK    8  A    between atoms: C_26  and  N_36
REMARK    9  A    between atoms: C_31  and  O_34
REMARK   10  A    between atoms: O_34  and  C_35
REMARK                            x       y       z     vdW  Elec       q    Type
REMARK                         _______ _______ _______ _____ _____    ______ ____
ROOT
ATOM      1  C   UNL     1       2.410  -4.944   0.121  0.00  0.00    +0.220 C 
ATOM      2  O   UNL     1       3.405  -4.253   0.058  0.00  0.00    -0.275 OA
ATOM      3  N   UNL     1       2.517  -6.286   0.049  0.00  0.00    -0.300 N 
ATOM      4  C   UNL     1       1.427  -7.288   0.100  0.00  0.00    +0.121 C 
ATOM      5  C   UNL     1       1.831  -8.359  -0.938  0.00  0.00    +0.100 C 
ATOM      6  C   UNL     1       3.358  -8.226  -1.063  0.00  0.00    -0.004 C 
ATOM      7  C   UNL     1       3.752  -7.092  -0.106  0.00  0.00    +0.115 C 
ATOM      8  C   UNL     1       3.741  -7.858  -2.494  0.00  0.00    -0.010 C 
ATOM      9  C   UNL     1       5.267  -7.788  -2.607  0.00  0.00    -0.082 C 
ATOM     10  N   UNL     1       5.846  -9.087  -2.243  0.00  0.00    +0.379 N 
ATOM     11  C   UNL     1       5.551  -9.391  -0.837  0.00  0.00    -0.082 C 
ATOM     12  C   UNL     1       4.038  -9.528  -0.649  0.00  0.00    -0.010 C 
ATOM     13  H   UNL     1       5.452  -9.806  -2.831  0.00  0.00    -0.086 HD
ATOM     14  H   UNL     1       6.846  -9.057  -2.377  0.00  0.00    -0.086 HD
ENDROOT
BRANCH   5  15
ATOM     15  C   UNL     1       1.460  -9.734  -0.446  0.00  0.00    +0.218 C 
ATOM     16  O   UNL     1       1.457  -9.972   0.744  0.00  0.00    -0.275 OA
ATOM     17  N   UNL     1       1.132 -10.699  -1.327  0.00  0.00    -0.316 N 
ATOM     18  H   UNL     1       1.134 -10.509  -2.278  0.00  0.00    +0.149 HD
BRANCH  17  19
ATOM     19  C   UNL     1       0.771 -12.036  -0.848  0.00  0.00    +0.093 C 
BRANCH  19  20
ATOM     20  C   UNL     1       0.577 -12.970  -2.044  0.00  0.00    -0.020 C 
BRANCH  20  21
ATOM     21  C   UNL     1       1.891 -13.153  -2.758  0.00  0.00    -0.059 A 
ATOM     22  C   UNL     1       2.827 -14.043  -2.264  0.00  0.00    +0.005 A 
ATOM     23  C   UNL     1       4.033 -14.211  -2.917  0.00  0.00    +0.046 A 
ATOM     24  C   UNL     1       4.305 -13.487  -4.068  0.00  0.00    +0.120 A 
ATOM     25  C   UNL     1       3.364 -12.595  -4.561  0.00  0.00    +0.046 A 
ATOM     26  C   UNL     1       2.157 -12.434  -3.908  0.00  0.00    +0.005 A 
BRANCH  24  27
ATOM     27  O   UNL     1       5.491 -13.650  -4.711  0.00  0.00    -0.495 OA
ATOM     28  C   UNL     1       5.702 -12.872  -5.891  0.00  0.00    +0.277 C 
ENDBRANCH  24  27
ENDBRANCH  20  21
BRANCH  20  29
ATOM     29  N   UNL     1       0.091 -14.274  -1.573  0.00  0.00    +0.385 N 
ATOM     30  C   UNL     1      -1.239 -14.123  -0.929  0.00  0.00    -0.078 C 
ATOM     31  C   UNL     1      -1.838 -15.549  -1.012  0.00  0.00    -0.020 C 
ATOM     32  C   UNL     1      -1.349 -16.049  -2.391  0.00  0.00    -0.020 C 
ATOM     33  C   UNL     1      -0.118 -15.186  -2.719  0.00  0.00    -0.078 C 
ATOM     34  H   UNL     1       0.749 -14.677  -0.923  0.00  0.00    -0.081 HD
ENDBRANCH  20  29
ENDBRANCH  19  20
ENDBRANCH  17  19
ENDBRANCH   5  15
BRANCH   1  35
ATOM     35  C   UNL     1       1.056  -4.304   0.280  0.00  0.00    +0.131 C 
BRANCH  35  40
ATOM     36  C   UNL     1       1.649   1.440   0.488  0.00  0.00    +0.044 C 
ATOM     37  C   UNL     1       1.495  -0.058   0.434  0.00  0.00    -0.050 A 
ATOM     38  C   UNL     1       1.311  -0.690  -0.781  0.00  0.00    +0.003 A 
ATOM     39  C   UNL     1       1.169  -2.064  -0.831  0.00  0.00    +0.004 A 
ATOM     40  C   UNL     1       1.211  -2.806   0.334  0.00  0.00    -0.039 A 
ATOM     41  C   UNL     1       1.396  -2.174   1.550  0.00  0.00    +0.004 A 
ATOM     42  C   UNL     1       1.542  -0.800   1.599  0.00  0.00    +0.003 A 
ENDBRANCH  35  40
ENDBRANCH   1  35
TORSDOF 8
