REMARK  Name = ZINC20247758
REMARK  8 active torsions:
REMARK  status: ('A' for Active; 'I' for Inactive)
REMARK    1  A    between atoms: C_1  and  O_2
REMARK    2  A    between atoms: O_2  and  C_3
REMARK    3  A    between atoms: C_6  and  C_14
REMARK    4  A    between atoms: C_7  and  C_11
REMARK    5  A    between atoms: C_8  and  O_9
REMARK    6  A    between atoms: O_9  and  C_10
REMARK    7  A    between atoms: C_14  and  N_15
REMARK    8  A    between atoms: C_18  and  C_21
REMARK                            x       y       z     vdW  Elec       q    Type
REMARK                         _______ _______ _______ _____ _____    ______ ____
ROOT
ATOM      1  N   UNL     1      -0.137   2.479  -2.724  0.00  0.00    -0.321 N 
ATOM      2  C   UNL     1      -0.438   1.854  -3.924  0.00  0.00    +0.136 A 
ATOM      3  N   UNL     1      -1.602   1.410  -4.358  0.00  0.00    -0.341 N 
ATOM      4  C   UNL     1      -1.716   0.836  -5.542  0.00  0.00    +0.028 A 
ATOM      5  C   UNL     1      -0.604   0.702  -6.304  0.00  0.00    +0.069 A 
ATOM      6  S   UNL     1       0.621   1.450  -5.239  0.00  0.00    -0.063 S 
ATOM      7  H   UNL     1      -0.931   2.665  -1.986  0.00  0.00    +0.148 HD
ATOM      8  H   UNL     1      -2.499   1.514  -3.730  0.00  0.00    +0.167 HD
ENDROOT
BRANCH   4   9
ATOM      9  C   UNL     1      -3.050   0.336  -6.031  0.00  0.00    +0.042 C 
ATOM     10  C   UNL     1      -3.150   0.545  -7.543  0.00  0.00    -0.001 C 
ATOM     11  C   UNL     1      -3.015   2.035  -7.862  0.00  0.00    +0.007 C 
ATOM     12  C   UNL     1      -4.136   2.809  -7.166  0.00  0.00    -0.010 C 
ATOM     13  C   UNL     1      -5.492   2.302  -7.662  0.00  0.00    +0.007 C 
ATOM     14  C   UNL     1      -5.626   0.811  -7.343  0.00  0.00    -0.010 C 
ATOM     15  C   UNL     1      -4.505   0.037  -8.040  0.00  0.00    +0.007 C 
ATOM     16  C   UNL     1      -5.527   0.603  -5.831  0.00  0.00    +0.007 C 
ATOM     17  C   UNL     1      -4.171   1.110  -5.334  0.00  0.00    -0.001 C 
ATOM     18  C   UNL     1      -4.037   2.601  -5.653  0.00  0.00    +0.007 C 
ENDBRANCH   4   9
BRANCH   1  19
ATOM     19  C   UNL     1       1.239   2.891  -2.438  0.00  0.00    +0.139 C 
BRANCH  19  23
ATOM     20  C   UNL     1       1.404   4.750   1.423  0.00  0.00    +0.162 A 
ATOM     21  C   UNL     1       1.369   5.519   0.272  0.00  0.00    +0.050 A 
ATOM     22  C   UNL     1       1.316   4.914  -0.973  0.00  0.00    +0.010 A 
ATOM     23  C   UNL     1       1.297   3.541  -1.079  0.00  0.00    -0.012 A 
ATOM     24  C   UNL     1       1.331   2.750   0.073  0.00  0.00    +0.113 A 
ATOM     25  C   UNL     1       1.380   3.362   1.332  0.00  0.00    +0.176 A 
BRANCH  24  26
ATOM     26  C   UNL     1       1.311   1.280  -0.036  0.00  0.00    +0.390 C 
ATOM     27  O   UNL     1       2.353   0.662  -0.121  0.00  0.00    -0.240 OA
ATOM     28  O   UNL     1       0.135   0.622  -0.042  0.00  0.00    -0.240 OA
ENDBRANCH  24  26
BRANCH  20  30
ATOM     29  C   UNL     1       1.472   6.780   2.660  0.00  0.00    +0.277 C 
ATOM     30  O   UNL     1       1.456   5.351   2.641  0.00  0.00    -0.491 OA
ENDBRANCH  20  30
BRANCH  25  31
ATOM     31  O   UNL     1       1.409   2.604   2.458  0.00  0.00    -0.491 OA
ATOM     32  C   UNL     1       2.695   2.227   2.954  0.00  0.00    +0.277 C 
ENDBRANCH  25  31
ENDBRANCH  19  23
ENDBRANCH   1  19
TORSDOF 6
