REMARK  Name = ZINC48801947
REMARK  3 active torsions:
REMARK  status: ('A' for Active; 'I' for Inactive)
REMARK    1  A    between atoms: C_1  and  C_2
REMARK    2  A    between atoms: C_5  and  C_7
REMARK    3  A    between atoms: C_12  and  C_15
REMARK                            x       y       z     vdW  Elec       q    Type
REMARK                         _______ _______ _______ _____ _____    ______ ____
ROOT
ATOM      1  C   UNL     1       1.314   0.159   2.237  0.00  0.00    +0.219 C 
ATOM      2  O   UNL     1       1.244   1.367   2.152  0.00  0.00    -0.275 OA
ATOM      3  N   UNL     1       1.940  -0.407   3.287  0.00  0.00    -0.301 N 
ATOM      4  C   UNL     1       2.039  -1.869   3.400  0.00  0.00    +0.108 C 
ATOM      5  C   UNL     1       3.510  -2.251   3.588  0.00  0.00    +0.032 C 
ATOM      6  C   UNL     1       4.082  -1.488   4.785  0.00  0.00    +0.078 C 
ATOM      7  C   UNL     1       4.005   0.017   4.517  0.00  0.00    +0.032 C 
ATOM      8  C   UNL     1       2.544   0.424   4.337  0.00  0.00    +0.108 C 
ENDROOT
BRANCH   6   9
ATOM      9  C   UNL     1       5.520  -1.887   4.994  0.00  0.00    +0.222 C 
ATOM     10  O   UNL     1       6.037  -2.702   4.258  0.00  0.00    -0.275 OA
ATOM     11  N   UNL     1       6.233  -1.339   5.998  0.00  0.00    -0.263 N 
ATOM     12  C   UNL     1       7.560  -1.708   6.191  0.00  0.00    +0.187 A 
ATOM     13  N   UNL     1       8.294  -2.561   5.504  0.00  0.00    -0.126 NA
ATOM     14  N   UNL     1       9.500  -2.795   5.802  0.00  0.00    -0.148 NA
ATOM     15  C   UNL     1      10.040  -2.169   6.829  0.00  0.00    +0.183 A 
ATOM     16  S   UNL     1       8.652  -1.175   7.360  0.00  0.00    -0.039 S 
ATOM     17  H   UNL     1       5.820  -0.688   6.587  0.00  0.00    +0.157 HD
ENDBRANCH   6   9
BRANCH   1  21
ATOM     18  C   UNL     1      -0.019   1.526   0.010  0.00  0.00    +0.008 C 
ATOM     19  C   UNL     1       0.002  -0.004   0.002  0.00  0.00    -0.002 C 
ATOM     20  C   UNL     1      -0.828  -0.728   1.065  0.00  0.00    +0.017 C 
ATOM     21  C   UNL     1       0.700  -0.708   1.168  0.00  0.00    +0.078 C 
ENDBRANCH   1  21
TORSDOF 2
