REMARK  Name = ZINC01107245
REMARK  9 active torsions:
REMARK  status: ('A' for Active; 'I' for Inactive)
REMARK    1  A    between atoms: C_1  and  C_2
REMARK    2  A    between atoms: C_9  and  N_33
REMARK    3  A    between atoms: C_10  and  C_31
REMARK    4  A    between atoms: C_11  and  C_13
REMARK    5  A    between atoms: C_16  and  O_29
REMARK    6  A    between atoms: C_17  and  C_19
REMARK    7  A    between atoms: C_19  and  O_20
REMARK    8  A    between atoms: O_20  and  C_21
REMARK    9  A    between atoms: O_29  and  C_30
REMARK                            x       y       z     vdW  Elec       q    Type
REMARK                         _______ _______ _______ _____ _____    ______ ____
ROOT
ATOM      1  C   UNL     1      -4.608   0.383   1.683  0.00  0.00    -0.034 A 
ATOM      2  C   UNL     1      -3.902  -0.029   0.567  0.00  0.00    +0.008 A 
ATOM      3  C   UNL     1      -2.588   0.359   0.398  0.00  0.00    +0.046 A 
ATOM      4  C   UNL     1      -1.975   1.163   1.348  0.00  0.00    +0.126 A 
ATOM      5  C   UNL     1      -2.683   1.569   2.470  0.00  0.00    +0.032 A 
ATOM      6  C   UNL     1      -3.999   1.183   2.632  0.00  0.00    +0.015 A 
ENDROOT
BRANCH   1  17
ATOM      7  C   UNL     1      -6.966   2.945   1.217  0.00  0.00    +0.065 C 
ATOM      8  C   UNL     1      -7.270   1.704   0.418  0.00  0.00    +0.041 A 
ATOM      9  C   UNL     1      -6.871   0.457   0.709  0.00  0.00    +0.049 A 
ATOM     10  C   UNL     1      -7.369  -0.408  -0.290  0.00  0.00    +0.245 A 
ATOM     11  N   UNL     1      -8.039   0.308  -1.145  0.00  0.00    -0.135 NA
ATOM     12  N   UNL     1      -7.994   1.647  -0.724  0.00  0.00    -0.278 N 
ATOM     13  H   UNL     1      -8.423   2.423  -1.187  0.00  0.00    +0.189 HD
ATOM     14  O   UNL     1      -7.133  -1.747  -0.268  0.00  0.00    -0.421 OA
ATOM     15  C   UNL     1      -6.640  -2.272   0.872  0.00  0.00    +0.201 C 
ATOM     16  C   UNL     1      -6.128  -1.548   1.889  0.00  0.00    +0.098 C 
ATOM     17  C   UNL     1      -6.042  -0.042   1.865  0.00  0.00    +0.101 C 
BRANCH  15  18
ATOM     18  N   UNL     1      -6.660  -3.638   1.007  0.00  0.00    -0.328 N 
ATOM     19  H   UNL     1      -7.021  -4.190   0.296  0.00  0.00    +0.145 HD
ATOM     20  H   UNL     1      -6.314  -4.050   1.814  0.00  0.00    +0.145 HD
ENDBRANCH  15  18
BRANCH  16  21
ATOM     21  C   UNL     1      -5.644  -2.241   3.044  0.00  0.00    +0.101 C 
ATOM     22  N   UNL     1      -5.259  -2.791   3.961  0.00  0.00    -0.191 NA
ENDBRANCH  16  21
ENDBRANCH   1  17
BRANCH   4  23
ATOM     23  O   UNL     1      -0.682   1.547   1.184  0.00  0.00    -0.495 OA
ATOM     24  C   UNL     1      -0.013   1.086   0.008  0.00  0.00    +0.277 C 
ENDBRANCH   4  23
BRANCH   5  25
ATOM     25  C   UNL     1      -2.018   2.437   3.507  0.00  0.00    +0.268 C 
BRANCH  25  26
ATOM     26  O   UNL     1      -2.946   2.719   4.557  0.00  0.00    -0.486 OA
BRANCH  26  27
ATOM     27  C   UNL     1      -2.502   3.496   5.581  0.00  0.00    +0.141 A 
ATOM     28  C   UNL     1      -1.200   3.972   5.577  0.00  0.00    +0.067 A 
ATOM     29  C   UNL     1      -0.752   4.766   6.617  0.00  0.00    +0.045 A 
ATOM     30  C   UNL     1      -1.600   5.077   7.665  0.00  0.00    +0.021 A 
ATOM     31  C   UNL     1      -2.897   4.599   7.674  0.00  0.00    +0.025 A 
ATOM     32  C   UNL     1      -3.350   3.809   6.634  0.00  0.00    +0.083 A 
ATOM     33 CL   UNL     1      -4.979   3.209   6.646  0.00  0.00    -0.080 Cl
ATOM     34 CL   UNL     1       0.876   5.368   6.609  0.00  0.00    -0.083 Cl
ENDBRANCH  26  27
ENDBRANCH  25  26
ENDBRANCH   5  25
TORSDOF 7
