REMARK  Name = ZINC02314527
REMARK  7 active torsions:
REMARK  status: ('A' for Active; 'I' for Inactive)
REMARK    1  A    between atoms: C_1  and  C_2
REMARK    2  A    between atoms: C_2  and  C_4
REMARK    3  A    between atoms: C_2  and  O_21
REMARK    4  A    between atoms: N_6  and  N_7
REMARK    5  A    between atoms: C_8  and  C_10
REMARK    6  A    between atoms: C_19  and  O_20
REMARK    7  A    between atoms: O_21  and  C_22
REMARK                            x       y       z     vdW  Elec       q    Type
REMARK                         _______ _______ _______ _____ _____    ______ ____
ROOT
ATOM      1  N   UNL     1       2.306   8.122   0.537  0.00  0.00    -0.230 N 
ATOM      2  C   UNL     1       1.153   7.426   0.583  0.00  0.00    +0.264 C 
ATOM      3  O   UNL     1       0.091   7.998   0.428  0.00  0.00    -0.269 OA
ATOM      4  H   UNL     1       3.153   7.666   0.661  0.00  0.00    +0.173 HD
ENDROOT
BRANCH   2   5
ATOM      5  C   UNL     1       1.179   5.972   0.821  0.00  0.00    +0.080 A 
ATOM      6  C   UNL     1       2.411   5.314   1.000  0.00  0.00    +0.017 A 
ATOM      7  C   UNL     1       2.461   3.978   1.220  0.00  0.00    +0.009 A 
ATOM      8  C   UNL     1       1.273   3.223   1.274  0.00  0.00    -0.014 A 
ATOM      9  C   UNL     1       1.307   1.837   1.501  0.00  0.00    +0.008 A 
ATOM     10  C   UNL     1       0.142   1.132   1.547  0.00  0.00    +0.001 A 
ATOM     11  C   UNL     1      -1.086   1.764   1.367  0.00  0.00    +0.001 A 
ATOM     12  C   UNL     1      -1.157   3.107   1.150  0.00  0.00    +0.012 A 
ATOM     13  C   UNL     1       0.024   3.866   1.096  0.00  0.00    +0.024 A 
ATOM     14  C   UNL     1      -0.015   5.256   0.868  0.00  0.00    +0.137 A 
BRANCH  14  15
ATOM     15  O   UNL     1      -1.199   5.890   0.695  0.00  0.00    -0.505 OA
ATOM     16  H   UNL     1      -1.595   6.215   1.515  0.00  0.00    +0.292 HD
ENDBRANCH  14  15
ENDBRANCH   2   5
BRANCH   1  19
ATOM     17  C   UNL     1       3.434  10.201   0.265  0.00  0.00    +0.270 C 
ATOM     18  O   UNL     1       4.494   9.631   0.419  0.00  0.00    -0.270 OA
ATOM     19  N   UNL     1       2.281   9.505   0.310  0.00  0.00    -0.231 N 
ATOM     20  H   UNL     1       1.434   9.960   0.187  0.00  0.00    +0.173 HD
BRANCH  17  22
ATOM     21  C   UNL     1       2.715  12.384   1.194  0.00  0.00    +0.062 C 
ATOM     22  C   UNL     1       3.407  11.688   0.021  0.00  0.00    +0.257 C 
BRANCH  22  23
ATOM     23  O   UNL     1       4.745  12.175  -0.099  0.00  0.00    -0.478 OA
BRANCH  23  24
ATOM     24  C   UNL     1       4.924  13.320  -0.809  0.00  0.00    +0.140 A 
ATOM     25  C   UNL     1       3.825  14.022  -1.282  0.00  0.00    +0.048 A 
ATOM     26  C   UNL     1       4.008  15.188  -2.000  0.00  0.00    +0.023 A 
ATOM     27  C   UNL     1       5.286  15.652  -2.256  0.00  0.00    +0.043 A 
ATOM     28  C   UNL     1       6.384  14.951  -1.789  0.00  0.00    +0.043 A 
ATOM     29  C   UNL     1       6.206  13.786  -1.067  0.00  0.00    +0.084 A 
ATOM     30 CL   UNL     1       7.583  12.907  -0.482  0.00  0.00    -0.080 Cl
ATOM     31 CL   UNL     1       5.513  17.115  -3.163  0.00  0.00    -0.083 Cl
ENDBRANCH  23  24
ENDBRANCH  22  23
ENDBRANCH  17  22
ENDBRANCH   1  19
TORSDOF 6
