REMARK  Name = ZINC08907687
REMARK  7 active torsions:
REMARK  status: ('A' for Active; 'I' for Inactive)
REMARK    1  A    between atoms: C_4  and  N_10
REMARK    2  A    between atoms: C_6  and  N_7
REMARK    3  A    between atoms: C_11  and  C_13
REMARK    4  A    between atoms: C_15  and  N_28
REMARK    5  A    between atoms: C_17  and  N_19
REMARK    6  A    between atoms: C_20  and  C_22
REMARK    7  A    between atoms: C_29  and  C_31
REMARK                            x       y       z     vdW  Elec       q    Type
REMARK                         _______ _______ _______ _____ _____    ______ ____
ROOT
ATOM      1  C   UNL     1      -6.130  -0.837   0.016  0.00  0.00    +0.041 A 
ATOM      2  C   UNL     1      -7.348  -0.157   0.050  0.00  0.00    +0.036 A 
ATOM      3  C   UNL     1      -8.536  -0.860  -0.083  0.00  0.00    +0.036 A 
ATOM      4  C   UNL     1      -8.515  -2.240  -0.238  0.00  0.00    +0.046 A 
ATOM      5  C   UNL     1      -7.304  -2.920  -0.266  0.00  0.00    +0.036 A 
ATOM      6  C   UNL     1      -6.113  -2.223  -0.139  0.00  0.00    +0.036 A 
ENDROOT
BRANCH   1   8
ATOM      7  N   UNL     1      -4.880   1.249   0.302  0.00  0.00    -0.280 N 
ATOM      8  C   UNL     1      -4.862  -0.090   0.152  0.00  0.00    +0.248 C 
ATOM      9  O   UNL     1      -3.801  -0.684   0.127  0.00  0.00    -0.270 OA
ATOM     10  H   UNL     1      -5.726   1.714   0.404  0.00  0.00    +0.155 HD
BRANCH   7  14
ATOM     11  C   UNL     1      -1.307   3.392   0.330  0.00  0.00    +0.034 A 
ATOM     12  C   UNL     1      -2.426   3.909   0.957  0.00  0.00    +0.024 A 
ATOM     13  C   UNL     1      -3.612   3.201   0.951  0.00  0.00    +0.062 A 
ATOM     14  C   UNL     1      -3.681   1.969   0.310  0.00  0.00    +0.054 A 
ATOM     15  C   UNL     1      -2.557   1.456  -0.322  0.00  0.00    +0.057 A 
ATOM     16  C   UNL     1      -1.374   2.170  -0.313  0.00  0.00    +0.128 A 
ATOM     17 CL   UNL     1      -5.015   3.849   1.743  0.00  0.00    -0.082 Cl
BRANCH  16  18
ATOM     18  N   UNL     1      -0.175   1.622  -0.986  0.00  0.00    +0.056 N 
ATOM     19  O   UNL     1      -0.232   0.543  -1.548  0.00  0.00    -0.126 OA
ATOM     20  O   UNL     1       0.867   2.253  -0.983  0.00  0.00    -0.126 OA
ENDBRANCH  16  18
ENDBRANCH   7  14
ENDBRANCH   1   8
BRANCH   5  21
ATOM     21  N   UNL     1      -7.288  -4.311  -0.422  0.00  0.00    -0.285 N 
ATOM     22  C   UNL     1      -6.349  -5.048   0.203  0.00  0.00    +0.220 C 
ATOM     23  O   UNL     1      -5.579  -4.519   0.977  0.00  0.00    -0.275 OA
ATOM     24  H   UNL     1      -7.952  -4.744  -0.981  0.00  0.00    +0.155 HD
BRANCH  22  25
ATOM     25  C   UNL     1      -6.256  -6.529  -0.059  0.00  0.00    +0.075 C 
ATOM     26  C   UNL     1      -7.574  -7.200   0.333  0.00  0.00    +0.013 C 
ATOM     27  C   UNL     1      -7.480  -8.704   0.067  0.00  0.00    +0.001 C 
ATOM     28  C   UNL     1      -6.339  -9.297   0.897  0.00  0.00    +0.000 C 
ATOM     29  C   UNL     1      -5.021  -8.627   0.505  0.00  0.00    +0.001 C 
ATOM     30  C   UNL     1      -5.115  -7.123   0.771  0.00  0.00    +0.013 C 
ENDBRANCH  22  25
ENDBRANCH   5  21
BRANCH   3  31
ATOM     31  N   UNL     1      -9.758  -0.179  -0.055  0.00  0.00    -0.285 N 
ATOM     32  C   UNL     1      -9.817   1.116  -0.423  0.00  0.00    +0.220 C 
ATOM     33  O   UNL     1      -8.833   1.663  -0.876  0.00  0.00    -0.275 OA
ATOM     34  H   UNL     1     -10.564  -0.639   0.229  0.00  0.00    +0.155 HD
BRANCH  32  35
ATOM     35  C   UNL     1     -11.104   1.885  -0.272  0.00  0.00    +0.075 C 
ATOM     36  C   UNL     1     -12.199   1.215  -1.104  0.00  0.00    +0.013 C 
ATOM     37  C   UNL     1     -13.506   1.996  -0.951  0.00  0.00    +0.001 C 
ATOM     38  C   UNL     1     -13.302   3.432  -1.438  0.00  0.00    +0.000 C 
ATOM     39  C   UNL     1     -12.207   4.102  -0.606  0.00  0.00    +0.001 C 
ATOM     40  C   UNL     1     -10.900   3.321  -0.759  0.00  0.00    +0.013 C 
ENDBRANCH  32  35
ENDBRANCH   3  31
TORSDOF 7
