REMARK  Name = ZINC09262987
REMARK  11 active torsions:
REMARK  status: ('A' for Active; 'I' for Inactive)
REMARK    1  A    between atoms: C_1  and  C_2
REMARK    2  A    between atoms: C_5  and  N_8
REMARK    3  A    between atoms: N_8  and  S_9
REMARK    4  A    between atoms: S_9  and  C_12
REMARK    5  A    between atoms: C_15  and  N_18
REMARK    6  A    between atoms: C_19  and  C_21
REMARK    7  A    between atoms: C_21  and  C_22
REMARK    8  A    between atoms: C_22  and  N_23
REMARK    9  A    between atoms: N_23  and  S_24
REMARK   10  A    between atoms: S_24  and  C_27
REMARK   11  A    between atoms: C_30  and  N_33
REMARK                            x       y       z     vdW  Elec       q    Type
REMARK                         _______ _______ _______ _____ _____    ______ ____
ROOT
ATOM      1  N   UNL     1       3.919  -4.058  -5.659  0.00  0.00    -0.285 N 
ATOM      2  C   UNL     1       3.474  -5.330  -5.648  0.00  0.00    +0.218 C 
ATOM      3  O   UNL     1       3.974  -6.154  -6.384  0.00  0.00    -0.275 OA
ATOM      4  H   UNL     1       3.475  -3.384  -5.121  0.00  0.00    +0.155 HD
ENDROOT
BRANCH   1   8
ATOM      5  C   UNL     1       7.205  -3.022  -8.002  0.00  0.00    +0.109 A 
ATOM      6  C   UNL     1       6.309  -3.974  -8.452  0.00  0.00    +0.030 A 
ATOM      7  C   UNL     1       5.219  -4.320  -7.678  0.00  0.00    +0.025 A 
ATOM      8  C   UNL     1       5.023  -3.710  -6.446  0.00  0.00    +0.033 A 
ATOM      9  C   UNL     1       5.921  -2.749  -5.999  0.00  0.00    +0.025 A 
ATOM     10  C   UNL     1       7.012  -2.412  -6.776  0.00  0.00    +0.030 A 
BRANCH   5  11
ATOM     11  S   UNL     1       8.594  -2.583  -8.993  0.00  0.00    +0.072 S 
ATOM     12  O   UNL     1       9.617  -2.171  -8.098  0.00  0.00    -0.150 OA
ATOM     13  O   UNL     1       8.777  -3.640  -9.925  0.00  0.00    -0.150 OA
BRANCH  11  14
ATOM     14  N   UNL     1       8.167  -1.246  -9.871  0.00  0.00    -0.216 N 
ATOM     15  H   UNL     1       8.131  -1.293 -10.839  0.00  0.00    +0.174 HD
BRANCH  14  20
ATOM     16  C   UNL     1       6.912   3.607  -7.220  0.00  0.00    +0.044 C 
ATOM     17  C   UNL     1       7.245   2.317  -7.925  0.00  0.00    -0.050 A 
ATOM     18  C   UNL     1       8.562   1.907  -8.026  0.00  0.00    +0.005 A 
ATOM     19  C   UNL     1       8.871   0.726  -8.671  0.00  0.00    +0.025 A 
ATOM     20  C   UNL     1       7.857  -0.051  -9.218  0.00  0.00    +0.048 A 
ATOM     21  C   UNL     1       6.536   0.366  -9.119  0.00  0.00    +0.025 A 
ATOM     22  C   UNL     1       6.234   1.546  -8.468  0.00  0.00    +0.005 A 
ENDBRANCH  14  20
ENDBRANCH  11  14
ENDBRANCH   5  11
ENDBRANCH   1   8
BRANCH   2  23
ATOM     23  C   UNL     1       2.353  -5.728  -4.722  0.00  0.00    +0.113 C 
BRANCH  23  24
ATOM     24  C   UNL     1       2.042  -7.214  -4.907  0.00  0.00    +0.115 C 
BRANCH  24  25
ATOM     25  N   UNL     1       0.954  -7.601  -4.006  0.00  0.00    -0.189 NA
ATOM     26  H   UNL     1       0.700  -7.018  -3.274  0.00  0.00    +0.148 HD
BRANCH  25  27
ATOM     27  S   UNL     1       0.156  -9.034  -4.239  0.00  0.00    +0.058 S 
ATOM     28  O   UNL     1      -0.194  -9.085  -5.616  0.00  0.00    -0.153 OA
ATOM     29  O   UNL     1      -0.812  -9.133  -3.204  0.00  0.00    -0.153 OA
BRANCH  27  30
ATOM     30  C   UNL     1       1.319 -10.328  -3.967  0.00  0.00    +0.105 A 
ATOM     31  C   UNL     1       1.479 -10.859  -2.701  0.00  0.00    +0.031 A 
ATOM     32  C   UNL     1       2.391 -11.876  -2.487  0.00  0.00    +0.034 A 
ATOM     33  C   UNL     1       3.144 -12.361  -3.540  0.00  0.00    +0.126 A 
ATOM     34  C   UNL     1       2.986 -11.829  -4.806  0.00  0.00    +0.034 A 
ATOM     35  C   UNL     1       2.073 -10.813  -5.020  0.00  0.00    +0.031 A 
BRANCH  33  36
ATOM     36  N   UNL     1       4.121 -13.449  -3.311  0.00  0.00    +0.056 N 
ATOM     37  O   UNL     1       4.262 -13.917  -2.196  0.00  0.00    -0.126 OA
ATOM     38  O   UNL     1       4.785 -13.877  -4.239  0.00  0.00    -0.126 OA
ENDBRANCH  33  36
ENDBRANCH  27  30
ENDBRANCH  25  27
ENDBRANCH  24  25
ENDBRANCH  23  24
ENDBRANCH   2  23
TORSDOF 10
