REMARK  Name = ZINC67589726
REMARK  8 active torsions:
REMARK  status: ('A' for Active; 'I' for Inactive)
REMARK    1  A    between atoms: C_1  and  C_2
REMARK    2  A    between atoms: C_7  and  C_10
REMARK    3  A    between atoms: N_18  and  C_19
REMARK    4  A    between atoms: C_19  and  C_20
REMARK    5  A    between atoms: C_20  and  C_22
REMARK    6  A    between atoms: C_20  and  N_27
REMARK    7  A    between atoms: N_27  and  C_28
REMARK    8  A    between atoms: N_27  and  C_29
REMARK                            x       y       z     vdW  Elec       q    Type
REMARK                         _______ _______ _______ _____ _____    ______ ____
ROOT
ATOM      1  C   UNL     1      -0.025   1.147  -0.016  0.00  0.00    +0.039 C 
ATOM      2  C   UNL     1       0.097  -0.376  -0.094  0.00  0.00    +0.133 C 
ATOM      3  C   UNL     1       0.851  -0.765  -1.371  0.00  0.00    +0.140 C 
ATOM      4  N   UNL     1       2.245  -0.312  -1.243  0.00  0.00    -0.280 N 
ATOM      5  C   UNL     1       2.980  -0.673  -0.021  0.00  0.00    +0.145 C 
ATOM      6  C   UNL     1       2.123  -0.289   1.191  0.00  0.00    +0.166 C 
ATOM      7  O   UNL     1       0.818  -0.856   1.044  0.00  0.00    -0.366 OA
ATOM      8  C   UNL     1       2.831   0.412  -2.217  0.00  0.00    +0.302 C 
ATOM      9  O   UNL     1       3.952   0.856  -2.054  0.00  0.00    -0.253 OA
ATOM     10  N   UNL     1       2.176   0.645  -3.371  0.00  0.00    -0.300 N 
ATOM     11  H   UNL     1       1.256   0.354  -3.474  0.00  0.00    +0.150 HD
ENDROOT
BRANCH   6  12
ATOM     12  C   UNL     1       2.763  -0.818   2.449  0.00  0.00    -0.017 A 
ATOM     13  C   UNL     1       2.608  -2.146   2.797  0.00  0.00    +0.006 A 
ATOM     14  C   UNL     1       3.195  -2.631   3.951  0.00  0.00    +0.000 A 
ATOM     15  C   UNL     1       3.938  -1.787   4.756  0.00  0.00    +0.000 A 
ATOM     16  C   UNL     1       4.094  -0.459   4.406  0.00  0.00    +0.000 A 
ATOM     17  C   UNL     1       3.510   0.025   3.250  0.00  0.00    +0.006 A 
ENDBRANCH   6  12
BRANCH  10  18
ATOM     18  C   UNL     1       2.852   1.338  -4.471  0.00  0.00    +0.098 C 
BRANCH  18  19
ATOM     19  C   UNL     1       1.857   1.587  -5.606  0.00  0.00    +0.016 C 
BRANCH  19  20
ATOM     20  C   UNL     1       1.417   0.268  -6.186  0.00  0.00    +0.093 A 
ATOM     21  C   UNL     1       1.891  -0.294  -7.312  0.00  0.00    +0.043 A 
ATOM     22  C   UNL     1       1.204  -1.518  -7.481  0.00  0.00    +0.041 A 
ATOM     23  C   UNL     1       0.351  -1.631  -6.447  0.00  0.00    +0.195 A 
ATOM     24  O   UNL     1       0.488  -0.550  -5.663  0.00  0.00    -0.469 OA
ENDBRANCH  19  20
BRANCH  19  25
ATOM     25  N   UNL     1       0.688   2.306  -5.083  0.00  0.00    +0.384 N 
ATOM     26  C   UNL     1       1.100   3.636  -4.614  0.00  0.00    -0.096 C 
ATOM     27  C   UNL     1      -0.314   2.452  -6.147  0.00  0.00    -0.096 C 
ATOM     28  H   UNL     1       0.289   1.787  -4.314  0.00  0.00    -0.082 HD
ENDBRANCH  19  25
ENDBRANCH  18  19
ENDBRANCH  10  18
TORSDOF 5
