REMARK  Name = ZINC00661385
REMARK  11 active torsions:
REMARK  status: ('A' for Active; 'I' for Inactive)
REMARK    1  A    between atoms: C_1  and  O_2
REMARK    2  A    between atoms: O_2  and  C_3
REMARK    3  A    between atoms: C_8  and  C_9
REMARK    4  A    between atoms: C_9  and  N_10
REMARK    5  A    between atoms: C_11  and  C_13
REMARK    6  A    between atoms: C_14  and  N_32
REMARK    7  A    between atoms: C_18  and  C_22
REMARK    8  A    between atoms: C_25  and  O_30
REMARK    9  A    between atoms: C_26  and  O_28
REMARK   10  A    between atoms: O_28  and  C_29
REMARK   11  A    between atoms: O_30  and  C_31
REMARK                            x       y       z     vdW  Elec       q    Type
REMARK                         _______ _______ _______ _____ _____    ______ ____
ROOT
ATOM      1  C   UNL     1       1.224  -0.642  -0.013  0.00  0.00    +0.097 A 
ATOM      2  C   UNL     1       0.002  -0.004   0.002  0.00  0.00    +0.053 A 
ATOM      3  C   UNL     1      -0.018   1.450   0.010  0.00  0.00    +0.029 A 
ATOM      4  C   UNL     1      -1.139   2.318   0.031  0.00  0.00    +0.014 A 
ATOM      5  C   UNL     1      -0.938   3.665   0.031  0.00  0.00    +0.029 A 
ATOM      6  C   UNL     1       0.359   4.188   0.021  0.00  0.00    +0.072 A 
ATOM      7  N   UNL     1       1.407   3.373   0.007  0.00  0.00    -0.239 NA
ATOM      8  C   UNL     1       1.255   2.067   0.001  0.00  0.00    +0.111 A 
ATOM      9  S   UNL     1       2.392   0.704  -0.017  0.00  0.00    -0.062 S 
ENDROOT
BRANCH   6  10
ATOM     10  C   UNL     1       0.565   5.655   0.026  0.00  0.00    +0.004 A 
ATOM     11  C   UNL     1      -0.529   6.513   0.147  0.00  0.00    +0.014 A 
ATOM     12  C   UNL     1      -0.337   7.879   0.153  0.00  0.00    +0.050 A 
ATOM     13  C   UNL     1       0.943   8.402   0.039  0.00  0.00    +0.162 A 
ATOM     14  C   UNL     1       2.039   7.551  -0.082  0.00  0.00    +0.162 A 
ATOM     15  C   UNL     1       1.852   6.181  -0.083  0.00  0.00    +0.059 A 
BRANCH  14  16
ATOM     16  O   UNL     1       3.292   8.066  -0.193  0.00  0.00    -0.491 OA
ATOM     17  C   UNL     1       4.369   7.134  -0.313  0.00  0.00    +0.277 C 
ENDBRANCH  14  16
BRANCH  13  18
ATOM     18  O   UNL     1       1.128   9.749   0.046  0.00  0.00    -0.491 OA
ATOM     19  C   UNL     1      -0.039  10.564   0.174  0.00  0.00    +0.277 C 
ENDBRANCH  13  18
ENDBRANCH   6  10
BRANCH   1  21
ATOM     20  N   UNL     1       2.759  -2.479  -0.038  0.00  0.00    -0.307 N 
ATOM     21  C   UNL     1       1.487  -2.034  -0.023  0.00  0.00    +0.253 C 
ATOM     22  O   UNL     1       0.564  -2.829  -0.018  0.00  0.00    -0.270 OA
ATOM     23  H   UNL     1       3.494  -1.846  -0.041  0.00  0.00    +0.149 HD
BRANCH  20  24
ATOM     24  C   UNL     1       3.032  -3.918  -0.048  0.00  0.00    +0.143 C 
BRANCH  24  30
ATOM     25  C   UNL     1       5.250  -4.053   1.113  0.00  0.00    +0.125 A 
ATOM     26  C   UNL     1       6.622  -4.265   1.095  0.00  0.00    +0.046 A 
ATOM     27  C   UNL     1       7.257  -4.569  -0.092  0.00  0.00    +0.004 A 
ATOM     28  C   UNL     1       6.528  -4.662  -1.264  0.00  0.00    +0.001 A 
ATOM     29  C   UNL     1       5.161  -4.457  -1.248  0.00  0.00    +0.009 A 
ATOM     30  C   UNL     1       4.521  -4.147  -0.063  0.00  0.00    +0.011 A 
BRANCH  25  32
ATOM     31  C   UNL     1       5.436  -3.673   3.453  0.00  0.00    +0.277 C 
ATOM     32  O   UNL     1       4.623  -3.754   2.281  0.00  0.00    -0.495 OA
ENDBRANCH  25  32
ENDBRANCH  24  30
ENDBRANCH  20  24
ENDBRANCH   1  21
BRANCH   2  33
ATOM     33  N   UNL     1      -1.180  -0.731   0.010  0.00  0.00    -0.356 N 
ATOM     34  H   UNL     1      -2.033  -0.270   0.021  0.00  0.00    +0.142 HD
ATOM     35  H   UNL     1      -1.153  -1.701   0.004  0.00  0.00    +0.142 HD
ENDBRANCH   2  33
TORSDOF 8
