REMARK  Name = ZINC12894994
REMARK  10 active torsions:
REMARK  status: ('A' for Active; 'I' for Inactive)
REMARK    1  A    between atoms: C_1  and  C_2
REMARK    2  A    between atoms: C_2  and  C_4
REMARK    3  A    between atoms: C_2  and  N_54
REMARK    4  A    between atoms: N_6  and  C_7
REMARK    5  A    between atoms: N_6  and  C_8
REMARK    6  A    between atoms: C_8  and  C_14
REMARK    7  A    between atoms: C_16  and  N_54
REMARK    8  A    between atoms: C_17  and  C_18
REMARK    9  A    between atoms: C_17  and  N_54
REMARK   10  A    between atoms: N_20  and  C_21
REMARK                            x       y       z     vdW  Elec       q    Type
REMARK                         _______ _______ _______ _____ _____    ______ ____
ROOT
ATOM      1  C   UNL     1       3.390   0.923   1.628  0.00  0.00    -0.094 C 
ATOM      2  N   UNL     1       3.028   1.532   0.331  0.00  0.00    +0.391 N 
ATOM      3  H   UNL     1       3.001   0.798  -0.386  0.00  0.00    -0.080 HD
ENDROOT
BRANCH   2   5
ATOM      4  C   UNL     1       3.578   3.246  -1.331  0.00  0.00    -0.004 C 
ATOM      5  C   UNL     1       4.038   2.541  -0.053  0.00  0.00    +0.017 C 
BRANCH   5   6
ATOM      6  C   UNL     1       5.349   1.844  -0.308  0.00  0.00    +0.203 C 
ATOM      7  O   UNL     1       5.364   0.669  -0.607  0.00  0.00    -0.277 OA
ATOM      8  N   UNL     1       6.506   2.527  -0.204  0.00  0.00    -0.287 N 
ATOM      9  C   UNL     1       6.497   3.920   0.251  0.00  0.00    +0.133 C 
BRANCH   8  10
ATOM     10  C   UNL     1       7.774   1.877  -0.546  0.00  0.00    +0.123 C 
ATOM     11  C   UNL     1       7.982   0.658   0.355  0.00  0.00    +0.041 C 
ATOM     12  C   UNL     1       9.306  -0.020  -0.002  0.00  0.00    +0.003 C 
ATOM     13  C   UNL     1      10.456   0.967   0.202  0.00  0.00    +0.000 C 
ATOM     14  C   UNL     1      10.249   2.186  -0.699  0.00  0.00    +0.003 C 
ATOM     15  C   UNL     1       8.925   2.865  -0.342  0.00  0.00    +0.041 C 
BRANCH  10  16
ATOM     16  C   UNL     1       7.740   1.446  -1.953  0.00  0.00    +0.089 C 
ATOM     17  N   UNL     1       7.715   1.114  -3.039  0.00  0.00    -0.194 NA
ENDBRANCH  10  16
ENDBRANCH   8  10
ENDBRANCH   5   6
ENDBRANCH   2   5
BRANCH   2  18
ATOM     18  C   UNL     1       1.694   2.162   0.424  0.00  0.00    +0.020 C 
BRANCH  18  19
ATOM     19  C   UNL     1       0.657   1.083   0.597  0.00  0.00    +0.201 C 
ATOM     20  O   UNL     1       0.997  -0.080   0.655  0.00  0.00    -0.278 OA
ATOM     21  N   UNL     1      -0.648   1.409   0.683  0.00  0.00    -0.286 N 
ATOM     22  H   UNL     1      -0.914   2.341   0.709  0.00  0.00    +0.155 HD
BRANCH  21  23
ATOM     23  C   UNL     1      -1.619   0.402   0.734  0.00  0.00    +0.052 A 
ATOM     24  C   UNL     1      -1.333  -0.809   1.350  0.00  0.00    +0.025 A 
ATOM     25  C   UNL     1      -2.296  -1.799   1.404  0.00  0.00    +0.002 A 
ATOM     26  C   UNL     1      -3.539  -1.589   0.836  0.00  0.00    +0.002 A 
ATOM     27  C   UNL     1      -3.825  -0.386   0.217  0.00  0.00    +0.022 A 
ATOM     28  C   UNL     1      -2.869   0.610   0.164  0.00  0.00    +0.062 A 
ATOM     29 CL   UNL     1      -3.228   2.120  -0.614  0.00  0.00    -0.082 Cl
ENDBRANCH  21  23
ENDBRANCH  18  19
ENDBRANCH   2  18
TORSDOF 7
