REMARK  Name = ZINC35375361
REMARK  7 active torsions:
REMARK  status: ('A' for Active; 'I' for Inactive)
REMARK    1  A    between atoms: C_1  and  C_2
REMARK    2  A    between atoms: C_2  and  C_3
REMARK    3  A    between atoms: C_3  and  C_4
REMARK    4  A    between atoms: C_4  and  N_5
REMARK    5  A    between atoms: C_10  and  C_29
REMARK    6  A    between atoms: C_20  and  C_28
REMARK    7  A    between atoms: C_22  and  C_27
REMARK                            x       y       z     vdW  Elec       q    Type
REMARK                         _______ _______ _______ _____ _____    ______ ____
ROOT
ATOM      1  N   UNL     1      -2.787  -2.571   0.015  0.00  0.00    -0.242 N 
ATOM      2  C   UNL     1      -3.457  -2.822   1.145  0.00  0.00    +0.227 C 
ATOM      3  O   UNL     1      -3.023  -2.664   2.266  0.00  0.00    -0.275 OA
ATOM      4  C   UNL     1      -4.840  -3.332   0.808  0.00  0.00    +0.107 C 
ATOM      5  C   UNL     1      -4.944  -4.818   1.213  0.00  0.00    +0.064 C 
ATOM      6  N   UNL     1      -5.582  -5.487   0.048  0.00  0.00    -0.296 NA
ATOM      7  C   UNL     1      -4.982  -4.822  -1.124  0.00  0.00    +0.136 C 
ATOM      8  C   UNL     1      -4.853  -3.326  -0.747  0.00  0.00    +0.122 C 
ATOM      9  C   UNL     1      -3.477  -2.815  -1.106  0.00  0.00    +0.228 C 
ATOM     10  O   UNL     1      -3.061  -2.654  -2.233  0.00  0.00    -0.275 OA
ATOM     11  C   UNL     1      -3.654  -5.427  -1.480  0.00  0.00    +0.004 A 
ATOM     12  C   UNL     1      -2.467  -5.579  -0.799  0.00  0.00    +0.011 A 
ATOM     13  C   UNL     1      -1.391  -6.196  -1.411  0.00  0.00    -0.050 A 
ATOM     14  C   UNL     1      -1.510  -6.660  -2.708  0.00  0.00    +0.008 A 
ATOM     15  C   UNL     1      -2.697  -6.510  -3.395  0.00  0.00    -0.029 A 
ATOM     16  C   UNL     1      -3.785  -5.890  -2.786  0.00  0.00    +0.042 A 
ATOM     17  N   UNL     1      -5.070  -5.625  -3.266  0.00  0.00    -0.283 N 
ATOM     18  C   UNL     1      -5.835  -5.000  -2.351  0.00  0.00    +0.243 C 
ATOM     19  O   UNL     1      -6.988  -4.649  -2.489  0.00  0.00    -0.273 OA
ATOM     20  C   UNL     1      -2.816  -7.019  -4.809  0.00  0.00    +0.045 C 
ATOM     21  C   UNL     1      -0.092  -6.362  -0.666  0.00  0.00    +0.044 C 
ATOM     22  C   UNL     1      -5.815  -4.970   2.461  0.00  0.00    +0.025 C 
ATOM     23  H   UNL     1      -5.383  -6.476   0.045  0.00  0.00    +0.123 HD
ATOM     24  H   UNL     1      -5.375  -5.863  -4.155  0.00  0.00    +0.155 HD
ENDROOT
BRANCH   1  25
ATOM     25  C   UNL     1      -1.413  -2.063   0.004  0.00  0.00    +0.116 C 
BRANCH  25  26
ATOM     26  C   UNL     1      -1.433  -0.534   0.013  0.00  0.00    +0.019 C 
BRANCH  26  28
ATOM     27  C   UNL     1      -0.019   1.526   0.010  0.00  0.00    +0.004 C 
ATOM     28  C   UNL     1       0.002  -0.004   0.002  0.00  0.00    -0.002 C 
ENDBRANCH  26  28
ENDBRANCH  25  26
ENDBRANCH   1  25
TORSDOF 3
