REMARK  Name = ZINC67181000
REMARK  3 active torsions:
REMARK  status: ('A' for Active; 'I' for Inactive)
REMARK    1  A    between atoms: C_1  and  N_2
REMARK    2  A    between atoms: N_7  and  C_8
REMARK    3  A    between atoms: C_8  and  C_10
REMARK                            x       y       z     vdW  Elec       q    Type
REMARK                         _______ _______ _______ _____ _____    ______ ____
ROOT
ATOM      1  C   UNL     1       0.055  -0.549   4.835  0.00  0.00    +0.108 A 
ATOM      2  C   UNL     1       0.033   0.795   5.028  0.00  0.00    +0.082 A 
ATOM      3  C   UNL     1       0.038   1.322   6.344  0.00  0.00    +0.190 A 
ATOM      4  O   UNL     1       0.019   2.525   6.540  0.00  0.00    -0.287 OA
ATOM      5  C   UNL     1       0.068   0.369   7.467  0.00  0.00    +0.045 A 
ATOM      6  C   UNL     1       0.074   0.809   8.792  0.00  0.00    +0.014 A 
ATOM      7  C   UNL     1       0.102  -0.105   9.808  0.00  0.00    +0.001 A 
ATOM      8  C   UNL     1       0.124  -1.466   9.533  0.00  0.00    +0.002 A 
ATOM      9  C   UNL     1       0.118  -1.921   8.233  0.00  0.00    +0.026 A 
ATOM     10  C   UNL     1       0.090  -1.008   7.182  0.00  0.00    +0.051 A 
ATOM     11  N   UNL     1       0.077  -1.433   5.874  0.00  0.00    -0.350 N 
ATOM     12  H   UNL     1       0.088  -2.385   5.685  0.00  0.00    +0.166 HD
ENDROOT
BRANCH   1  13
ATOM     13  C   UNL     1       0.049  -1.074   3.448  0.00  0.00    +0.286 C 
ATOM     14  O   UNL     1       0.064  -2.277   3.251  0.00  0.00    -0.266 OA
BRANCH  13  21
ATOM     15  C   UNL     1      -0.018   1.461   0.010  0.00  0.00    +0.150 C 
ATOM     16  N   UNL     1       0.002  -0.004   0.002  0.00  0.00    -0.331 N 
ATOM     17  C   UNL     1       0.006  -0.688  -1.171  0.00  0.00    +0.094 A 
ATOM     18  C   UNL     1       0.024  -2.025  -1.103  0.00  0.00    +0.066 A 
ATOM     19  S   UNL     1       0.036  -2.304   0.659  0.00  0.00    -0.061 S 
ATOM     20  C   UNL     1       0.023  -0.702   1.170  0.00  0.00    +0.166 A 
ATOM     21  N   UNL     1       0.028  -0.230   2.417  0.00  0.00    -0.151 NA
ENDBRANCH  13  21
ENDBRANCH   1  13
TORSDOF 2
