REMARK  Name = ZINC06143652
REMARK  9 active torsions:
REMARK  status: ('A' for Active; 'I' for Inactive)
REMARK    1  A    between atoms: C_1  and  C_2
REMARK    2  A    between atoms: C_2  and  C_38
REMARK    3  A    between atoms: C_6  and  C_21
REMARK    4  A    between atoms: C_13  and  S_17
REMARK    5  A    between atoms: S_17  and  C_18
REMARK    6  A    between atoms: C_18  and  C_19
REMARK    7  A    between atoms: C_25  and  O_27
REMARK    8  A    between atoms: O_27  and  C_28
REMARK    9  A    between atoms: C_28  and  C_29
REMARK                            x       y       z     vdW  Elec       q    Type
REMARK                         _______ _______ _______ _____ _____    ______ ____
ROOT
ATOM      1  C   UNL     1      -3.683  11.559  -2.607  0.00  0.00    +0.011 C 
ATOM      2  C   UNL     1      -3.863  11.844  -4.099  0.00  0.00    -0.023 C 
ATOM      3  C   UNL     1      -2.666  12.642  -4.619  0.00  0.00    +0.058 C 
ATOM      4  C   UNL     1      -1.403  11.834  -4.442  0.00  0.00    +0.017 C 
ATOM      5  C   UNL     1      -1.428  10.486  -4.496  0.00  0.00    +0.024 C 
ATOM      6  C   UNL     1      -0.170   9.673  -4.322  0.00  0.00    +0.092 C 
ATOM      7  C   UNL     1       1.055  10.515  -4.517  0.00  0.00    +0.069 A 
ATOM      8  C   UNL     1       2.296   9.912  -4.761  0.00  0.00    +0.258 A 
ATOM      9  O   UNL     1       2.397   8.697  -4.818  0.00  0.00    -0.267 OA
ATOM     10  N   UNL     1       3.379  10.700  -4.928  0.00  0.00    -0.302 N 
ATOM     11  H   UNL     1       4.247  10.301  -5.098  0.00  0.00    +0.171 HD
ATOM     12  C   UNL     1       3.256  12.055  -4.859  0.00  0.00    +0.171 A 
ATOM     13  N   UNL     1       2.091  12.627  -4.633  0.00  0.00    -0.208 NA
ATOM     14  C   UNL     1       0.984  11.895  -4.462  0.00  0.00    +0.135 A 
ATOM     15  N   UNL     1      -0.231  12.508  -4.229  0.00  0.00    -0.302 N 
ATOM     16  C   UNL     1      -2.632   9.792  -4.714  0.00  0.00    +0.162 C 
ATOM     17  O   UNL     1      -2.617   8.579  -4.777  0.00  0.00    -0.292 OA
ATOM     18  C   UNL     1      -3.937  10.523  -4.871  0.00  0.00    +0.086 C 
ATOM     19  C   UNL     1      -5.149  12.643  -4.319  0.00  0.00    +0.011 C 
ATOM     20  H   UNL     1      -0.255  13.425  -3.912  0.00  0.00    +0.153 HD
ENDROOT
BRANCH   6  21
ATOM     21  C   UNL     1      -0.149   9.088  -2.933  0.00  0.00    -0.032 A 
ATOM     22  C   UNL     1      -0.151   9.923  -1.831  0.00  0.00    +0.005 A 
ATOM     23  C   UNL     1      -0.131   9.389  -0.556  0.00  0.00    +0.004 A 
ATOM     24  C   UNL     1      -0.111   8.019  -0.380  0.00  0.00    +0.045 A 
ATOM     25  C   UNL     1      -0.110   7.179  -1.484  0.00  0.00    +0.121 A 
ATOM     26  C   UNL     1      -0.124   7.717  -2.763  0.00  0.00    +0.050 A 
BRANCH  25  27
ATOM     27  O   UNL     1      -0.090   5.831  -1.313  0.00  0.00    -0.487 OA
BRANCH  27  28
ATOM     28  C   UNL     1      -0.070   5.347   0.031  0.00  0.00    +0.264 C 
BRANCH  28  29
ATOM     29  C   UNL     1      -0.050   3.840   0.023  0.00  0.00    -0.010 A 
ATOM     30  C   UNL     1       1.156   3.165   0.008  0.00  0.00    +0.007 A 
ATOM     31  C   UNL     1       1.175   1.783   0.000  0.00  0.00    +0.000 A 
ATOM     32  C   UNL     1      -0.013   1.076   0.008  0.00  0.00    +0.000 A 
ATOM     33  C   UNL     1      -1.219   1.751   0.017  0.00  0.00    +0.000 A 
ATOM     34  C   UNL     1      -1.238   3.133   0.030  0.00  0.00    +0.007 A 
ENDBRANCH  28  29
ENDBRANCH  27  28
ENDBRANCH  25  27
ENDBRANCH   6  21
BRANCH  12  35
ATOM     35  S   UNL     1       4.684  13.064  -5.077  0.00  0.00    -0.084 S 
BRANCH  35  36
ATOM     36  C   UNL     1       3.942  14.704  -4.889  0.00  0.00    +0.104 C 
BRANCH  36  37
ATOM     37  C   UNL     1       5.008  15.758  -5.042  0.00  0.00    -0.023 C 
ATOM     38  C   UNL     1       4.964  16.593  -6.050  0.00  0.00    +0.005 C 
ENDBRANCH  36  37
ENDBRANCH  35  36
ENDBRANCH  12  35
TORSDOF 7
