REMARK  Name = ZINC44713687
REMARK  7 active torsions:
REMARK  status: ('A' for Active; 'I' for Inactive)
REMARK    1  A    between atoms: C_1  and  C_2
REMARK    2  A    between atoms: C_3  and  C_9
REMARK    3  A    between atoms: C_4  and  C_8
REMARK    4  A    between atoms: C_9  and  C_11
REMARK    5  A    between atoms: C_9  and  N_12
REMARK    6  A    between atoms: C_13  and  C_15
REMARK    7  A    between atoms: C_26  and  C_28
REMARK                            x       y       z     vdW  Elec       q    Type
REMARK                         _______ _______ _______ _____ _____    ______ ____
ROOT
ATOM      1  C   UNL     1      -2.832  -1.792  -5.745  0.00  0.00    +0.100 C 
ATOM      2  C   UNL     1      -4.008  -1.942  -4.755  0.00  0.00    +0.121 C 
ATOM      3  N   UNL     1      -4.924  -0.827  -5.091  0.00  0.00    -0.296 N 
ATOM      4  C   UNL     1      -4.889  -0.753  -6.571  0.00  0.00    +0.115 C 
ATOM      5  C   UNL     1      -3.415  -1.014  -6.937  0.00  0.00    -0.004 C 
ATOM      6  C   UNL     1      -2.675   0.308  -7.119  0.00  0.00    -0.010 C 
ATOM      7  C   UNL     1      -3.235   1.036  -8.343  0.00  0.00    -0.082 C 
ATOM      8  N   UNL     1      -3.071   0.194  -9.534  0.00  0.00    +0.379 N 
ATOM      9  C   UNL     1      -3.860  -1.036  -9.390  0.00  0.00    -0.082 C 
ATOM     10  C   UNL     1      -3.327  -1.852  -8.209  0.00  0.00    -0.010 C 
ATOM     11  C   UNL     1      -5.630  -0.053  -4.242  0.00  0.00    +0.247 C 
ATOM     12  O   UNL     1      -5.474  -0.169  -3.042  0.00  0.00    -0.270 OA
ATOM     13  H   UNL     1      -3.384   0.700 -10.348  0.00  0.00    -0.086 HD
ATOM     14  H   UNL     1      -2.096  -0.045  -9.644  0.00  0.00    -0.086 HD
ENDROOT
BRANCH  11  15
ATOM     15  C   UNL     1      -6.593   0.936  -4.770  0.00  0.00    +0.037 A 
ATOM     16  C   UNL     1      -7.128   0.769  -6.060  0.00  0.00    +0.013 A 
ATOM     17  C   UNL     1      -8.014   1.663  -6.567  0.00  0.00    +0.009 A 
ATOM     18  C   UNL     1      -8.408   2.775  -5.801  0.00  0.00    -0.018 A 
ATOM     19  C   UNL     1      -9.323   3.715  -6.304  0.00  0.00    +0.008 A 
ATOM     20  C   UNL     1      -9.687   4.780  -5.539  0.00  0.00    +0.001 A 
ATOM     21  C   UNL     1      -9.163   4.957  -4.260  0.00  0.00    +0.001 A 
ATOM     22  C   UNL     1      -8.274   4.069  -3.738  0.00  0.00    +0.008 A 
ATOM     23  C   UNL     1      -7.876   2.955  -4.499  0.00  0.00    -0.017 A 
ATOM     24  C   UNL     1      -6.966   2.017  -3.989  0.00  0.00    +0.021 A 
ENDBRANCH  11  15
BRANCH   1  26
ATOM     25  N   UNL     1      -0.438  -1.211  -5.518  0.00  0.00    -0.308 N 
ATOM     26  C   UNL     1      -1.708  -1.014  -5.111  0.00  0.00    +0.219 C 
ATOM     27  O   UNL     1      -1.946  -0.211  -4.234  0.00  0.00    -0.275 OA
ATOM     28  H   UNL     1      -0.247  -1.853  -6.219  0.00  0.00    +0.149 HD
BRANCH  25  29
ATOM     29  C   UNL     1       0.655  -0.455  -4.901  0.00  0.00    +0.104 C 
ATOM     30  C   UNL     1       0.800   0.896  -5.604  0.00  0.00    +0.033 C 
BRANCH  29  33
ATOM     31  C   UNL     1       1.734  -1.800  -7.511  0.00  0.00    +0.065 C 
ATOM     32  C   UNL     1       2.406  -1.812  -6.162  0.00  0.00    +0.038 A 
ATOM     33  C   UNL     1       1.940  -1.231  -5.033  0.00  0.00    +0.015 A 
ATOM     34  C   UNL     1       2.861  -1.477  -4.009  0.00  0.00    +0.065 A 
ATOM     35  N   UNL     1       3.845  -2.181  -4.506  0.00  0.00    -0.179 NA
ATOM     36  N   UNL     1       3.579  -2.410  -5.862  0.00  0.00    -0.281 N 
ATOM     37  H   UNL     1       4.139  -2.908  -6.478  0.00  0.00    +0.189 HD
ATOM     38  C   UNL     1       2.741  -1.011  -2.581  0.00  0.00    +0.068 C 
ENDBRANCH  29  33
ENDBRANCH  25  29
ENDBRANCH   1  26
TORSDOF 4
