REMARK  Name = ZINC05215213
REMARK  8 active torsions:
REMARK  status: ('A' for Active; 'I' for Inactive)
REMARK    1  A    between atoms: C_1  and  C_2
REMARK    2  A    between atoms: C_7  and  N_12
REMARK    3  A    between atoms: C_9  and  C_11
REMARK    4  A    between atoms: C_15  and  C_19
REMARK    5  A    between atoms: C_15  and  N_23
REMARK    6  A    between atoms: C_24  and  C_26
REMARK    7  A    between atoms: C_26  and  C_27
REMARK    8  A    between atoms: C_27  and  C_28
REMARK                            x       y       z     vdW  Elec       q    Type
REMARK                         _______ _______ _______ _____ _____    ______ ____
ROOT
ATOM      1  N   UNL     1       0.735  -0.503   3.687  0.00  0.00    -0.219 N 
ATOM      2  C   UNL     1       1.271   0.298   4.629  0.00  0.00    +0.274 C 
ATOM      3  O   UNL     1       1.258   1.510   4.653  0.00  0.00    -0.271 OA
ATOM      4  C   UNL     1       1.892  -0.632   5.652  0.00  0.00    +0.278 C 
ATOM      5  N   UNL     1       1.607  -1.974   5.118  0.00  0.00    -0.263 N 
ATOM      6  C   UNL     1       0.924  -1.796   3.973  0.00  0.00    +0.311 C 
ATOM      7  O   UNL     1       0.527  -2.708   3.274  0.00  0.00    -0.252 OA
ATOM      8  H   UNL     1       1.859  -2.822   5.516  0.00  0.00    +0.153 HD
ENDROOT
BRANCH   1  14
ATOM      9  C   UNL     1      -0.019   1.526   0.010  0.00  0.00    +0.008 C 
ATOM     10  C   UNL     1       0.002  -0.004   0.002  0.00  0.00    -0.009 C 
ATOM     11  C   UNL     1      -1.433  -0.534   0.013  0.00  0.00    +0.003 C 
ATOM     12  C   UNL     1      -2.149  -0.040   1.272  0.00  0.00    +0.002 C 
ATOM     13  C   UNL     1      -1.409  -0.547   2.511  0.00  0.00    +0.023 C 
ATOM     14  C   UNL     1       0.026  -0.018   2.500  0.00  0.00    +0.089 C 
ATOM     15  C   UNL     1       0.742  -0.511   1.242  0.00  0.00    +0.010 C 
ATOM     16  C   UNL     1       2.178   0.019   1.231  0.00  0.00    +0.009 C 
ENDBRANCH   1  14
BRANCH   4  17
ATOM     17  C   UNL     1       3.401  -0.399   5.746  0.00  0.00    +0.436 C 
ATOM     18  F   UNL     1       3.646   0.925   6.128  0.00  0.00    -0.166 F 
ATOM     19  F   UNL     1       3.950  -1.267   6.695  0.00  0.00    -0.166 F 
ATOM     20  F   UNL     1       3.988  -0.640   4.499  0.00  0.00    -0.166 F 
ENDBRANCH   4  17
BRANCH   4  21
ATOM     21  N   UNL     1       1.260  -0.453   6.962  0.00  0.00    -0.280 N 
ATOM     22  C   UNL     1       1.300   0.749   7.571  0.00  0.00    +0.215 C 
ATOM     23  O   UNL     1       1.859   1.682   7.036  0.00  0.00    -0.276 OA
ATOM     24  H   UNL     1       0.812  -1.199   7.391  0.00  0.00    +0.151 HD
BRANCH  22  25
ATOM     25  C   UNL     1       0.649   0.932   8.918  0.00  0.00    +0.096 C 
BRANCH  25  26
ATOM     26  C   UNL     1       0.838   2.378   9.383  0.00  0.00    +0.013 C 
BRANCH  26  27
ATOM     27  C   UNL     1       0.178   2.564  10.750  0.00  0.00    -0.011 C 
ATOM     28  C   UNL     1      -1.335   2.377  10.616  0.00  0.00    +0.003 C 
ATOM     29  C   UNL     1      -1.995   2.563  11.984  0.00  0.00    +0.000 C 
ATOM     30  C   UNL     1      -1.700   3.971  12.505  0.00  0.00    +0.000 C 
ATOM     31  C   UNL     1      -0.188   4.159  12.639  0.00  0.00    +0.000 C 
ATOM     32  C   UNL     1       0.473   3.973  11.271  0.00  0.00    +0.003 C 
ENDBRANCH  26  27
ENDBRANCH  25  26
ENDBRANCH  22  25
ENDBRANCH   4  21
TORSDOF 6
