REMARK  Name = ZINC01421346
REMARK  9 active torsions:
REMARK  status: ('A' for Active; 'I' for Inactive)
REMARK    1  A    between atoms: C_1  and  C_2
REMARK    2  A    between atoms: C_2  and  C_3
REMARK    3  A    between atoms: C_3  and  C_25
REMARK    4  A    between atoms: C_4  and  C_23
REMARK    5  A    between atoms: C_4  and  O_24
REMARK    6  A    between atoms: N_5  and  C_9
REMARK    7  A    between atoms: C_9  and  C_10
REMARK    8  A    between atoms: C_10  and  C_11
REMARK    9  A    between atoms: C_12  and  C_22
REMARK                            x       y       z     vdW  Elec       q    Type
REMARK                         _______ _______ _______ _____ _____    ______ ____
ROOT
ATOM      1  C   UNL     1      -0.018   1.461   0.010  0.00  0.00    +0.119 C 
ENDROOT
BRANCH   1   4
ATOM      2  C   UNL     1      -0.511  -2.296  -0.318  0.00  0.00    +0.157 C 
ATOM      3  C   UNL     1      -1.028  -0.870  -0.591  0.00  0.00    +0.175 C 
ATOM      4  N   UNL     1       0.002  -0.004   0.002  0.00  0.00    -0.235 N 
ATOM      5  C   UNL     1       0.965  -0.773   0.529  0.00  0.00    +0.406 C 
ATOM      6  O   UNL     1       1.947  -0.320   1.083  0.00  0.00    -0.226 OA
ATOM      7  O   UNL     1       0.744  -2.086   0.393  0.00  0.00    -0.439 OA
ATOM      8  C   UNL     1      -2.377  -0.648   0.095  0.00  0.00    +0.068 C 
ATOM      9  C   UNL     1      -0.264  -3.038  -1.633  0.00  0.00    +0.060 C 
BRANCH   2  11
ATOM     10  C   UNL     1      -0.964  -4.477   0.813  0.00  0.00    +0.008 C 
ATOM     11  C   UNL     1      -1.500  -3.067   0.557  0.00  0.00    +0.049 C 
ENDBRANCH   2  11
BRANCH   3  12
ATOM     12  O   UNL     1      -1.133  -0.635  -1.997  0.00  0.00    -0.368 OA
ATOM     13  H   UNL     1      -1.393   0.268  -2.226  0.00  0.00    +0.212 HD
ENDBRANCH   3  12
ENDBRANCH   1   4
BRANCH   1  14
ATOM     14  C   UNL     1      -0.734   1.954   1.269  0.00  0.00    +0.056 C 
BRANCH  14  15
ATOM     15  C   UNL     1      -0.754   3.461   1.277  0.00  0.00    -0.018 A 
ATOM     16  C   UNL     1       0.172   4.269   1.817  0.00  0.00    +0.017 A 
ATOM     17  N   UNL     1      -0.183   5.577   1.629  0.00  0.00    -0.356 N 
ATOM     18  H   UNL     1       0.330   6.343   1.930  0.00  0.00    +0.166 HD
ATOM     19  C   UNL     1      -1.382   5.643   0.953  0.00  0.00    +0.083 A 
ATOM     20  C   UNL     1      -1.792   4.321   0.703  0.00  0.00    +0.006 A 
ATOM     21  C   UNL     1      -2.987   4.079   0.024  0.00  0.00    +0.010 A 
ATOM     22  C   UNL     1      -3.755   5.128  -0.396  0.00  0.00    +0.004 A 
ATOM     23  C   UNL     1      -3.357   6.435  -0.153  0.00  0.00    +0.040 A 
ATOM     24  C   UNL     1      -2.179   6.699   0.516  0.00  0.00    +0.147 A 
ATOM     25  F   UNL     1      -1.801   7.975   0.747  0.00  0.00    -0.203 F 
ATOM     26  C   UNL     1       1.419   3.805   2.524  0.00  0.00    +0.063 C 
ENDBRANCH  14  15
ENDBRANCH   1  14
TORSDOF 5
