REMARK  Name = ZINC36365138
REMARK  2 active torsions:
REMARK  status: ('A' for Active; 'I' for Inactive)
REMARK    1  A    between atoms: C_9  and  N_14
REMARK    2  A    between atoms: C_11  and  O_13
REMARK                            x       y       z     vdW  Elec       q    Type
REMARK                         _______ _______ _______ _____ _____    ______ ____
ROOT
ATOM      1  C   UNL     1      -0.017   1.373   0.010  0.00  0.00    +0.000 A 
ATOM      2  C   UNL     1       1.178   2.071   0.002  0.00  0.00    +0.002 A 
ATOM      3  C   UNL     1       2.366   1.387  -0.018  0.00  0.00    +0.028 A 
ATOM      4  C   UNL     1       2.401  -0.025  -0.029  0.00  0.00    +0.071 A 
ATOM      5  C   UNL     1       1.200  -0.715  -0.012  0.00  0.00    -0.022 A 
ATOM      6  C   UNL     1       0.002  -0.004   0.002  0.00  0.00    +0.006 A 
ATOM      7  C   UNL     1       1.071  -2.206   0.008  0.00  0.00    +0.040 C 
ATOM      8  C   UNL     1       2.115  -2.952  -0.764  0.00  0.00    +0.039 C 
ATOM      9  C   UNL     1       3.449  -3.006  -0.061  0.00  0.00    +0.177 C 
ATOM     10  C   UNL     1       4.160  -1.701  -0.109  0.00  0.00    +0.211 C 
ATOM     11  N   UNL     1       3.635  -0.562  -0.062  0.00  0.00    -0.215 NA
ENDROOT
BRANCH   9  12
ATOM     12  N   UNL     1       4.284  -4.024  -0.703  0.00  0.00    -0.286 N 
ATOM     13  C   UNL     1       4.611  -3.915  -2.018  0.00  0.00    +0.203 A 
ATOM     14  N   UNL     1       5.345  -4.781  -2.640  0.00  0.00    -0.236 NA
ATOM     15  C   UNL     1       5.854  -5.890  -2.010  0.00  0.00    +0.085 A 
ATOM     16  C   UNL     1       6.657  -6.907  -2.544  0.00  0.00    +0.036 A 
ATOM     17  C   UNL     1       7.067  -7.929  -1.763  0.00  0.00    +0.048 A 
ATOM     18  S   UNL     1       6.341  -7.532  -0.181  0.00  0.00    -0.090 S 
ATOM     19  C   UNL     1       5.531  -6.026  -0.648  0.00  0.00    +0.102 A 
ATOM     20  C   UNL     1       4.743  -5.081   0.010  0.00  0.00    +0.269 A 
ATOM     21  O   UNL     1       4.471  -5.205   1.192  0.00  0.00    -0.266 OA
ENDBRANCH   9  12
BRANCH  10  22
ATOM     22  O   UNL     1       5.504  -1.746  -0.213  0.00  0.00    -0.494 OA
ATOM     23  H   UNL     1       5.925  -0.876  -0.240  0.00  0.00    +0.293 HD
ENDBRANCH  10  22
TORSDOF 2
