REMARK  Name = ZINC24958227
REMARK  8 active torsions:
REMARK  status: ('A' for Active; 'I' for Inactive)
REMARK    1  A    between atoms: C_1  and  C_2
REMARK    2  A    between atoms: C_5  and  C_29
REMARK    3  A    between atoms: C_6  and  C_8
REMARK    4  A    between atoms: C_8  and  C_10
REMARK    5  A    between atoms: C_8  and  N_11
REMARK    6  A    between atoms: C_12  and  C_14
REMARK    7  A    between atoms: C_14  and  N_15
REMARK    8  A    between atoms: C_23  and  C_25
REMARK                            x       y       z     vdW  Elec       q    Type
REMARK                         _______ _______ _______ _____ _____    ______ ____
ROOT
ATOM      1  C   UNL     1      -4.242  -1.271   4.968  0.00  0.00    +0.213 C 
ENDROOT
BRANCH   1   2
ATOM      2  N   UNL     1      -4.053  -2.624   4.439  0.00  0.00    -0.215 N 
ATOM      3  C   UNL     1      -3.157  -2.946   3.484  0.00  0.00    +0.247 C 
ATOM      4  O   UNL     1      -2.384  -2.201   2.921  0.00  0.00    -0.273 OA
ATOM      5  C   UNL     1      -3.319  -4.433   3.263  0.00  0.00    +0.115 C 
ATOM      6  C   UNL     1      -3.746  -4.714   1.826  0.00  0.00    +0.035 C 
ATOM      7  C   UNL     1      -3.938  -6.221   1.636  0.00  0.00    +0.003 C 
ATOM      8  C   UNL     1      -2.626  -6.944   1.948  0.00  0.00    +0.000 C 
ATOM      9  C   UNL     1      -2.222  -6.670   3.398  0.00  0.00    +0.006 C 
ATOM     10  C   UNL     1      -2.023  -5.165   3.595  0.00  0.00    +0.018 C 
ATOM     11  C   UNL     1      -1.639  -4.888   5.050  0.00  0.00    +0.010 C 
ATOM     12  N   UNL     1      -4.382  -4.819   4.200  0.00  0.00    -0.285 N 
ATOM     13  C   UNL     1      -4.749  -3.694   4.844  0.00  0.00    +0.310 C 
ATOM     14  O   UNL     1      -5.614  -3.655   5.696  0.00  0.00    -0.252 OA
ATOM     15  H   UNL     1      -4.713  -5.866   4.255  0.00  0.00    +0.151 HD
ENDBRANCH   1   2
BRANCH   1  17
ATOM     16  N   UNL     1      -3.333   0.116   6.803  0.00  0.00    -0.307 N 
ATOM     17  C   UNL     1      -3.332  -1.063   6.151  0.00  0.00    +0.231 C 
ATOM     18  O   UNL     1      -2.598  -1.957   6.516  0.00  0.00    -0.274 OA
ATOM     19  H   UNL     1      -3.999   0.927   6.473  0.00  0.00    +0.149 HD
BRANCH  16  20
ATOM     20  C   UNL     1      -2.449   0.319   7.953  0.00  0.00    +0.100 C 
ATOM     21  C   UNL     1      -2.159   1.812   8.118  0.00  0.00    +0.033 C 
BRANCH  20  27
ATOM     22  C   UNL     1      -6.608  -0.895  10.457  0.00  0.00    +0.044 C 
ATOM     23  C   UNL     1      -5.106  -0.784  10.397  0.00  0.00    -0.050 A 
ATOM     24  C   UNL     1      -4.341  -1.162  11.485  0.00  0.00    +0.003 A 
ATOM     25  C   UNL     1      -2.964  -1.060  11.430  0.00  0.00    +0.004 A 
ATOM     26  C   UNL     1      -2.352  -0.582  10.287  0.00  0.00    -0.046 A 
ATOM     27  C   UNL     1      -3.116  -0.204   9.199  0.00  0.00    -0.024 A 
ATOM     28  C   UNL     1      -4.494  -0.300   9.256  0.00  0.00    +0.009 A 
ATOM     29  C   UNL     1      -0.850  -0.471  10.227  0.00  0.00    +0.044 C 
ENDBRANCH  20  27
ENDBRANCH  16  20
ENDBRANCH   1  17
TORSDOF 4
