REMARK  Name = ZINC65496346
REMARK  9 active torsions:
REMARK  status: ('A' for Active; 'I' for Inactive)
REMARK    1  A    between atoms: C_1  and  C_2
REMARK    2  A    between atoms: C_6  and  C_8
REMARK    3  A    between atoms: C_11  and  C_15
REMARK    4  A    between atoms: C_15  and  N_16
REMARK    5  A    between atoms: N_16  and  C_17
REMARK    6  A    between atoms: C_18  and  C_20
REMARK    7  A    between atoms: C_23  and  C_26
REMARK    8  A    between atoms: C_26  and  C_27
REMARK    9  A    between atoms: C_26  and  C_28
REMARK                            x       y       z     vdW  Elec       q    Type
REMARK                         _______ _______ _______ _____ _____    ______ ____
ROOT
ATOM      1  C   UNL     1       3.122  -4.145   1.816  0.00  0.00    +0.180 C 
ATOM      2  N   UNL     1       3.010  -4.304   3.285  0.00  0.00    -0.268 NA
ATOM      3  C   UNL     1       1.566  -4.282   3.595  0.00  0.00    +0.228 C 
ATOM      4  O   UNL     1       0.865  -4.133   2.347  0.00  0.00    -0.278 OA
ATOM      5  N   UNL     1       1.841  -3.496   1.432  0.00  0.00    -0.178 NA
ATOM      6  H   UNL     1       3.432  -5.169   3.589  0.00  0.00    +0.126 HD
ATOM      7  H   UNL     1       1.880  -2.499   1.585  0.00  0.00    +0.156 HD
ENDROOT
BRANCH   1  13
ATOM      8  C   UNL     1       5.245  -0.760  -1.197  0.00  0.00    +0.044 C 
ATOM      9  C   UNL     1       5.307  -1.641   0.024  0.00  0.00    -0.050 A 
ATOM     10  C   UNL     1       6.435  -1.637   0.824  0.00  0.00    +0.003 A 
ATOM     11  C   UNL     1       6.491  -2.446   1.943  0.00  0.00    +0.001 A 
ATOM     12  C   UNL     1       5.419  -3.257   2.264  0.00  0.00    +0.006 A 
ATOM     13  C   UNL     1       4.291  -3.260   1.466  0.00  0.00    -0.014 A 
ATOM     14  C   UNL     1       4.233  -2.449   0.348  0.00  0.00    +0.010 A 
ENDBRANCH   1  13
BRANCH   3  15
ATOM     15  C   UNL     1       1.159  -5.592   4.272  0.00  0.00    +0.157 C 
BRANCH  15  16
ATOM     16  N   UNL     1      -0.243  -5.511   4.689  0.00  0.00    -0.299 N 
ATOM     17  C   UNL     1      -1.297  -6.040   3.820  0.00  0.00    +0.132 C 
ATOM     18  C   UNL     1      -0.563  -4.950   5.872  0.00  0.00    +0.246 C 
ATOM     19  O   UNL     1       0.309  -4.512   6.592  0.00  0.00    -0.273 OA
BRANCH  18  20
ATOM     20  C   UNL     1      -2.006  -4.867   6.301  0.00  0.00    +0.238 C 
ATOM     21  C   UNL     1      -2.685  -3.665   5.668  0.00  0.00    +0.036 C 
ATOM     22  C   UNL     1      -3.053  -2.918   6.711  0.00  0.00    +0.064 C 
ATOM     23  N   UNL     1      -2.688  -3.503   7.873  0.00  0.00    -0.158 NA
ATOM     24  N   UNL     1      -2.105  -4.587   7.743  0.00  0.00    -0.170 NA
BRANCH  22  25
ATOM     25  C   UNL     1      -3.776  -1.600   6.607  0.00  0.00    +0.033 C 
ATOM     26  C   UNL     1      -5.119  -1.696   7.333  0.00  0.00    +0.014 C 
ATOM     27  C   UNL     1      -2.926  -0.500   7.248  0.00  0.00    +0.014 C 
ENDBRANCH  22  25
ENDBRANCH  18  20
ENDBRANCH  15  16
ENDBRANCH   3  15
TORSDOF 5
