REMARK  Name = ZINC14670099
REMARK  11 active torsions:
REMARK  status: ('A' for Active; 'I' for Inactive)
REMARK    1  A    between atoms: C_1  and  C_2
REMARK    2  A    between atoms: C_2  and  C_3
REMARK    3  A    between atoms: C_3  and  C_4
REMARK    4  A    between atoms: C_4  and  N_5
REMARK    5  A    between atoms: C_6  and  N_29
REMARK    6  A    between atoms: C_7  and  N_14
REMARK    7  A    between atoms: N_14  and  C_15
REMARK    8  A    between atoms: C_15  and  C_16
REMARK    9  A    between atoms: C_16  and  C_17
REMARK   10  A    between atoms: C_16  and  C_18
REMARK   11  A    between atoms: C_19  and  C_21
REMARK                            x       y       z     vdW  Elec       q    Type
REMARK                         _______ _______ _______ _____ _____    ______ ____
ROOT
ATOM      1  N   UNL     1      -1.035   3.150  -1.848  0.00  0.00    -0.280 N 
ATOM      2  C   UNL     1       0.180   3.740  -1.589  0.00  0.00    +0.127 A 
ATOM      3  C   UNL     1       0.982   3.221  -0.593  0.00  0.00    +0.140 A 
ATOM      4  C   UNL     1       0.529   2.101   0.130  0.00  0.00    +0.277 A 
ATOM      5  O   UNL     1       1.217   1.622   1.015  0.00  0.00    -0.266 OA
ATOM      6  N   UNL     1      -0.671   1.561  -0.164  0.00  0.00    -0.273 N 
ATOM      7  H   UNL     1      -0.995   0.768   0.351  0.00  0.00    +0.173 HD
ATOM      8  C   UNL     1      -1.436   2.078  -1.142  0.00  0.00    +0.331 A 
ATOM      9  O   UNL     1      -2.512   1.568  -1.389  0.00  0.00    -0.246 OA
ENDROOT
BRANCH   3  10
ATOM     10  N   UNL     1       2.233   3.803  -0.303  0.00  0.00    -0.260 N 
ATOM     11  C   UNL     1       2.309   5.104   0.038  0.00  0.00    +0.253 C 
ATOM     12  O   UNL     1       3.390   5.611   0.271  0.00  0.00    -0.270 OA
BRANCH  11  13
ATOM     13  C   UNL     1       1.078   5.917   0.128  0.00  0.00    +0.057 A 
ATOM     14  C   UNL     1      -0.151   5.302   0.377  0.00  0.00    +0.014 A 
ATOM     15  C   UNL     1      -1.297   6.066   0.461  0.00  0.00    +0.002 A 
ATOM     16  C   UNL     1      -1.232   7.439   0.298  0.00  0.00    +0.021 A 
ATOM     17  C   UNL     1      -0.018   8.056   0.051  0.00  0.00    +0.060 A 
ATOM     18  C   UNL     1       1.139   7.303  -0.029  0.00  0.00    +0.071 A 
ATOM     19 CL   UNL     1       2.662   8.079  -0.332  0.00  0.00    -0.081 Cl
ATOM     20 CL   UNL     1       0.053   9.779  -0.151  0.00  0.00    -0.082 Cl
ENDBRANCH  11  13
BRANCH  10  21
ATOM     21  C   UNL     1       3.452   2.992  -0.372  0.00  0.00    +0.117 C 
BRANCH  21  22
ATOM     22  C   UNL     1       4.009   3.029  -1.797  0.00  0.00    +0.001 C 
ATOM     23  C   UNL     1       5.363   2.318  -1.833  0.00  0.00    +0.009 C 
ATOM     24  C   UNL     1       3.036   2.322  -2.743  0.00  0.00    +0.009 C 
ENDBRANCH  21  22
ENDBRANCH  10  21
ENDBRANCH   3  10
BRANCH   2  25
ATOM     25  N   UNL     1       0.592   4.833  -2.313  0.00  0.00    -0.343 N 
ATOM     26  H   UNL     1       1.482   5.194  -2.183  0.00  0.00    +0.144 HD
ATOM     27  H   UNL     1      -0.009   5.243  -2.955  0.00  0.00    +0.144 HD
ENDBRANCH   2  25
BRANCH   1  28
ATOM     28  C   UNL     1      -1.896   3.691  -2.903  0.00  0.00    +0.128 C 
BRANCH  28  29
ATOM     29  C   UNL     1      -1.568   3.005  -4.230  0.00  0.00    +0.021 C 
BRANCH  29  31
ATOM     30  C   UNL     1      -2.139   2.882  -6.660  0.00  0.00    +0.004 C 
ATOM     31  C   UNL     1      -2.467   3.569  -5.332  0.00  0.00    -0.002 C 
ENDBRANCH  29  31
ENDBRANCH  28  29
ENDBRANCH   1  28
TORSDOF 8
