REMARK  Name = ZINC35317795
REMARK  14 active torsions:
REMARK  status: ('A' for Active; 'I' for Inactive)
REMARK    1  A    between atoms: C_1  and  C_2
REMARK    2  A    between atoms: N_11  and  C_12
REMARK    3  A    between atoms: C_12  and  C_13
REMARK    4  A    between atoms: C_12  and  C_14
REMARK    5  A    between atoms: C_15  and  C_17
REMARK    6  A    between atoms: C_17  and  C_19
REMARK    7  A    between atoms: C_17  and  N_30
REMARK    8  A    between atoms: C_19  and  C_20
REMARK    9  A    between atoms: C_31  and  C_33
REMARK   10  A    between atoms: C_33  and  C_34
REMARK   11  A    between atoms: C_34  and  C_35
REMARK   12  A    between atoms: C_35  and  C_36
REMARK   13  A    between atoms: C_36  and  C_37
REMARK   14  A    between atoms: C_37  and  N_38
REMARK                            x       y       z     vdW  Elec       q    Type
REMARK                         _______ _______ _______ _____ _____    ______ ____
ROOT
ATOM      1  C   UNL     1      -3.619   1.044   2.344  0.00  0.00    +0.163 C 
ENDROOT
BRANCH   1  12
ATOM      2  C   UNL     1      -3.373  -2.654   1.353  0.00  0.00    +0.030 C 
ATOM      3  C   UNL     1      -1.928  -2.280   1.017  0.00  0.00    +0.092 C 
ATOM      4  C   UNL     1      -1.679  -0.810   1.377  0.00  0.00    +0.130 C 
ATOM      5  N   UNL     1      -2.419   0.036   0.430  0.00  0.00    -0.297 N 
ATOM      6  C   UNL     1      -2.185  -0.141  -1.010  0.00  0.00    +0.127 C 
ATOM      7  C   UNL     1      -2.434  -1.611  -1.370  0.00  0.00    +0.128 C 
ATOM      8  N   UNL     1      -1.693  -2.462  -0.422  0.00  0.00    -0.280 N 
ATOM      9  C   UNL     1      -0.815  -3.384  -0.863  0.00  0.00    +0.303 C 
ATOM     10  O   UNL     1      -0.279  -4.139  -0.075  0.00  0.00    -0.253 OA
ATOM     11  N   UNL     1      -0.532  -3.470  -2.178  0.00  0.00    -0.297 N 
ATOM     12  C   UNL     1      -3.296   0.958   0.874  0.00  0.00    +0.236 C 
ATOM     13  O   UNL     1      -3.824   1.719   0.092  0.00  0.00    -0.274 OA
ATOM     14  H   UNL     1      -0.902  -2.822  -2.797  0.00  0.00    +0.150 HD
BRANCH  11  15
ATOM     15  C   UNL     1       0.335  -4.543  -2.672  0.00  0.00    +0.068 C 
ATOM     16  C   UNL     1       0.020  -4.817  -4.144  0.00  0.00    +0.027 C 
ATOM     17  C   UNL     1       1.799  -4.120  -2.534  0.00  0.00    +0.027 C 
ENDBRANCH  11  15
ENDBRANCH   1  12
BRANCH   1  18
ATOM     18  N   UNL     1      -4.735   1.972   2.545  0.00  0.00    -0.304 N 
ATOM     19  C   UNL     1      -5.523   1.853   3.631  0.00  0.00    +0.214 C 
ATOM     20  O   UNL     1      -5.309   0.977   4.442  0.00  0.00    -0.276 OA
ATOM     21  H   UNL     1      -4.906   2.672   1.896  0.00  0.00    +0.149 HD
BRANCH  19  22
ATOM     22  C   UNL     1      -6.670   2.808   3.838  0.00  0.00    +0.096 C 
BRANCH  22  23
ATOM     23  C   UNL     1      -7.399   2.455   5.137  0.00  0.00    +0.009 C 
BRANCH  23  24
ATOM     24  C   UNL     1      -8.564   3.425   5.347  0.00  0.00    -0.001 C 
BRANCH  24  25
ATOM     25  C   UNL     1      -9.293   3.073   6.645  0.00  0.00    -0.020 C 
BRANCH  25  26
ATOM     26  C   UNL     1     -10.458   4.042   6.855  0.00  0.00    -0.086 C 
BRANCH  26  27
ATOM     27  N   UNL     1     -11.157   3.704   8.102  0.00  0.00    +0.378 N 
ATOM     28  H   UNL     1     -11.926   4.343   8.240  0.00  0.00    -0.090 HD
ATOM     29  H   UNL     1     -11.511   2.761   8.044  0.00  0.00    -0.090 HD
ATOM     30  H   UNL     1     -10.516   3.776   8.877  0.00  0.00    -0.090 HD
ENDBRANCH  26  27
ENDBRANCH  25  26
ENDBRANCH  24  25
ENDBRANCH  23  24
ENDBRANCH  22  23
ENDBRANCH  19  22
ENDBRANCH   1  18
BRANCH   1  31
ATOM     31  C   UNL     1      -2.393   1.547   3.108  0.00  0.00    +0.069 C 
BRANCH  31  32
ATOM     32  C   UNL     1      -2.698   1.577   4.583  0.00  0.00    -0.020 A 
ATOM     33  C   UNL     1      -3.134   2.634   5.287  0.00  0.00    +0.087 A 
ATOM     34  N   UNL     1      -3.300   2.284   6.599  0.00  0.00    -0.360 N 
ATOM     35  H   UNL     1      -3.607   2.880   7.300  0.00  0.00    +0.165 HD
ATOM     36  C   UNL     1      -2.967   0.960   6.777  0.00  0.00    +0.047 A 
ATOM     37  C   UNL     1      -2.581   0.457   5.520  0.00  0.00    +0.003 A 
ATOM     38  C   UNL     1      -2.191  -0.877   5.394  0.00  0.00    +0.010 A 
ATOM     39  C   UNL     1      -2.189  -1.691   6.492  0.00  0.00    +0.001 A 
ATOM     40  C   UNL     1      -2.573  -1.201   7.733  0.00  0.00    +0.002 A 
ATOM     41  C   UNL     1      -2.953   0.116   7.882  0.00  0.00    +0.026 A 
ENDBRANCH  31  32
ENDBRANCH   1  31
TORSDOF 11
