REMARK  Name = ZINC35889538
REMARK  7 active torsions:
REMARK  status: ('A' for Active; 'I' for Inactive)
REMARK    1  A    between atoms: C_1  and  C_2
REMARK    2  A    between atoms: C_2  and  C_3
REMARK    3  A    between atoms: C_2  and  N_4
REMARK    4  A    between atoms: N_4  and  C_5
REMARK    5  A    between atoms: C_5  and  C_6
REMARK    6  A    between atoms: C_6  and  N_7
REMARK    7  A    between atoms: C_18  and  C_21
REMARK                            x       y       z     vdW  Elec       q    Type
REMARK                         _______ _______ _______ _____ _____    ______ ____
ROOT
ATOM      1  N   UNL     1       0.580   1.224   5.187  0.00  0.00    -0.316 N 
ATOM      2  C   UNL     1       0.955   0.641   6.373  0.00  0.00    +0.203 A 
ATOM      3  N   UNL     1       2.215   0.342   6.553  0.00  0.00    -0.215 NA
ATOM      4  C   UNL     1       2.663  -0.234   7.697  0.00  0.00    +0.078 A 
ATOM      5  C   UNL     1       4.013  -0.547   7.872  0.00  0.00    +0.028 A 
ATOM      6  C   UNL     1       4.433  -1.131   9.046  0.00  0.00    +0.002 A 
ATOM      7  C   UNL     1       3.530  -1.415  10.062  0.00  0.00    +0.001 A 
ATOM      8  C   UNL     1       2.193  -1.116   9.912  0.00  0.00    +0.014 A 
ATOM      9  C   UNL     1       1.747  -0.524   8.733  0.00  0.00    +0.045 A 
ATOM     10  C   UNL     1       0.337  -0.184   8.518  0.00  0.00    +0.173 A 
ATOM     11  N   UNL     1      -0.004   0.404   7.319  0.00  0.00    -0.246 N 
ATOM     12  C   UNL     1      -1.355   0.617   7.387  0.00  0.00    +0.171 A 
ATOM     13  N   UNL     1      -1.760   0.181   8.562  0.00  0.00    -0.128 NA
ATOM     14  N   UNL     1      -0.764  -0.298   9.223  0.00  0.00    -0.128 NA
ATOM     15  H   UNL     1      -0.333   1.528   5.064  0.00  0.00    +0.149 HD
ENDROOT
BRANCH  12  16
ATOM     16  C   UNL     1      -2.201   1.224   6.338  0.00  0.00    +0.020 A 
ATOM     17  C   UNL     1      -2.178   0.717   5.038  0.00  0.00    +0.011 A 
ATOM     18  C   UNL     1      -2.970   1.288   4.064  0.00  0.00    +0.001 A 
ATOM     19  C   UNL     1      -3.787   2.361   4.373  0.00  0.00    +0.000 A 
ATOM     20  C   UNL     1      -3.816   2.868   5.660  0.00  0.00    +0.001 A 
ATOM     21  C   UNL     1      -3.032   2.304   6.645  0.00  0.00    +0.011 A 
ENDBRANCH  12  16
BRANCH   1  22
ATOM     22  C   UNL     1       1.558   1.385   4.108  0.00  0.00    +0.085 C 
BRANCH  22  23
ATOM     23  C   UNL     1       0.887   2.055   2.908  0.00  0.00    -0.063 C 
BRANCH  23  24
ATOM     24  N   UNL     1       1.868   2.217   1.826  0.00  0.00    +0.382 N 
ATOM     25  H   UNL     1       2.220   1.311   1.553  0.00  0.00    -0.085 HD
ATOM     26  H   UNL     1       2.633   2.791   2.148  0.00  0.00    -0.085 HD
BRANCH  24  28
ATOM     27  C   UNL     1       0.803   4.282   1.053  0.00  0.00    -0.014 C 
ATOM     28  C   UNL     1       1.224   2.861   0.673  0.00  0.00    -0.078 C 
ATOM     29  C   UNL     1       2.210   2.916  -0.496  0.00  0.00    -0.014 C 
ENDBRANCH  24  28
ENDBRANCH  23  24
ENDBRANCH  22  23
ENDBRANCH   1  22
TORSDOF 5
