REMARK  Name = ZINC13202550
REMARK  8 active torsions:
REMARK  status: ('A' for Active; 'I' for Inactive)
REMARK    1  A    between atoms: C_1  and  C_2
REMARK    2  A    between atoms: C_2  and  N_3
REMARK    3  A    between atoms: C_9  and  C_32
REMARK    4  A    between atoms: C_13  and  S_14
REMARK    5  A    between atoms: S_14  and  C_15
REMARK    6  A    between atoms: C_15  and  C_16
REMARK    7  A    between atoms: N_18  and  C_19
REMARK    8  A    between atoms: N_18  and  C_27
REMARK                            x       y       z     vdW  Elec       q    Type
REMARK                         _______ _______ _______ _____ _____    ______ ____
ROOT
ATOM      1  S   UNL     1       2.907  -0.368   0.322  0.00  0.00    -0.078 S 
ENDROOT
BRANCH   1  12
ATOM      2  N   UNL     1       0.689  -0.470  -1.206  0.00  0.00    -0.288 N 
ATOM      3  C   UNL     1      -0.018  -0.689  -2.339  0.00  0.00    +0.262 A 
ATOM      4  O   UNL     1      -1.220  -0.503  -2.377  0.00  0.00    -0.267 OA
ATOM      5  C   UNL     1       0.720  -1.159  -3.522  0.00  0.00    +0.065 A 
ATOM      6  C   UNL     1       0.076  -1.411  -4.733  0.00  0.00    +0.016 A 
ATOM      7  C   UNL     1       0.795  -1.847  -5.809  0.00  0.00    +0.016 A 
ATOM      8  C   UNL     1       2.179  -2.044  -5.709  0.00  0.00    +0.065 A 
ATOM      9  C   UNL     1       2.841  -1.799  -4.511  0.00  0.00    +0.043 A 
ATOM     10  C   UNL     1       2.114  -1.353  -3.404  0.00  0.00    +0.080 A 
ATOM     11  N   UNL     1       2.717  -1.101  -2.218  0.00  0.00    -0.223 NA
ATOM     12  C   UNL     1       2.039  -0.678  -1.180  0.00  0.00    +0.173 A 
BRANCH   8  13
ATOM     13  C   UNL     1       2.940  -2.516  -6.885  0.00  0.00    +0.387 C 
ATOM     14  O   UNL     1       2.362  -2.732  -7.940  0.00  0.00    -0.241 OA
ATOM     15  O   UNL     1       4.148  -2.689  -6.802  0.00  0.00    -0.241 OA
ENDBRANCH   8  13
BRANCH   2  17
ATOM     16  C   UNL     1      -0.018   1.529   0.012  0.00  0.00    +0.027 C 
ATOM     17  C   UNL     1       0.003  -0.001   0.000  0.00  0.00    +0.124 C 
ENDBRANCH   2  17
ENDBRANCH   1  12
BRANCH   1  18
ATOM     18  C   UNL     1       4.632  -0.764  -0.080  0.00  0.00    +0.173 C 
BRANCH  18  19
ATOM     19  C   UNL     1       5.494  -0.539   1.136  0.00  0.00    +0.226 C 
ATOM     20  O   UNL     1       5.012  -0.065   2.142  0.00  0.00    -0.275 OA
ATOM     21  N   UNL     1       6.801  -0.865   1.104  0.00  0.00    -0.293 N 
BRANCH  21  22
ATOM     22  C   UNL     1       7.616  -0.747   2.316  0.00  0.00    +0.099 C 
ATOM     23  C   UNL     1       7.597   0.711   2.803  0.00  0.00    +0.046 C 
ATOM     24  C   UNL     1       8.195   0.750   4.239  0.00  0.00    +0.168 C 
ATOM     25  S   UNL     1       7.436  -0.766   4.961  0.00  0.00    -0.029 S 
ATOM     26  O   UNL     1       6.222  -0.411   5.609  0.00  0.00    -0.174 OA
ATOM     27  O   UNL     1       8.429  -1.482   5.681  0.00  0.00    -0.174 OA
ATOM     28  C   UNL     1       7.042  -1.676   3.413  0.00  0.00    +0.188 C 
ENDBRANCH  21  22
BRANCH  21  29
ATOM     29  C   UNL     1       7.408  -1.338  -0.143  0.00  0.00    +0.076 C 
ATOM     30  C   UNL     1       7.930  -2.778   0.036  0.00  0.00    +0.022 C 
ATOM     31  C   UNL     1       9.241  -2.812  -0.788  0.00  0.00    +0.002 C 
ATOM     32  C   UNL     1       9.848  -1.413  -0.522  0.00  0.00    +0.002 C 
ATOM     33  C   UNL     1       8.628  -0.469  -0.498  0.00  0.00    +0.022 C 
ENDBRANCH  21  29
ENDBRANCH  18  19
ENDBRANCH   1  18
TORSDOF 7
