REMARK  Name = ZINC09835921
REMARK  5 active torsions:
REMARK  status: ('A' for Active; 'I' for Inactive)
REMARK    1  A    between atoms: C_1  and  C_2
REMARK    2  A    between atoms: C_7  and  C_24
REMARK    3  A    between atoms: C_10  and  C_12
REMARK    4  A    between atoms: C_12  and  S_13
REMARK    5  A    between atoms: S_13  and  C_14
REMARK                            x       y       z     vdW  Elec       q    Type
REMARK                         _______ _______ _______ _____ _____    ______ ____
ROOT
ATOM      1  S   UNL     1       1.010   3.830  -4.676  0.00  0.00    -0.077 S 
ENDROOT
BRANCH   1   2
ATOM      2  C   UNL     1       1.743   2.677  -5.787  0.00  0.00    +0.191 A 
ATOM      3  N   UNL     1       2.348   3.122  -6.883  0.00  0.00    -0.207 NA
ATOM      4  C   UNL     1       2.917   2.304  -7.753  0.00  0.00    +0.129 A 
ATOM      5  C   UNL     1       2.884   0.902  -7.515  0.00  0.00    +0.047 A 
ATOM      6  C   UNL     1       3.429  -0.186  -8.309  0.00  0.00    +0.021 A 
ATOM      7  C   UNL     1       3.276  -1.448  -7.883  0.00  0.00    +0.048 A 
ATOM      8  S   UNL     1       2.373  -1.266  -6.357  0.00  0.00    -0.077 S 
ATOM      9  C   UNL     1       2.225   0.501  -6.333  0.00  0.00    +0.114 A 
ATOM     10  N   UNL     1       1.686   1.381  -5.512  0.00  0.00    -0.215 NA
ATOM     11  N   UNL     1       3.537   2.807  -8.882  0.00  0.00    -0.343 N 
ATOM     12  H   UNL     1       3.557   3.764  -9.039  0.00  0.00    +0.144 HD
ATOM     13  H   UNL     1       3.953   2.203  -9.517  0.00  0.00    +0.144 HD
ENDBRANCH   1   2
BRANCH   1  14
ATOM     14  C   UNL     1       0.365   2.694  -3.424  0.00  0.00    +0.173 C 
BRANCH  14  22
ATOM     15  C   UNL     1      -2.188   0.834  -1.147  0.00  0.00    +0.028 C 
ATOM     16  C   UNL     1      -0.760   1.384  -1.153  0.00  0.00    +0.073 C 
ATOM     17  C   UNL     1      -0.053   0.990   0.148  0.00  0.00    +0.022 C 
ATOM     18  C   UNL     1      -0.743   1.677   1.329  0.00  0.00    +0.004 C 
ATOM     19  C   UNL     1      -0.645   3.196   1.165  0.00  0.00    +0.022 C 
ATOM     20  C   UNL     1      -1.359   3.615  -0.124  0.00  0.00    +0.073 C 
ATOM     21  N   UNL     1      -0.797   2.849  -1.246  0.00  0.00    -0.295 N 
ATOM     22  C   UNL     1      -0.325   3.480  -2.339  0.00  0.00    +0.226 C 
ATOM     23  O   UNL     1      -0.457   4.681  -2.451  0.00  0.00    -0.275 OA
ATOM     24  C   UNL     1      -1.146   5.110  -0.366  0.00  0.00    +0.028 C 
ENDBRANCH  14  22
ENDBRANCH   1  14
TORSDOF 3
