REMARK  Name = ZINC28786367
REMARK  11 active torsions:
REMARK  status: ('A' for Active; 'I' for Inactive)
REMARK    1  A    between atoms: C_1  and  C_2
REMARK    2  A    between atoms: C_3  and  C_14
REMARK    3  A    between atoms: C_4  and  C_13
REMARK    4  A    between atoms: C_9  and  S_11
REMARK    5  A    between atoms: S_11  and  C_12
REMARK    6  A    between atoms: C_14  and  C_15
REMARK    7  A    between atoms: N_17  and  C_18
REMARK    8  A    between atoms: C_20  and  C_26
REMARK    9  A    between atoms: C_20  and  C_27
REMARK   10  A    between atoms: C_22  and  C_24
REMARK   11  A    between atoms: C_22  and  C_25
REMARK                            x       y       z     vdW  Elec       q    Type
REMARK                         _______ _______ _______ _____ _____    ______ ____
ROOT
ATOM      1  C   UNL     1      -0.018   1.503   0.010  0.00  0.00    +0.218 C 
ATOM      2  O   UNL     1      -1.077   2.095   0.018  0.00  0.00    -0.275 OA
ATOM      3  N   UNL     1       1.139   2.192   0.003  0.00  0.00    -0.312 N 
ATOM      4  H   UNL     1       2.099   1.655  -0.009  0.00  0.00    +0.149 HD
ENDROOT
BRANCH   3   5
ATOM      5  C   UNL     1       1.120   3.661   0.011  0.00  0.00    +0.070 C 
ATOM      6  C   UNL     1       1.009   4.170  -1.426  0.00  0.00    +0.009 C 
ATOM      7  C   UNL     1       1.010   5.697  -1.450  0.00  0.00    -0.072 C 
ATOM      8  N   UNL     1       2.083   6.275  -0.669  0.00  0.00    +0.386 N 
ATOM      9  C   UNL     1       2.442   5.705   0.613  0.00  0.00    -0.072 C 
ATOM     10  C   UNL     1       2.426   4.178   0.611  0.00  0.00    +0.009 C 
ATOM     11  C   UNL     1       1.526   6.226   1.727  0.00  0.00    -0.010 C 
ATOM     12  C   UNL     1       3.880   6.155   0.956  0.00  0.00    -0.010 C 
ATOM     13  C   UNL     1      -0.356   6.217  -0.985  0.00  0.00    -0.010 C 
ATOM     14  C   UNL     1       1.190   6.139  -2.919  0.00  0.00    -0.010 C 
ATOM     15  H   UNL     1       3.019   6.235  -1.246  0.00  0.00    -0.084 HD
ATOM     16  H   UNL     1       1.843   7.322  -0.433  0.00  0.00    -0.084 HD
ENDBRANCH   3   5
BRANCH   1  17
ATOM     17  C   UNL     1       0.002  -0.004   0.002  0.00  0.00    +0.134 C 
BRANCH  17  20
ATOM     18  C   UNL     1      -1.346  -0.537   2.528  0.00  0.00    +0.066 C 
ATOM     19  C   UNL     1      -2.062  -0.783   1.225  0.00  0.00    +0.047 A 
ATOM     20  C   UNL     1      -1.412  -0.526   0.013  0.00  0.00    +0.004 A 
ATOM     21  C   UNL     1      -2.068  -0.757  -1.155  0.00  0.00    +0.049 A 
ATOM     22  N   UNL     1      -3.341  -1.228  -1.113  0.00  0.00    -0.200 N 
ATOM     23  C   UNL     1      -3.950  -1.463   0.087  0.00  0.00    +0.254 A 
ATOM     24  N   UNL     1      -3.297  -1.233   1.232  0.00  0.00    -0.216 NA
ATOM     25  N   UNL     1      -5.175  -1.911  -0.170  0.00  0.00    -0.183 NA
ATOM     26  C   UNL     1      -5.364  -1.969  -1.486  0.00  0.00    +0.211 A 
ATOM     27  N   UNL     1      -4.273  -1.562  -2.105  0.00  0.00    -0.137 NA
ATOM     28  C   UNL     1      -1.392  -0.497  -2.476  0.00  0.00    +0.066 C 
BRANCH  26  29
ATOM     29  S   UNL     1      -6.843  -2.506  -2.280  0.00  0.00    -0.088 S 
ATOM     30  C   UNL     1      -7.950  -2.926  -0.905  0.00  0.00    +0.093 C 
ENDBRANCH  26  29
ENDBRANCH  17  20
ENDBRANCH   1  17
TORSDOF 4
