REMARK  Name = ZINC32943577
REMARK  5 active torsions:
REMARK  status: ('A' for Active; 'I' for Inactive)
REMARK    1  A    between atoms: C_3  and  S_26
REMARK    2  A    between atoms: C_6  and  N_7
REMARK    3  A    between atoms: C_13  and  S_18
REMARK    4  A    between atoms: S_18  and  N_21
REMARK    5  A    between atoms: S_26  and  N_29
REMARK                            x       y       z     vdW  Elec       q    Type
REMARK                         _______ _______ _______ _____ _____    ______ ____
ROOT
ATOM      1  N   UNL     1      -4.597   2.697   6.463  0.00  0.00    -0.299 N 
ATOM      2  C   UNL     1      -4.082   2.402   5.209  0.00  0.00    +0.124 A 
ATOM      3  C   UNL     1      -4.465   1.213   4.573  0.00  0.00    +0.044 A 
ATOM      4  C   UNL     1      -3.967   0.910   3.342  0.00  0.00    +0.013 A 
ATOM      5  C   UNL     1      -3.071   1.819   2.742  0.00  0.00    +0.002 A 
ATOM      6  C   UNL     1      -2.520   1.569   1.475  0.00  0.00    +0.038 A 
ATOM      7  C   UNL     1      -1.658   2.470   0.927  0.00  0.00    +0.106 A 
ATOM      8  C   UNL     1      -1.310   3.633   1.609  0.00  0.00    +0.030 A 
ATOM      9  C   UNL     1      -1.831   3.909   2.836  0.00  0.00    +0.030 A 
ATOM     10  C   UNL     1      -2.724   3.004   3.435  0.00  0.00    +0.073 A 
ATOM     11  N   UNL     1      -3.245   3.247   4.643  0.00  0.00    -0.232 NA
ATOM     12  H   UNL     1      -4.208   3.556   7.030  0.00  0.00    +0.154 HD
ENDROOT
BRANCH   1  18
ATOM     13  C   UNL     1      -6.671   1.488   6.213  0.00  0.00    +0.025 A 
ATOM     14  C   UNL     1      -7.668   0.698   6.752  0.00  0.00    +0.030 A 
ATOM     15  C   UNL     1      -7.615   0.329   8.084  0.00  0.00    +0.105 A 
ATOM     16  C   UNL     1      -6.563   0.744   8.879  0.00  0.00    +0.030 A 
ATOM     17  C   UNL     1      -5.560   1.529   8.344  0.00  0.00    +0.025 A 
ATOM     18  C   UNL     1      -5.610   1.902   7.007  0.00  0.00    +0.032 A 
BRANCH  15  19
ATOM     19  S   UNL     1      -8.892  -0.673   8.769  0.00  0.00    +0.056 S 
ATOM     20  O   UNL     1      -9.479  -1.381   7.686  0.00  0.00    -0.153 OA
ATOM     21  O   UNL     1      -8.330  -1.333   9.895  0.00  0.00    -0.153 OA
BRANCH  19  22
ATOM     22  N   UNL     1     -10.057   0.349   9.353  0.00  0.00    -0.204 NA
ATOM     23  H   UNL     1     -10.876  -0.240   9.791  0.00  0.00    +0.144 HD
ATOM     24  H   UNL     1     -10.448   0.966   8.531  0.00  0.00    +0.144 HD
ENDBRANCH  19  22
ENDBRANCH  15  19
ENDBRANCH   1  18
BRANCH   7  25
ATOM     25  S   UNL     1      -0.967   2.154  -0.663  0.00  0.00    +0.061 S 
ATOM     26  O   UNL     1      -1.014   0.747  -0.855  0.00  0.00    -0.153 OA
ATOM     27  O   UNL     1       0.246   2.893  -0.733  0.00  0.00    -0.153 OA
BRANCH  25  28
ATOM     28  N   UNL     1      -1.990   2.819  -1.782  0.00  0.00    -0.177 NA
ATOM     29  C   UNL     1      -3.120   2.132  -2.425  0.00  0.00    +0.109 C 
ATOM     30  C   UNL     1      -3.766   3.132  -3.407  0.00  0.00    +0.018 C 
ATOM     31  C   UNL     1      -2.615   4.135  -3.685  0.00  0.00    +0.018 C 
ATOM     32  C   UNL     1      -1.915   4.196  -2.304  0.00  0.00    +0.109 C 
ENDBRANCH  25  28
ENDBRANCH   7  25
TORSDOF 5
