REMARK  Name = ZINC63592270
REMARK  6 active torsions:
REMARK  status: ('A' for Active; 'I' for Inactive)
REMARK    1  A    between atoms: C_1  and  C_2
REMARK    2  A    between atoms: C_2  and  C_3
REMARK    3  A    between atoms: C_2  and  C_4
REMARK    4  A    between atoms: C_4  and  C_5
REMARK    5  A    between atoms: C_7  and  C_10
REMARK    6  A    between atoms: C_10  and  N_12
REMARK                            x       y       z     vdW  Elec       q    Type
REMARK                         _______ _______ _______ _____ _____    ______ ____
ROOT
ATOM      1  C   UNL     1      -1.314  -5.287   1.509  0.00  0.00    +0.289 C 
ATOM      2  O   UNL     1      -1.308  -6.456   1.161  0.00  0.00    -0.266 OA
ENDROOT
BRANCH   1   3
ATOM      3  N   UNL     1      -1.275  -4.977   2.807  0.00  0.00    -0.140 NA
ATOM      4  C   UNL     1      -1.230  -5.945   3.723  0.00  0.00    +0.223 A 
ATOM      5  N   UNL     1      -1.212  -7.271   3.479  0.00  0.00    -0.246 N 
ATOM      6  N   UNL     1      -1.163  -7.930   4.715  0.00  0.00    -0.153 NA
ATOM      7  C   UNL     1      -1.152  -7.022   5.664  0.00  0.00    +0.160 A 
ATOM      8  N   UNL     1      -1.186  -5.774   5.076  0.00  0.00    -0.271 N 
ATOM      9  C   UNL     1      -1.177  -4.645   5.857  0.00  0.00    +0.096 A 
ATOM     10  C   UNL     1      -1.130  -4.739   7.199  0.00  0.00    +0.018 A 
ATOM     11  C   UNL     1      -1.091  -5.999   7.827  0.00  0.00    +0.005 A 
ATOM     12  C   UNL     1      -1.108  -7.128   7.077  0.00  0.00    +0.048 A 
ATOM     13  H   UNL     1      -1.231  -7.693   2.606  0.00  0.00    +0.192 HD
ENDBRANCH   1   3
BRANCH   1  16
ATOM     14  C   UNL     1      -1.416  -2.035  -0.119  0.00  0.00    +0.079 A 
ATOM     15  N   UNL     1      -1.371  -2.928   0.833  0.00  0.00    -0.239 NA
ATOM     16  C   UNL     1      -1.364  -4.214   0.495  0.00  0.00    +0.135 A 
ATOM     17  C   UNL     1      -1.405  -4.488  -0.844  0.00  0.00    +0.080 A 
ATOM     18  S   UNL     1      -1.457  -2.953  -1.524  0.00  0.00    -0.080 S 
BRANCH  14  19
ATOM     19  C   UNL     1      -1.433  -0.534   0.013  0.00  0.00    +0.066 C 
BRANCH  19  21
ATOM     20  C   UNL     1      -0.019   1.526   0.010  0.00  0.00    +0.007 C 
ATOM     21  C   UNL     1       0.002  -0.004   0.002  0.00  0.00    -0.011 C 
ATOM     22  C   UNL     1       0.742  -0.511   1.242  0.00  0.00    +0.007 C 
ENDBRANCH  19  21
ENDBRANCH  14  19
ENDBRANCH   1  16
TORSDOF 4
