REMARK  Name = ZINC59739179
REMARK  6 active torsions:
REMARK  status: ('A' for Active; 'I' for Inactive)
REMARK    1  A    between atoms: C_1  and  C_2
REMARK    2  A    between atoms: C_2  and  C_3
REMARK    3  A    between atoms: C_2  and  O_4
REMARK    4  A    between atoms: O_4  and  C_5
REMARK    5  A    between atoms: C_10  and  C_11
REMARK    6  A    between atoms: C_11  and  N_12
REMARK                            x       y       z     vdW  Elec       q    Type
REMARK                         _______ _______ _______ _____ _____    ______ ____
ROOT
ATOM      1  N   UNL     1      -4.478  -0.314  -1.060  0.00  0.00    -0.198 N 
ATOM      2  C   UNL     1      -5.331  -0.448  -2.169  0.00  0.00    +0.061 A 
ATOM      3  C   UNL     1      -5.922  -1.612  -2.656  0.00  0.00    +0.025 A 
ATOM      4  C   UNL     1      -6.747  -1.577  -3.773  0.00  0.00    +0.002 A 
ATOM      5  C   UNL     1      -7.020  -0.422  -4.445  0.00  0.00    +0.009 A 
ATOM      6  C   UNL     1      -6.447   0.778  -3.991  0.00  0.00    -0.014 A 
ATOM      7  C   UNL     1      -5.611   0.731  -2.856  0.00  0.00    +0.031 A 
ATOM      8  C   UNL     1      -5.020   1.905  -2.374  0.00  0.00    +0.118 A 
ATOM      9  C   UNL     1      -5.243   3.083  -2.985  0.00  0.00    +0.029 A 
ATOM     10  C   UNL     1      -6.073   3.140  -4.111  0.00  0.00    +0.003 A 
ATOM     11  C   UNL     1      -6.665   2.018  -4.612  0.00  0.00    +0.009 A 
ATOM     12  S   UNL     1      -4.104   1.319  -0.978  0.00  0.00    +0.076 S 
ATOM     13  O   UNL     1      -2.722   1.462  -1.277  0.00  0.00    -0.150 OA
ATOM     14  O   UNL     1      -4.712   1.844   0.194  0.00  0.00    -0.150 OA
ENDROOT
BRANCH   1  15
ATOM     15  C   UNL     1      -4.018  -1.376  -0.162  0.00  0.00    +0.170 C 
BRANCH  15  21
ATOM     16  C   UNL     1      -1.551  -1.480  -0.596  0.00  0.00    +0.126 A 
ATOM     17  C   UNL     1      -0.436  -2.103  -1.139  0.00  0.00    +0.046 A 
ATOM     18  C   UNL     1      -0.581  -3.282  -1.843  0.00  0.00    +0.004 A 
ATOM     19  C   UNL     1      -1.834  -3.842  -2.007  0.00  0.00    +0.001 A 
ATOM     20  C   UNL     1      -2.946  -3.224  -1.466  0.00  0.00    +0.009 A 
ATOM     21  C   UNL     1      -2.806  -2.046  -0.756  0.00  0.00    +0.013 A 
BRANCH  16  22
ATOM     22  O   UNL     1      -1.411  -0.319   0.098  0.00  0.00    -0.489 OA
BRANCH  22  24
ATOM     23  C   UNL     1      -0.203   1.747   0.429  0.00  0.00    +0.051 C 
ATOM     24  C   UNL     1      -0.100   0.244   0.162  0.00  0.00    +0.167 C 
ATOM     25  C   UNL     1       0.687  -0.422   1.292  0.00  0.00    +0.051 C 
ENDBRANCH  22  24
ENDBRANCH  16  22
ENDBRANCH  15  21
ENDBRANCH   1  15
TORSDOF 4
