REMARK  Name = ZINC39695808
REMARK  7 active torsions:
REMARK  status: ('A' for Active; 'I' for Inactive)
REMARK    1  A    between atoms: C_1  and  C_2
REMARK    2  A    between atoms: C_9  and  C_11
REMARK    3  A    between atoms: C_11  and  C_13
REMARK    4  A    between atoms: C_11  and  N_14
REMARK    5  A    between atoms: C_15  and  C_17
REMARK    6  A    between atoms: C_28  and  C_30
REMARK    7  A    between atoms: C_35  and  C_36
REMARK                            x       y       z     vdW  Elec       q    Type
REMARK                         _______ _______ _______ _____ _____    ______ ____
ROOT
ATOM      1  C   UNL     1       2.551  -8.733   0.655  0.00  0.00    +0.100 C 
ATOM      2  C   UNL     1       1.281  -9.322   0.001  0.00  0.00    +0.121 C 
ATOM      3  N   UNL     1       1.500 -10.788   0.013  0.00  0.00    -0.296 N 
ATOM      4  C   UNL     1       2.145 -11.053   1.321  0.00  0.00    +0.115 C 
ATOM      5  C   UNL     1       3.114  -9.872   1.521  0.00  0.00    -0.004 C 
ATOM      6  C   UNL     1       3.142  -9.455   2.989  0.00  0.00    -0.010 C 
ATOM      7  C   UNL     1       3.760 -10.582   3.823  0.00  0.00    -0.082 C 
ATOM      8  N   UNL     1       5.121 -10.857   3.345  0.00  0.00    +0.379 N 
ATOM      9  C   UNL     1       5.076 -11.346   1.962  0.00  0.00    -0.082 C 
ATOM     10  C   UNL     1       4.514 -10.252   1.049  0.00  0.00    -0.010 C 
ATOM     11  C   UNL     1       1.184 -11.678  -0.948  0.00  0.00    +0.247 C 
ATOM     12  O   UNL     1       1.338 -12.867  -0.750  0.00  0.00    -0.270 OA
ATOM     13  H   UNL     1       5.667 -10.009   3.384  0.00  0.00    -0.086 HD
ATOM     14  H   UNL     1       5.547 -11.556   3.934  0.00  0.00    -0.086 HD
ENDROOT
BRANCH  11  15
ATOM     15  C   UNL     1       0.649 -11.208  -2.244  0.00  0.00    +0.043 A 
ATOM     16  C   UNL     1      -0.203 -10.103  -2.291  0.00  0.00    +0.051 A 
ATOM     17  C   UNL     1      -0.698  -9.669  -3.506  0.00  0.00    +0.124 A 
ATOM     18  C   UNL     1      -0.350 -10.329  -4.674  0.00  0.00    +0.038 A 
ATOM     19  C   UNL     1       0.494 -11.424  -4.632  0.00  0.00    +0.007 A 
ATOM     20  C   UNL     1       0.999 -11.863  -3.425  0.00  0.00    -0.038 A 
ATOM     21  C   UNL     1       1.923 -13.053  -3.383  0.00  0.00    +0.044 C 
ATOM     22  F   UNL     1      -1.523  -8.601  -3.555  0.00  0.00    -0.205 F 
ENDBRANCH  11  15
BRANCH   1  24
ATOM     23  N   UNL     1       3.100  -6.566   1.715  0.00  0.00    -0.305 N 
ATOM     24  C   UNL     1       2.197  -7.546   1.514  0.00  0.00    +0.219 C 
ATOM     25  O   UNL     1       1.099  -7.473   2.025  0.00  0.00    -0.275 OA
ATOM     26  H   UNL     1       3.978  -6.624   1.306  0.00  0.00    +0.149 HD
BRANCH  23  27
ATOM     27  C   UNL     1       2.755  -5.412   2.550  0.00  0.00    +0.136 C 
ATOM     28  C   UNL     1       2.027  -4.368   1.701  0.00  0.00    +0.036 C 
BRANCH  27  37
ATOM     29  C   UNL     1       8.174  -1.985   6.328  0.00  0.00    +0.044 C 
ATOM     30  C   UNL     1       7.437  -2.783   5.284  0.00  0.00    -0.048 A 
ATOM     31  C   UNL     1       8.131  -3.321   4.209  0.00  0.00    +0.005 A 
ATOM     32  C   UNL     1       7.481  -4.047   3.252  0.00  0.00    +0.030 A 
ATOM     33  C   UNL     1       6.102  -4.254   3.352  0.00  0.00    +0.089 A 
ATOM     34  C   UNL     1       5.399  -3.711   4.440  0.00  0.00    +0.067 A 
ATOM     35  C   UNL     1       6.077  -2.979   5.405  0.00  0.00    +0.031 A 
ATOM     36  N   UNL     1       4.080  -4.079   4.264  0.00  0.00    -0.340 N 
ATOM     37  C   UNL     1       4.014  -4.810   3.118  0.00  0.00    +0.128 A 
ATOM     38  N   UNL     1       5.196  -4.912   2.584  0.00  0.00    -0.231 NA
ATOM     39  H   UNL     1       3.338  -3.859   4.848  0.00  0.00    +0.167 HD
ENDBRANCH  27  37
ENDBRANCH  23  27
ENDBRANCH   1  24
TORSDOF 4
