REMARK  Name = ZINC02918543
REMARK  8 active torsions:
REMARK  status: ('A' for Active; 'I' for Inactive)
REMARK    1  A    between atoms: C_1  and  C_2
REMARK    2  A    between atoms: C_2  and  O_3
REMARK    3  A    between atoms: O_3  and  C_4
REMARK    4  A    between atoms: C_6  and  C_14
REMARK    5  A    between atoms: C_9  and  O_10
REMARK    6  A    between atoms: O_10  and  C_11
REMARK    7  A    between atoms: C_17  and  C_29
REMARK    8  A    between atoms: C_33  and  C_35
REMARK                            x       y       z     vdW  Elec       q    Type
REMARK                         _______ _______ _______ _____ _____    ______ ____
ROOT
ATOM      1  C   UNL     1      -3.095   0.004   0.041  0.00  0.00    +0.122 C 
ATOM      2  C   UNL     1      -4.548   0.061   0.526  0.00  0.00    +0.057 C 
ATOM      3  C   UNL     1      -5.309   1.146  -0.246  0.00  0.00    +0.106 C 
ATOM      4  N   UNL     1      -4.697   2.454   0.052  0.00  0.00    -0.309 N 
ATOM      5  C   UNL     1      -3.310   2.501   0.045  0.00  0.00    +0.175 A 
ATOM      6  N   UNL     1      -2.545   1.362   0.036  0.00  0.00    -0.306 N 
ATOM      7  C   UNL     1      -1.223   1.753   0.017  0.00  0.00    +0.069 A 
ATOM      8  C   UNL     1      -0.013   1.076   0.008  0.00  0.00    +0.028 A 
ATOM      9  C   UNL     1       1.172   1.782   0.000  0.00  0.00    +0.002 A 
ATOM     10  C   UNL     1       1.164   3.169   0.008  0.00  0.00    +0.002 A 
ATOM     11  C   UNL     1      -0.027   3.859   0.023  0.00  0.00    +0.028 A 
ATOM     12  C   UNL     1      -1.236   3.160   0.031  0.00  0.00    +0.065 A 
ATOM     13  N   UNL     1      -2.539   3.551   0.044  0.00  0.00    -0.327 N 
ATOM     14  H   UNL     1      -5.335   3.324   0.265  0.00  0.00    +0.149 HD
ATOM     15  H   UNL     1      -2.982   4.558   0.053  0.00  0.00    +0.169 HD
ENDROOT
BRANCH   3  16
ATOM     16  C   UNL     1      -6.754   1.155   0.179  0.00  0.00    -0.027 A 
ATOM     17  C   UNL     1      -7.122   1.765   1.364  0.00  0.00    +0.005 A 
ATOM     18  C   UNL     1      -8.449   1.777   1.752  0.00  0.00    +0.001 A 
ATOM     19  C   UNL     1      -9.406   1.171   0.960  0.00  0.00    +0.003 A 
ATOM     20  C   UNL     1      -9.037   0.556  -0.221  0.00  0.00    -0.050 A 
ATOM     21  C   UNL     1      -7.711   0.547  -0.612  0.00  0.00    +0.008 A 
ATOM     22  C   UNL     1     -10.081  -0.105  -1.084  0.00  0.00    +0.044 C 
ENDBRANCH   3  16
BRANCH   1  25
ATOM     23  C   UNL     1      -0.911  -2.794   1.335  0.00  0.00    +0.162 A 
ATOM     24  C   UNL     1      -1.655  -1.994   0.482  0.00  0.00    +0.055 A 
ATOM     25  C   UNL     1      -2.287  -0.865   0.970  0.00  0.00    -0.021 A 
ATOM     26  C   UNL     1      -2.174  -0.528   2.306  0.00  0.00    +0.009 A 
ATOM     27  C   UNL     1      -1.438  -1.325   3.163  0.00  0.00    +0.050 A 
ATOM     28  C   UNL     1      -0.802  -2.458   2.681  0.00  0.00    +0.168 A 
BRANCH  23  29
ATOM     29  O   UNL     1      -0.289  -3.905   0.857  0.00  0.00    -0.489 OA
BRANCH  29  31
ATOM     30  C   UNL     1       0.321  -5.465  -0.884  0.00  0.00    +0.048 C 
ATOM     31  C   UNL     1      -0.444  -4.187  -0.535  0.00  0.00    +0.226 C 
ENDBRANCH  29  31
ENDBRANCH  23  29
BRANCH  28  32
ATOM     32  O   UNL     1      -0.073  -3.240   3.522  0.00  0.00    -0.431 OA
BRANCH  32  33
ATOM     33  C   UNL     1      -0.006  -2.834   4.890  0.00  0.00    +0.541 C 
ATOM     34  F   UNL     1       0.566  -1.560   4.971  0.00  0.00    -0.166 F 
ATOM     35  F   UNL     1      -1.296  -2.802   5.431  0.00  0.00    -0.166 F 
ENDBRANCH  32  33
ENDBRANCH  28  32
ENDBRANCH   1  25
TORSDOF 6
