REMARK  Name = ZINC03764671
REMARK  10 active torsions:
REMARK  status: ('A' for Active; 'I' for Inactive)
REMARK    1  A    between atoms: C_1  and  C_2
REMARK    2  A    between atoms: C_5  and  N_9
REMARK    3  A    between atoms: C_6  and  C_8
REMARK    4  A    between atoms: C_10  and  C_12
REMARK    5  A    between atoms: C_18  and  C_19
REMARK    6  A    between atoms: C_19  and  O_21
REMARK    7  A    between atoms: O_21  and  C_22
REMARK    8  A    between atoms: C_24  and  N_35
REMARK    9  A    between atoms: C_25  and  C_33
REMARK   10  A    between atoms: C_26  and  C_28
REMARK                            x       y       z     vdW  Elec       q    Type
REMARK                         _______ _______ _______ _____ _____    ______ ____
ROOT
ATOM      1  C   UNL     1       0.601  -0.456  -1.335  0.00  0.00    +0.058 C 
ATOM      2  C   UNL     1       1.702  -1.248  -1.342  0.00  0.00    +0.099 A 
ATOM      3  N   UNL     1       2.381  -1.647  -0.208  0.00  0.00    -0.257 N 
ATOM      4  C   UNL     1       3.462  -2.437  -0.368  0.00  0.00    +0.272 A 
ATOM      5  O   UNL     1       4.102  -2.822   0.590  0.00  0.00    -0.266 OA
ATOM      6  C   UNL     1       3.846  -2.820  -1.747  0.00  0.00    +0.086 A 
ATOM      7  C   UNL     1       4.879  -3.595  -2.171  0.00  0.00    +0.112 C 
ATOM      8  S   UNL     1       2.586  -1.989  -2.700  0.00  0.00    -0.065 S 
ATOM      9  C   UNL     1       1.924  -1.222   1.045  0.00  0.00    +0.119 C 
ATOM     10  C   UNL     1       0.842  -0.431   1.220  0.00  0.00    +0.080 C 
ATOM     11  C   UNL     1       0.071   0.029  -0.001  0.00  0.00    +0.107 C 
ENDROOT
BRANCH  11  12
ATOM     12  C   UNL     1       0.065   1.536  -0.015  0.00  0.00    +0.003 A 
ATOM     13  C   UNL     1      -0.990   2.385   0.014  0.00  0.00    +0.012 A 
ATOM     14  C   UNL     1      -0.755   3.748  -0.003  0.00  0.00    +0.008 A 
ATOM     15  C   UNL     1       0.524   4.193  -0.060  0.00  0.00    +0.045 A 
ATOM     16  S   UNL     1       1.446   2.664  -0.083  0.00  0.00    -0.101 S 
ENDBRANCH  11  12
BRANCH   1  18
ATOM     17  N   UNL     1      -1.128   0.695  -2.512  0.00  0.00    -0.281 N 
ATOM     18  C   UNL     1      -0.035  -0.093  -2.538  0.00  0.00    +0.248 C 
ATOM     19  O   UNL     1       0.404  -0.491  -3.603  0.00  0.00    -0.270 OA
ATOM     20  H   UNL     1      -1.446   1.055  -1.670  0.00  0.00    +0.155 HD
BRANCH  17  25
ATOM     21  C   UNL     1      -3.870   1.901  -7.328  0.00  0.00    +0.044 C 
ATOM     22  C   UNL     1      -3.142   1.581  -6.049  0.00  0.00    -0.050 A 
ATOM     23  C   UNL     1      -1.800   1.248  -6.084  0.00  0.00    +0.005 A 
ATOM     24  C   UNL     1      -1.128   0.959  -4.912  0.00  0.00    +0.024 A 
ATOM     25  C   UNL     1      -1.804   0.992  -3.699  0.00  0.00    +0.037 A 
ATOM     26  C   UNL     1      -3.151   1.326  -3.668  0.00  0.00    -0.029 A 
ATOM     27  C   UNL     1      -3.816   1.619  -4.843  0.00  0.00    +0.008 A 
ATOM     28  C   UNL     1      -3.888   1.368  -2.354  0.00  0.00    +0.045 C 
ENDBRANCH  17  25
ENDBRANCH   1  18
BRANCH   9  29
ATOM     29  N   UNL     1       2.614  -1.631   2.160  0.00  0.00    -0.343 N 
ATOM     30  H   UNL     1       2.164  -1.682   3.018  0.00  0.00    +0.144 HD
ATOM     31  H   UNL     1       3.552  -1.870   2.090  0.00  0.00    +0.144 HD
ENDBRANCH   9  29
BRANCH   7  32
ATOM     32  C   UNL     1       5.069  -3.842  -3.600  0.00  0.00    +0.333 C 
ATOM     33  O   UNL     1       4.303  -3.354  -4.409  0.00  0.00    -0.246 OA
BRANCH  32  34
ATOM     34  O   UNL     1       6.094  -4.612  -4.021  0.00  0.00    -0.465 OA
ATOM     35  C   UNL     1       6.219  -4.811  -5.431  0.00  0.00    +0.280 C 
ENDBRANCH  32  34
ENDBRANCH   7  32
BRANCH  10  36
ATOM     36  C   UNL     1       0.433  -0.034   2.534  0.00  0.00    +0.099 C 
ATOM     37  N   UNL     1       0.109   0.281   3.576  0.00  0.00    -0.191 NA
ENDBRANCH  10  36
TORSDOF 7
