REMARK  Name = ZINC14016289
REMARK  4 active torsions:
REMARK  status: ('A' for Active; 'I' for Inactive)
REMARK    1  A    between atoms: C_4  and  S_7
REMARK    2  A    between atoms: S_7  and  N_10
REMARK    3  A    between atoms: C_14  and  C_17
REMARK    4  A    between atoms: C_22  and  C_25
REMARK                            x       y       z     vdW  Elec       q    Type
REMARK                         _______ _______ _______ _____ _____    ______ ____
ROOT
ATOM      1  N   UNL     1       1.155   4.329   1.596  0.00  0.00    -0.176 NA
ATOM      2  C   UNL     1       2.423   4.564   2.300  0.00  0.00    +0.109 C 
ATOM      3  C   UNL     1       2.396   5.969   2.909  0.00  0.00    +0.018 C 
ATOM      4  C   UNL     1       1.151   6.116   3.788  0.00  0.00    +0.015 C 
ATOM      5  C   UNL     1      -0.104   5.936   2.932  0.00  0.00    +0.091 C 
ATOM      6  C   UNL     1      -0.105   4.535   2.322  0.00  0.00    +0.122 C 
ENDROOT
BRANCH   5   7
ATOM      7  C   UNL     1      -1.329   6.112   3.792  0.00  0.00    +0.223 C 
ATOM      8  O   UNL     1      -2.126   5.205   3.906  0.00  0.00    -0.275 OA
ATOM      9  N   UNL     1      -1.538   7.278   4.436  0.00  0.00    -0.264 N 
ATOM     10  C   UNL     1      -2.667   7.440   5.229  0.00  0.00    +0.165 A 
ATOM     11  N   UNL     1      -3.046   8.488   5.936  0.00  0.00    -0.224 NA
ATOM     12  C   UNL     1      -4.173   8.471   6.644  0.00  0.00    +0.087 A 
ATOM     13  C   UNL     1      -4.945   7.341   6.644  0.00  0.00    +0.077 A 
ATOM     14  S   UNL     1      -3.987   6.283   5.567  0.00  0.00    -0.060 S 
ATOM     15  H   UNL     1      -0.901   8.003   4.345  0.00  0.00    +0.157 HD
BRANCH  12  16
ATOM     16  C   UNL     1      -4.584   9.657   7.425  0.00  0.00    +0.039 A 
ATOM     17  C   UNL     1      -3.953  10.865   7.556  0.00  0.00    +0.019 A 
ATOM     18  C   UNL     1      -4.534  11.835   8.345  0.00  0.00    +0.023 A 
ATOM     19  C   UNL     1      -5.705  11.560   8.975  0.00  0.00    +0.056 A 
ATOM     20  S   UNL     1      -6.029   9.884   8.449  0.00  0.00    -0.080 S 
ATOM     21 BR   UNL     1      -6.730  12.666  10.116  0.00  0.00    -0.043 Br
ENDBRANCH  12  16
ENDBRANCH   5   7
BRANCH   1  22
ATOM     22  S   UNL     1       1.147   3.847   0.011  0.00  0.00    +0.061 S 
ATOM     23  O   UNL     1       2.382   4.273  -0.549  0.00  0.00    -0.153 OA
ATOM     24  O   UNL     1      -0.109   4.239  -0.526  0.00  0.00    -0.153 OA
BRANCH  22  28
ATOM     25  C   UNL     1       1.208  -0.679  -0.014  0.00  0.00    +0.000 A 
ATOM     26  C   UNL     1       0.002  -0.004   0.002  0.00  0.00    +0.002 A 
ATOM     27  C   UNL     1      -0.017   1.378   0.010  0.00  0.00    +0.028 A 
ATOM     28  C   UNL     1       1.171   2.086   0.002  0.00  0.00    +0.105 A 
ATOM     29  C   UNL     1       2.377   1.411  -0.014  0.00  0.00    +0.028 A 
ATOM     30  C   UNL     1       2.396   0.029  -0.021  0.00  0.00    +0.002 A 
ENDBRANCH  22  28
ENDBRANCH   1  22
TORSDOF 4
