REMARK  Name = ZINC08764325
REMARK  11 active torsions:
REMARK  status: ('A' for Active; 'I' for Inactive)
REMARK    1  A    between atoms: C_1  and  C_2
REMARK    2  A    between atoms: C_2  and  C_3
REMARK    3  A    between atoms: C_16  and  C_18
REMARK    4  A    between atoms: C_19  and  O_39
REMARK    5  A    between atoms: N_24  and  C_27
REMARK    6  A    between atoms: C_27  and  C_28
REMARK    7  A    between atoms: C_28  and  C_29
REMARK    8  A    between atoms: C_32  and  O_37
REMARK    9  A    between atoms: C_33  and  O_35
REMARK   10  A    between atoms: O_35  and  C_36
REMARK   11  A    between atoms: O_37  and  C_38
REMARK                            x       y       z     vdW  Elec       q    Type
REMARK                         _______ _______ _______ _____ _____    ______ ____
ROOT
ATOM      1  C   UNL     1      -2.799   1.551  -2.456  0.00  0.00    +0.068 A 
ATOM      2  C   UNL     1      -3.270   0.826  -3.510  0.00  0.00    +0.201 A 
ATOM      3  N   UNL     1      -3.990   1.455  -4.494  0.00  0.00    -0.278 N 
ATOM      4  H   UNL     1      -4.331   0.943  -5.244  0.00  0.00    +0.173 HD
ATOM      5  C   UNL     1      -4.222   2.779  -4.428  0.00  0.00    +0.332 A 
ATOM      6  O   UNL     1      -4.858   3.320  -5.312  0.00  0.00    -0.246 OA
ATOM      7  N   UNL     1      -3.761   3.513  -3.399  0.00  0.00    -0.260 N 
ATOM      8  C   UNL     1      -3.054   2.933  -2.408  0.00  0.00    +0.262 A 
ATOM      9  O   UNL     1      -2.640   3.602  -1.478  0.00  0.00    -0.267 OA
ENDROOT
BRANCH   1  22
ATOM     10  C   UNL     1      -0.013   1.086   0.008  0.00  0.00    -0.066 C 
ATOM     11  C   UNL     1      -0.731   1.581   1.271  0.00  0.00    +0.022 C 
ATOM     12  C   UNL     1      -2.201   1.278   1.120  0.00  0.00    -0.022 A 
ATOM     13  C   UNL     1      -3.241   1.259   2.124  0.00  0.00    +0.003 A 
ATOM     14  C   UNL     1      -3.238   1.503   3.501  0.00  0.00    +0.010 A 
ATOM     15  C   UNL     1      -4.440   1.389   4.154  0.00  0.00    +0.001 A 
ATOM     16  C   UNL     1      -5.609   1.051   3.492  0.00  0.00    +0.002 A 
ATOM     17  C   UNL     1      -5.641   0.804   2.131  0.00  0.00    +0.026 A 
ATOM     18  C   UNL     1      -4.436   0.912   1.441  0.00  0.00    +0.047 A 
ATOM     19  N   UNL     1      -4.117   0.739   0.124  0.00  0.00    -0.359 N 
ATOM     20  H   UNL     1      -4.744   0.496  -0.575  0.00  0.00    +0.166 HD
ATOM     21  C   UNL     1      -2.779   0.961  -0.061  0.00  0.00    +0.011 A 
ATOM     22  C   UNL     1      -2.011   0.882  -1.359  0.00  0.00    +0.018 C 
ATOM     23  N   UNL     1      -0.719   1.582  -1.191  0.00  0.00    +0.390 N 
ATOM     24  H   UNL     1      -0.135   1.418  -2.019  0.00  0.00    -0.084 HD
ATOM     25  H   UNL     1      -0.892   2.589  -1.088  0.00  0.00    -0.084 HD
BRANCH  10  27
ATOM     26  C   UNL     1       2.176   1.022  -1.195  0.00  0.00    +0.002 C 
ATOM     27  C   UNL     1       1.423   1.615  -0.003  0.00  0.00    -0.019 C 
ENDBRANCH  10  27
ENDBRANCH   1  22
BRANCH   2  28
ATOM     28  O   UNL     1      -3.034  -0.501  -3.583  0.00  0.00    -0.493 OA
ATOM     29  H   UNL     1      -3.408  -0.925  -4.367  0.00  0.00    +0.294 HD
ENDBRANCH   2  28
BRANCH   7  30
ATOM     30  C   UNL     1      -4.030   4.952  -3.354  0.00  0.00    +0.134 C 
BRANCH  30  31
ATOM     31  C   UNL     1      -2.902   5.704  -4.064  0.00  0.00    +0.057 C 
BRANCH  31  32
ATOM     32  C   UNL     1      -3.178   7.184  -4.018  0.00  0.00    -0.042 A 
ATOM     33  C   UNL     1      -3.898   7.784  -5.035  0.00  0.00    +0.007 A 
ATOM     34  C   UNL     1      -4.159   9.140  -4.995  0.00  0.00    +0.049 A 
ATOM     35  C   UNL     1      -3.689   9.905  -3.939  0.00  0.00    +0.161 A 
ATOM     36  C   UNL     1      -2.959   9.303  -2.918  0.00  0.00    +0.162 A 
ATOM     37  C   UNL     1      -2.706   7.942  -2.962  0.00  0.00    +0.053 A 
BRANCH  36  38
ATOM     38  O   UNL     1      -2.497  10.049  -1.880  0.00  0.00    -0.491 OA
ATOM     39  C   UNL     1      -1.756   9.364  -0.868  0.00  0.00    +0.277 C 
ENDBRANCH  36  38
BRANCH  35  40
ATOM     40  O   UNL     1      -3.939  11.241  -3.901  0.00  0.00    -0.491 OA
ATOM     41  C   UNL     1      -4.694  11.791  -4.982  0.00  0.00    +0.277 C 
ENDBRANCH  35  40
ENDBRANCH  31  32
ENDBRANCH  30  31
ENDBRANCH   7  30
TORSDOF 8
