REMARK  Name = ZINC39653539
REMARK  15 active torsions:
REMARK  status: ('A' for Active; 'I' for Inactive)
REMARK    1  A    between atoms: C_1  and  C_2
REMARK    2  A    between atoms: C_2  and  O_3
REMARK    3  A    between atoms: O_3  and  C_4
REMARK    4  A    between atoms: C_6  and  C_12
REMARK    5  A    between atoms: C_9  and  O_10
REMARK    6  A    between atoms: O_10  and  C_11
REMARK    7  A    between atoms: C_12  and  C_13
REMARK    8  A    between atoms: C_13  and  N_14
REMARK    9  A    between atoms: C_15  and  C_17
REMARK   10  A    between atoms: C_28  and  C_30
REMARK   11  A    between atoms: C_30  and  C_32
REMARK   12  A    between atoms: C_30  and  O_35
REMARK   13  A    between atoms: C_32  and  C_33
REMARK   14  A    between atoms: C_32  and  C_34
REMARK   15  A    between atoms: O_35  and  C_36
REMARK                            x       y       z     vdW  Elec       q    Type
REMARK                         _______ _______ _______ _____ _____    ______ ____
ROOT
ATOM      1  C   UNL     1       1.046  -7.373  -5.247  0.00  0.00    +0.100 C 
ATOM      2  C   UNL     1       0.573  -8.642  -4.504  0.00  0.00    +0.121 C 
ATOM      3  N   UNL     1       0.815  -9.748  -5.460  0.00  0.00    -0.297 N 
ATOM      4  C   UNL     1       2.110  -9.408  -6.097  0.00  0.00    +0.115 C 
ATOM      5  C   UNL     1       2.054  -7.880  -6.292  0.00  0.00    -0.004 C 
ATOM      6  C   UNL     1       1.571  -7.544  -7.699  0.00  0.00    -0.010 C 
ATOM      7  C   UNL     1       2.617  -8.007  -8.717  0.00  0.00    -0.082 C 
ATOM      8  N   UNL     1       3.896  -7.340  -8.445  0.00  0.00    +0.379 N 
ATOM      9  C   UNL     1       4.400  -7.741  -7.126  0.00  0.00    -0.082 C 
ATOM     10  C   UNL     1       3.429  -7.266  -6.041  0.00  0.00    -0.010 C 
ATOM     11  C   UNL     1       0.035 -10.821  -5.696  0.00  0.00    +0.257 C 
ATOM     12  O   UNL     1      -1.046 -10.916  -5.154  0.00  0.00    -0.272 OA
ATOM     13  H   UNL     1       4.567  -7.600  -9.153  0.00  0.00    -0.086 HD
ATOM     14  H   UNL     1       3.763  -6.340  -8.463  0.00  0.00    -0.086 HD
ENDROOT
BRANCH   1  16
ATOM     15  N   UNL     1       1.781  -5.108  -4.579  0.00  0.00    -0.315 N 
ATOM     16  C   UNL     1       1.716  -6.422  -4.289  0.00  0.00    +0.218 C 
ATOM     17  O   UNL     1       2.196  -6.840  -3.257  0.00  0.00    -0.275 OA
ATOM     18  H   UNL     1       1.397  -4.774  -5.405  0.00  0.00    +0.149 HD
BRANCH  15  19
ATOM     19  C   UNL     1       2.432  -4.183  -3.648  0.00  0.00    +0.109 C 
BRANCH  19  20
ATOM     20  C   UNL     1       2.370  -2.762  -4.212  0.00  0.00    +0.054 C 
BRANCH  20  23
ATOM     21  C   UNL     1       5.009  -0.678  -2.492  0.00  0.00    +0.162 A 
ATOM     22  C   UNL     1       4.392  -1.552  -3.372  0.00  0.00    +0.053 A 
ATOM     23  C   UNL     1       3.039  -1.812  -3.253  0.00  0.00    -0.042 A 
ATOM     24  C   UNL     1       2.300  -1.201  -2.258  0.00  0.00    +0.007 A 
ATOM     25  C   UNL     1       2.910  -0.328  -1.376  0.00  0.00    +0.049 A 
ATOM     26  C   UNL     1       4.266  -0.067  -1.486  0.00  0.00    +0.162 A 
BRANCH  26  27
ATOM     27  O   UNL     1       4.869   0.787  -0.616  0.00  0.00    -0.491 OA
ATOM     28  C   UNL     1       4.044   1.376   0.391  0.00  0.00    +0.277 C 
ENDBRANCH  26  27
BRANCH  21  29
ATOM     29  O   UNL     1       6.340  -0.421  -2.607  0.00  0.00    -0.489 OA
BRANCH  29  31
ATOM     30  C   UNL     1       8.513  -0.673  -3.634  0.00  0.00    +0.048 C 
ATOM     31  C   UNL     1       7.039  -1.083  -3.663  0.00  0.00    +0.226 C 
ENDBRANCH  29  31
ENDBRANCH  21  29
ENDBRANCH  20  23
ENDBRANCH  19  20
ENDBRANCH  15  19
ENDBRANCH   1  16
BRANCH  11  32
ATOM     32  C   UNL     1       0.505 -11.903  -6.634  0.00  0.00    +0.261 C 
BRANCH  32  33
ATOM     33  C   UNL     1       1.742 -12.586  -6.046  0.00  0.00    +0.033 C 
ATOM     34  C   UNL     1       1.361 -13.302  -4.749  0.00  0.00    +0.011 C 
ATOM     35  C   UNL     1       2.288 -13.604  -7.050  0.00  0.00    +0.011 C 
ENDBRANCH  32  33
BRANCH  32  36
ATOM     36  O   UNL     1      -0.534 -12.868  -6.808  0.00  0.00    -0.479 OA
BRANCH  36  37
ATOM     37  C   UNL     1      -0.660 -13.424  -8.041  0.00  0.00    +0.122 A 
ATOM     38  C   UNL     1      -1.658 -14.357  -8.285  0.00  0.00    +0.045 A 
ATOM     39  C   UNL     1      -1.784 -14.921  -9.540  0.00  0.00    +0.004 A 
ATOM     40  C   UNL     1      -0.915 -14.557 -10.553  0.00  0.00    +0.000 A 
ATOM     41  C   UNL     1       0.080 -13.628 -10.312  0.00  0.00    +0.004 A 
ATOM     42  C   UNL     1       0.206 -13.057  -9.061  0.00  0.00    +0.045 A 
ENDBRANCH  36  37
ENDBRANCH  32  36
ENDBRANCH  11  32
TORSDOF 11
