REMARK  Name = ZINC63205393
REMARK  6 active torsions:
REMARK  status: ('A' for Active; 'I' for Inactive)
REMARK    1  A    between atoms: C_1  and  C_2
REMARK    2  A    between atoms: C_4  and  C_13
REMARK    3  A    between atoms: N_15  and  CA_16
REMARK    4  A    between atoms: CA_16  and  CB_18
REMARK    5  A    between atoms: CA_16  and  C_28
REMARK    6  A    between atoms: CB_18  and  CG_19
REMARK                            x       y       z     vdW  Elec       q    Type
REMARK                         _______ _______ _______ _____ _____    ______ ____
ROOT
ATOM      1  CA  TRP A   1      -2.545  -0.488  -3.571  0.00  0.00    +0.190 C 
ENDROOT
BRANCH   1   4
ATOM      2  C   UNK A   0      -1.934  -0.996  -1.268  0.00  0.00    +0.224 C 
ATOM      3  O   UNK A   0      -2.223  -2.155  -1.478  0.00  0.00    -0.275 OA
ATOM      4  N   TRP A   1      -2.059  -0.082  -2.250  0.00  0.00    -0.301 N 
ATOM      5  H   TRP A   1      -1.828   0.845  -2.082  0.00  0.00    +0.150 HD
BRANCH   2   8
ATOM      6  C   UNK A   0      -0.019   1.526   0.010  0.00  0.00    +0.053 C 
ATOM      7  C   UNK A   0       0.002  -0.004   0.002  0.00  0.00    +0.186 C 
ATOM      8  C   UNK A   0      -1.434  -0.579   0.091  0.00  0.00    +0.144 C 
ATOM      9  C   UNK A   0      -1.223  -1.781   0.986  0.00  0.00    -0.017 C 
ATOM     10  C   UNK A   0      -0.044  -1.658   1.568  0.00  0.00    +0.098 C 
ATOM     11  O   UNK A   0       0.599  -0.518   1.207  0.00  0.00    -0.492 OA
ATOM     12  C   UNK A   0       0.516  -2.685   2.533  0.00  0.00    +0.074 C 
ATOM     13  C   UNK A   0      -0.629  -3.572   3.028  0.00  0.00    +0.008 C 
ATOM     14  C   UNK A   0      -1.425  -4.094   1.828  0.00  0.00    +0.005 C 
ATOM     15  C   UNK A   0      -2.183  -2.925   1.186  0.00  0.00    +0.035 C 
ENDBRANCH   2   8
ENDBRANCH   1   4
BRANCH   1  16
ATOM     16  C   TRP A   1      -1.393  -1.002  -4.394  0.00  0.00    +0.376 C 
ATOM     17  O   TRP A   1      -1.583  -1.856  -5.243  0.00  0.00    -0.244 OA
ATOM     18  OXT TRP A   1      -0.270  -0.563  -4.212  0.00  0.00    -0.244 OA
ENDBRANCH   1  16
BRANCH   1  19
ATOM     19  CB  TRP A   1      -3.178   0.715  -4.274  0.00  0.00    +0.067 C 
BRANCH  19  20
ATOM     20  CG  TRP A   1      -4.404   1.153  -3.515  0.00  0.00    -0.039 C 
ATOM     21  CD2 TRP A   1      -4.476   2.126  -2.579  0.00  0.00    -0.001 A 
ATOM     22  CE3 TRP A   1      -3.474   3.033  -2.007  0.00  0.00    +0.010 A 
ATOM     23  CZ3 TRP A   1      -3.856   3.921  -1.062  0.00  0.00    +0.001 A 
ATOM     24  CH2 TRP A   1      -5.182   3.998  -0.615  0.00  0.00    +0.002 A 
ATOM     25  CZ2 TRP A   1      -6.159   3.198  -1.092  0.00  0.00    +0.026 A 
ATOM     26  CE2 TRP A   1      -5.870   2.227  -2.090  0.00  0.00    +0.043 A 
ATOM     27  NE1 TRP A   1      -6.630   1.350  -2.701  0.00  0.00    -0.380 N 
ATOM     28  CD1 TRP A   1      -5.804   0.597  -3.651  0.00  0.00    +0.144 C 
ATOM     29  HE1 TRP A   1      -7.580   1.223  -2.552  0.00  0.00    +0.160 HD
ENDBRANCH  19  20
ENDBRANCH   1  19
TORSDOF 5
