REMARK  Name = ZINC27754289
REMARK  7 active torsions:
REMARK  status: ('A' for Active; 'I' for Inactive)
REMARK    1  A    between atoms: C_1  and  C_2
REMARK    2  A    between atoms: C_5  and  C_8
REMARK    3  A    between atoms: C_8  and  O_35
REMARK    4  A    between atoms: C_9  and  C_29
REMARK    5  A    between atoms: C_11  and  C_17
REMARK    6  A    between atoms: C_20  and  C_22
REMARK    7  A    between atoms: C_29  and  C_31
REMARK                            x       y       z     vdW  Elec       q    Type
REMARK                         _______ _______ _______ _____ _____    ______ ____
ROOT
ATOM      1  C   UNL     1      -0.654   3.124  -1.267  0.00  0.00    +0.172 C 
ATOM      2  C   UNL     1      -0.747   1.595  -1.237  0.00  0.00    +0.147 C 
ATOM      3  C   UNL     1      -0.013   1.086   0.008  0.00  0.00    +0.156 C 
ATOM      4  N   UNL     1       1.360   1.594  -0.002  0.00  0.00    -0.289 N 
ATOM      5  C   UNL     1       1.668   2.760  -0.589  0.00  0.00    +0.303 C 
ATOM      6  O   UNL     1       2.822   3.141  -0.560  0.00  0.00    -0.253 OA
ATOM      7  N   UNL     1       0.753   3.522  -1.208  0.00  0.00    -0.267 N 
ATOM      8  H   UNL     1       2.164   1.016   0.478  0.00  0.00    +0.151 HD
ATOM      9  H   UNL     1       1.080   4.462  -1.676  0.00  0.00    +0.153 HD
ENDROOT
BRANCH   1  14
ATOM     10  C   UNL     1      -3.017   5.107  -6.154  0.00  0.00    +0.044 C 
ATOM     11  C   UNL     1      -2.401   4.589  -4.880  0.00  0.00    -0.050 A 
ATOM     12  C   UNL     1      -1.056   4.271  -4.841  0.00  0.00    +0.004 A 
ATOM     13  C   UNL     1      -0.491   3.797  -3.672  0.00  0.00    +0.008 A 
ATOM     14  C   UNL     1      -1.270   3.641  -2.542  0.00  0.00    +0.003 A 
ATOM     15  C   UNL     1      -2.616   3.954  -2.581  0.00  0.00    +0.008 A 
ATOM     16  C   UNL     1      -3.180   4.432  -3.749  0.00  0.00    +0.004 A 
ENDBRANCH   1  14
BRANCH   3  17
ATOM     17  C   UNL     1      -0.721   1.573   1.246  0.00  0.00    +0.127 A 
ATOM     18  C   UNL     1      -1.572   0.850   2.000  0.00  0.00    +0.047 A 
ATOM     19  C   UNL     1      -2.001   1.684   3.052  0.00  0.00    +0.050 A 
ATOM     20  C   UNL     1      -1.381   2.882   2.880  0.00  0.00    +0.135 A 
ATOM     21  O   UNL     1      -0.604   2.798   1.784  0.00  0.00    -0.458 OA
BRANCH  20  22
ATOM     22  C   UNL     1      -1.531   4.068   3.749  0.00  0.00    +0.017 A 
ATOM     23  C   UNL     1      -2.374   4.021   4.861  0.00  0.00    +0.014 A 
ATOM     24  C   UNL     1      -2.505   5.129   5.671  0.00  0.00    +0.039 A 
ATOM     25  C   UNL     1      -1.811   6.292   5.377  0.00  0.00    +0.123 A 
ATOM     26  C   UNL     1      -0.977   6.346   4.272  0.00  0.00    +0.039 A 
ATOM     27  C   UNL     1      -0.834   5.242   3.458  0.00  0.00    +0.014 A 
ATOM     28  F   UNL     1      -1.948   7.376   6.171  0.00  0.00    -0.205 F 
ENDBRANCH  20  22
ENDBRANCH   3  17
BRANCH   2  29
ATOM     29  C   UNL     1      -0.101   1.025  -2.474  0.00  0.00    +0.245 C 
ATOM     30  O   UNL     1       0.802   1.619  -3.012  0.00  0.00    -0.287 OA
BRANCH  29  31
ATOM     31  C   UNL     1      -0.581  -0.287  -3.038  0.00  0.00    +0.451 C 
ATOM     32  F   UNL     1       0.166  -0.606  -4.177  0.00  0.00    -0.163 F 
ATOM     33  F   UNL     1      -0.423  -1.294  -2.079  0.00  0.00    -0.163 F 
ATOM     34  F   UNL     1      -1.933  -0.180  -3.382  0.00  0.00    -0.163 F 
ENDBRANCH  29  31
ENDBRANCH   2  29
BRANCH   1  35
ATOM     35  O   UNL     1      -1.351   3.668  -0.145  0.00  0.00    -0.367 OA
ATOM     36  H   UNL     1      -1.042   3.402   0.877  0.00  0.00    +0.212 HD
ENDBRANCH   1  35
TORSDOF 6
