REMARK  Name = ZINC00707011
REMARK  9 active torsions:
REMARK  status: ('A' for Active; 'I' for Inactive)
REMARK    1  A    between atoms: C_1  and  C_2
REMARK    2  A    between atoms: C_3  and  C_28
REMARK    3  A    between atoms: N_4  and  C_11
REMARK    4  A    between atoms: C_11  and  C_12
REMARK    5  A    between atoms: C_12  and  C_14
REMARK    6  A    between atoms: C_12  and  O_27
REMARK    7  A    between atoms: C_14  and  N_66
REMARK    8  A    between atoms: C_15  and  N_66
REMARK    9  A    between atoms: C_21  and  N_66
REMARK                            x       y       z     vdW  Elec       q    Type
REMARK                         _______ _______ _______ _____ _____    ______ ____
ROOT
ATOM      1  C   UNL     1       0.944   1.720  -0.857  0.00  0.00    +0.118 C 
ENDROOT
BRANCH   1   2
ATOM      2  O   UNL     1       0.197   2.791  -1.438  0.00  0.00    -0.392 OA
ATOM      3  H   UNL     1      -0.547   2.502  -1.982  0.00  0.00    +0.210 HD
ENDBRANCH   1   2
BRANCH   1   4
ATOM      4  C   UNL     1       1.617   0.908  -1.966  0.00  0.00    +0.151 C 
BRANCH   4   8
ATOM      5  C   UNL     1       6.008   3.090  -3.074  0.00  0.00    +0.046 C 
ATOM      6  C   UNL     1       4.553   2.699  -3.126  0.00  0.00    -0.022 A 
ATOM      7  C   UNL     1       3.923   1.855  -2.294  0.00  0.00    +0.020 A 
ATOM      8  N   UNL     1       2.607   1.744  -2.650  0.00  0.00    -0.341 N 
ATOM      9  C   UNL     1       2.352   2.529  -3.752  0.00  0.00    +0.050 A 
ATOM     10  C   UNL     1       3.559   3.166  -4.096  0.00  0.00    +0.003 A 
ATOM     11  C   UNL     1       3.601   4.037  -5.186  0.00  0.00    +0.010 A 
ATOM     12  C   UNL     1       2.467   4.271  -5.912  0.00  0.00    +0.001 A 
ATOM     13  C   UNL     1       1.273   3.649  -5.574  0.00  0.00    +0.002 A 
ATOM     14  C   UNL     1       1.209   2.785  -4.502  0.00  0.00    +0.026 A 
ATOM     15  C   UNL     1       4.570   1.137  -1.138  0.00  0.00    +0.064 C 
ENDBRANCH   4   8
ENDBRANCH   1   4
BRANCH   1  16
ATOM     16  C   UNL     1       0.002   0.814  -0.062  0.00  0.00    -0.045 C 
BRANCH  16  17
ATOM     17  N   UNL     1      -0.673   1.629   0.970  0.00  0.00    +0.385 N 
ATOM     18  H   UNL     1      -0.675   2.611   0.670  0.00  0.00    -0.081 HD
BRANCH  17  19
ATOM     19  C   UNL     1      -2.070   1.176   1.138  0.00  0.00    -0.068 C 
ATOM     20  C   UNL     1      -2.115  -0.326   1.428  0.00  0.00    -0.015 C 
ATOM     21  C   UNL     1      -3.570  -0.769   1.595  0.00  0.00    -0.002 C 
ATOM     22  C   UNL     1      -4.344  -0.475   0.308  0.00  0.00    -0.000 C 
ATOM     23  C   UNL     1      -4.298   1.027   0.018  0.00  0.00    -0.002 C 
ATOM     24  C   UNL     1      -2.843   1.470  -0.149  0.00  0.00    -0.015 C 
ENDBRANCH  17  19
BRANCH  17  25
ATOM     25  C   UNL     1       0.052   1.520   2.253  0.00  0.00    -0.068 C 
ATOM     26  C   UNL     1      -0.803   2.131   3.366  0.00  0.00    -0.015 C 
ATOM     27  C   UNL     1      -0.048   2.046   4.694  0.00  0.00    -0.002 C 
ATOM     28  C   UNL     1       1.270   2.815   4.582  0.00  0.00    -0.000 C 
ATOM     29  C   UNL     1       2.124   2.203   3.470  0.00  0.00    -0.002 C 
ATOM     30  C   UNL     1       1.370   2.289   2.141  0.00  0.00    -0.015 C 
ENDBRANCH  17  25
ENDBRANCH  16  17
ENDBRANCH   1  16
TORSDOF 7
