REMARK  Name = ZINC58289130
REMARK  9 active torsions:
REMARK  status: ('A' for Active; 'I' for Inactive)
REMARK    1  A    between atoms: C_1  and  C_2
REMARK    2  A    between atoms: C_2  and  N_3
REMARK    3  A    between atoms: C_5  and  C_14
REMARK    4  A    between atoms: C_14  and  N_15
REMARK    5  A    between atoms: N_15  and  C_16
REMARK    6  A    between atoms: N_15  and  C_17
REMARK    7  A    between atoms: C_17  and  C_18
REMARK    8  A    between atoms: N_23  and  C_24
REMARK    9  A    between atoms: C_24  and  C_25
REMARK                            x       y       z     vdW  Elec       q    Type
REMARK                         _______ _______ _______ _____ _____    ______ ____
ROOT
ATOM      1  N   UNL     1      -4.255  -3.720   2.285  0.00  0.00    +0.386 N 
ATOM      2  C   UNL     1      -3.214  -4.754   2.221  0.00  0.00    -0.095 C 
ATOM      3  H   UNL     1      -4.817  -3.757   1.448  0.00  0.00    -0.081 HD
ENDROOT
BRANCH   1   4
ATOM      4  C   UNL     1      -3.626  -2.398   2.395  0.00  0.00    -0.032 C 
BRANCH   4   7
ATOM      5  N   UNL     1      -1.372  -0.511   0.012  0.00  0.00    -0.324 N 
ATOM      6  C   UNL     1      -2.077  -0.776   1.278  0.00  0.00    +0.147 C 
ATOM      7  C   UNL     1      -2.837  -2.100   1.117  0.00  0.00    +0.174 C 
ATOM      8  O   UNL     1      -3.737  -1.984   0.012  0.00  0.00    -0.487 OA
ATOM      9  C   UNL     1      -3.242  -1.503  -1.159  0.00  0.00    +0.142 A 
ATOM     10  C   UNL     1      -2.065  -0.756  -1.184  0.00  0.00    +0.072 A 
ATOM     11  C   UNL     1      -1.577  -0.262  -2.383  0.00  0.00    +0.027 A 
ATOM     12  C   UNL     1      -2.262  -0.508  -3.559  0.00  0.00    +0.002 A 
ATOM     13  C   UNL     1      -3.431  -1.246  -3.538  0.00  0.00    +0.004 A 
ATOM     14  C   UNL     1      -3.919  -1.751  -2.343  0.00  0.00    +0.047 A 
BRANCH   5  16
ATOM     15  C   UNL     1      -0.019   1.526   0.010  0.00  0.00    +0.024 C 
ATOM     16  C   UNL     1       0.002  -0.004   0.002  0.00  0.00    +0.102 C 
ENDBRANCH   5  16
ENDBRANCH   4   7
ENDBRANCH   1   4
BRANCH   1  17
ATOM     17  C   UNL     1      -5.108  -3.956   3.458  0.00  0.00    +0.019 C 
BRANCH  17  18
ATOM     18  C   UNL     1      -5.848  -5.257   3.287  0.00  0.00    +0.204 C 
ATOM     19  O   UNL     1      -5.682  -5.923   2.288  0.00  0.00    -0.277 OA
ATOM     20  N   UNL     1      -6.695  -5.681   4.246  0.00  0.00    -0.242 N 
ATOM     21  C   UNL     1      -7.357  -6.845   4.094  0.00  0.00    +0.306 C 
ATOM     22  O   UNL     1      -7.191  -7.512   3.092  0.00  0.00    -0.252 OA
ATOM     23  N   UNL     1      -8.204  -7.269   5.053  0.00  0.00    -0.291 N 
ATOM     24  H   UNL     1      -6.828  -5.148   5.046  0.00  0.00    +0.159 HD
ATOM     25  H   UNL     1      -8.337  -6.736   5.852  0.00  0.00    +0.151 HD
BRANCH  23  26
ATOM     26  C   UNL     1      -8.924  -8.534   4.887  0.00  0.00    +0.219 C 
BRANCH  26  27
ATOM     27  C   UNL     1      -9.812  -8.779   6.109  0.00  0.00    +0.405 C 
ATOM     28  F   UNL     1     -10.732  -7.732   6.234  0.00  0.00    -0.169 F 
ATOM     29  F   UNL     1     -10.500  -9.987   5.951  0.00  0.00    -0.169 F 
ATOM     30  F   UNL     1      -9.017  -8.842   7.258  0.00  0.00    -0.169 F 
ENDBRANCH  26  27
ENDBRANCH  23  26
ENDBRANCH  17  18
ENDBRANCH   1  17
TORSDOF 7
