REMARK  Name = ZINC63375396
REMARK  7 active torsions:
REMARK  status: ('A' for Active; 'I' for Inactive)
REMARK    1  A    between atoms: C_1  and  C_2
REMARK    2  A    between atoms: C_2  and  O_3
REMARK    3  A    between atoms: O_3  and  C_4
REMARK    4  A    between atoms: C_4  and  C_6
REMARK    5  A    between atoms: C_9  and  N_12
REMARK    6  A    between atoms: C_28  and  C_33
REMARK    7  A    between atoms: C_36  and  C_39
REMARK                            x       y       z     vdW  Elec       q    Type
REMARK                         _______ _______ _______ _____ _____    ______ ____
ROOT
ATOM      1  N   UNL     1       3.411  -3.983  -5.877  0.00  0.00    -0.193 N 
ATOM      2  C   UNL     1       3.670  -5.288  -6.100  0.00  0.00    +0.248 C 
ATOM      3  O   UNL     1       3.429  -6.219  -5.363  0.00  0.00    -0.273 OA
ATOM      4  C   UNL     1       4.325  -5.347  -7.463  0.00  0.00    +0.169 C 
ATOM      5  C   UNL     1       5.722  -5.982  -7.349  0.00  0.00    +0.065 C 
ATOM      6  C   UNL     1       6.513  -5.485  -8.535  0.00  0.00    -0.034 C 
ATOM      7  C   UNL     1       7.180  -6.152  -9.472  0.00  0.00    -0.001 A 
ATOM      8  C   UNL     1       7.466  -7.586  -9.635  0.00  0.00    +0.010 A 
ATOM      9  C   UNL     1       8.173  -7.934 -10.743  0.00  0.00    +0.001 A 
ATOM     10  C   UNL     1       8.620  -7.009 -11.692  0.00  0.00    +0.002 A 
ATOM     11  C   UNL     1       8.409  -5.671 -11.617  0.00  0.00    +0.026 A 
ATOM     12  C   UNL     1       7.682  -5.183 -10.493  0.00  0.00    +0.043 A 
ATOM     13  N   UNL     1       7.358  -3.968 -10.164  0.00  0.00    -0.375 N 
ATOM     14  C   UNL     1       6.663  -4.008  -8.875  0.00  0.00    +0.131 C 
ATOM     15  C   UNL     1       5.245  -3.427  -8.981  0.00  0.00    +0.135 C 
ATOM     16  N   UNL     1       4.473  -3.924  -7.829  0.00  0.00    -0.264 N 
ATOM     17  C   UNL     1       3.842  -3.213  -6.886  0.00  0.00    +0.317 C 
ATOM     18  O   UNL     1       3.682  -2.010  -6.937  0.00  0.00    -0.252 OA
ATOM     19  H   UNL     1       7.544  -3.170 -10.683  0.00  0.00    +0.160 HD
ENDROOT
BRANCH  15  20
ATOM     20  C   UNL     1       4.592  -3.893 -10.256  0.00  0.00    -0.025 A 
ATOM     21  C   UNL     1       4.278  -5.228 -10.425  0.00  0.00    +0.006 A 
ATOM     22  C   UNL     1       3.679  -5.655 -11.595  0.00  0.00    +0.004 A 
ATOM     23  C   UNL     1       3.393  -4.747 -12.597  0.00  0.00    -0.050 A 
ATOM     24  C   UNL     1       3.706  -3.411 -12.428  0.00  0.00    +0.004 A 
ATOM     25  C   UNL     1       4.301  -2.983 -11.256  0.00  0.00    +0.006 A 
ATOM     26  C   UNL     1       2.740  -5.212 -13.873  0.00  0.00    +0.044 C 
ENDBRANCH  15  20
BRANCH   1  30
ATOM     27  C   UNL     1       1.488  -2.526  -2.477  0.00  0.00    +0.059 A 
ATOM     28  C   UNL     1       2.017  -1.638  -3.418  0.00  0.00    +0.017 A 
ATOM     29  C   UNL     1       2.651  -2.123  -4.540  0.00  0.00    +0.025 A 
ATOM     30  C   UNL     1       2.766  -3.494  -4.737  0.00  0.00    +0.045 A 
ATOM     31  C   UNL     1       2.242  -4.382  -3.803  0.00  0.00    +0.025 A 
ATOM     32  C   UNL     1       1.612  -3.904  -2.676  0.00  0.00    +0.017 A 
BRANCH  27  33
ATOM     33  C   UNL     1       0.808  -2.011  -1.274  0.00  0.00    +0.339 C 
ATOM     34  O   UNL     1       0.354  -2.784  -0.454  0.00  0.00    -0.245 OA
BRANCH  33  35
ATOM     35  O   UNL     1       0.691  -0.682  -1.084  0.00  0.00    -0.461 OA
BRANCH  35  37
ATOM     36  C   UNL     1      -0.016   1.276   0.145  0.00  0.00    +0.048 C 
ATOM     37  C   UNL     1       0.020  -0.254   0.103  0.00  0.00    +0.229 C 
ENDBRANCH  35  37
ENDBRANCH  33  35
ENDBRANCH  27  33
ENDBRANCH   1  30
TORSDOF 5
