REMARK  Name = ZINC09109633
REMARK  4 active torsions:
REMARK  status: ('A' for Active; 'I' for Inactive)
REMARK    1  A    between atoms: C_5  and  C_7
REMARK    2  A    between atoms: C_8  and  C_18
REMARK    3  A    between atoms: N_20  and  N_21
REMARK    4  A    between atoms: C_22  and  C_23
REMARK                            x       y       z     vdW  Elec       q    Type
REMARK                         _______ _______ _______ _____ _____    ______ ____
ROOT
ATOM      1  C   UNL     1       2.419   3.936   0.001  0.00  0.00    +0.110 A 
ATOM      2  C   UNL     1       3.146   4.360   1.108  0.00  0.00    +0.177 A 
ATOM      3  N   UNL     1       4.232   5.017   0.669  0.00  0.00    -0.124 NA
ATOM      4  N   UNL     1       4.244   5.039  -0.617  0.00  0.00    -0.058 NA
ATOM      5  N   UNL     1       3.115   4.360  -1.096  0.00  0.00    -0.187 N 
ATOM      6  C   UNL     1       2.768   4.158  -2.435  0.00  0.00    +0.241 A 
ATOM      7  C   UNL     1       3.530   4.622  -3.599  0.00  0.00    +0.206 A 
ATOM      8  N   UNL     1       2.900   4.247  -4.678  0.00  0.00    -0.032 NA
ATOM      9  O   UNL     1       1.735   3.546  -4.279  0.00  0.00    -0.239 OA
ATOM     10  N   UNL     1       1.715   3.521  -2.862  0.00  0.00    -0.027 NA
ATOM     11  N   UNL     1       4.721   5.338  -3.559  0.00  0.00    -0.337 N 
ATOM     12  H   UNL     1       5.118   5.573  -2.705  0.00  0.00    +0.144 HD
ATOM     13  H   UNL     1       5.156   5.603  -4.384  0.00  0.00    +0.144 HD
ENDROOT
BRANCH   1  18
ATOM     14  C   UNL     1      -0.013   1.076   0.008  0.00  0.00    +0.001 A 
ATOM     15  C   UNL     1      -1.222   1.750   0.017  0.00  0.00    +0.001 A 
ATOM     16  C   UNL     1      -1.250   3.132   0.031  0.00  0.00    +0.020 A 
ATOM     17  C   UNL     1      -0.071   3.850   0.023  0.00  0.00    +0.050 A 
ATOM     18  C   UNL     1       1.153   3.176   0.008  0.00  0.00    +0.021 A 
ATOM     19  C   UNL     1       1.173   1.780   0.000  0.00  0.00    +0.011 A 
ATOM     20 CL   UNL     1      -0.108   5.586   0.033  0.00  0.00    -0.083 Cl
ENDBRANCH   1  18
BRANCH   2  21
ATOM     21  C   UNL     1       2.787   4.129   2.517  0.00  0.00    +0.286 C 
ATOM     22  O   UNL     1       1.772   3.518   2.793  0.00  0.00    -0.267 OA
ATOM     23  N   UNL     1       3.582   4.596   3.500  0.00  0.00    -0.202 N 
ATOM     24  H   UNL     1       4.391   5.083   3.279  0.00  0.00    +0.178 HD
BRANCH  23  25
ATOM     25  N   UNL     1       3.240   4.376   4.841  0.00  0.00    -0.187 NA
ATOM     26  C   UNL     1       4.006   4.825   5.787  0.00  0.00    +0.141 C 
BRANCH  26  27
ATOM     27  C   UNL     1       3.647   4.594   7.198  0.00  0.00    +0.031 A 
ATOM     28  C   UNL     1       2.478   3.896   7.521  0.00  0.00    +0.051 A 
ATOM     29  C   UNL     1       2.151   3.679   8.844  0.00  0.00    +0.021 A 
ATOM     30  C   UNL     1       2.970   4.160   9.851  0.00  0.00    +0.003 A 
ATOM     31  C   UNL     1       4.125   4.855   9.540  0.00  0.00    +0.021 A 
ATOM     32  C   UNL     1       4.469   5.076   8.221  0.00  0.00    +0.051 A 
ATOM     33 CL   UNL     1       5.918   5.950   7.834  0.00  0.00    -0.083 Cl
ATOM     34 CL   UNL     1       1.446   3.299   6.260  0.00  0.00    -0.083 Cl
ENDBRANCH  26  27
ENDBRANCH  23  25
ENDBRANCH   2  21
TORSDOF 4
