REMARK  Name = ZINC31815037
REMARK  8 active torsions:
REMARK  status: ('A' for Active; 'I' for Inactive)
REMARK    1  A    between atoms: C_1  and  O_2
REMARK    2  A    between atoms: O_2  and  C_3
REMARK    3  A    between atoms: C_6  and  C_9
REMARK    4  A    between atoms: N_15  and  C_18
REMARK    5  A    between atoms: C_18  and  C_20
REMARK    6  A    between atoms: C_18  and  C_32
REMARK    7  A    between atoms: C_29  and  O_30
REMARK    8  A    between atoms: O_30  and  C_31
REMARK                            x       y       z     vdW  Elec       q    Type
REMARK                         _______ _______ _______ _____ _____    ______ ____
ROOT
ATOM      1  C   UNL     1      -4.129   2.136   4.684  0.00  0.00    +0.109 A 
ATOM      2  N   UNL     1      -2.806   2.099   4.724  0.00  0.00    -0.244 NA
ATOM      3  C   UNL     1      -2.072   1.821   3.657  0.00  0.00    +0.049 A 
ATOM      4  C   UNL     1      -2.736   1.569   2.491  0.00  0.00    -0.004 A 
ATOM      5  S   UNL     1      -4.435   1.740   2.965  0.00  0.00    -0.074 S 
ATOM      6  C   UNL     1      -2.141   1.238   1.166  0.00  0.00    -0.032 C 
ATOM      7  N   UNL     1      -0.700   1.560   1.217  0.00  0.00    +0.395 N 
ATOM      8  C   UNL     1      -0.087   0.995   2.427  0.00  0.00    -0.071 C 
ATOM      9  C   UNL     1      -0.546   1.767   3.666  0.00  0.00    +0.038 C 
ATOM     10  H   UNL     1      -0.588   2.653   1.256  0.00  0.00    -0.080 HD
ENDROOT
BRANCH   1  14
ATOM     11  C   UNL     1      -6.900   2.971   7.795  0.00  0.00    +0.120 A 
ATOM     12  C   UNL     1      -5.537   2.985   8.059  0.00  0.00    +0.046 A 
ATOM     13  C   UNL     1      -4.635   2.715   7.053  0.00  0.00    +0.014 A 
ATOM     14  C   UNL     1      -5.093   2.426   5.766  0.00  0.00    +0.007 A 
ATOM     15  C   UNL     1      -6.464   2.419   5.503  0.00  0.00    +0.014 A 
ATOM     16  C   UNL     1      -7.360   2.685   6.516  0.00  0.00    +0.046 A 
BRANCH  11  18
ATOM     17  C   UNL     1      -9.173   3.206   8.449  0.00  0.00    +0.277 C 
ATOM     18  O   UNL     1      -7.786   3.238   8.790  0.00  0.00    -0.495 OA
ENDBRANCH  11  18
ENDBRANCH   1  14
BRANCH   7  19
ATOM     19  C   UNL     1      -0.013   1.086   0.008  0.00  0.00    +0.080 C 
BRANCH  19  20
ATOM     20  C   UNL     1      -0.742   1.585  -1.213  0.00  0.00    -0.025 A 
ATOM     21  C   UNL     1      -1.527   2.671  -1.285  0.00  0.00    +0.086 A 
ATOM     22  N   UNL     1      -2.015   2.810  -2.555  0.00  0.00    -0.358 N 
ATOM     23  H   UNL     1      -2.675   3.654  -2.802  0.00  0.00    +0.165 HD
ATOM     24  C   UNL     1      -1.549   1.784  -3.350  0.00  0.00    +0.089 A 
ATOM     25  C   UNL     1      -0.732   0.973  -2.544  0.00  0.00    +0.005 A 
ATOM     26  C   UNL     1      -0.117  -0.157  -3.088  0.00  0.00    +0.010 A 
ATOM     27  C   UNL     1      -0.311  -0.470  -4.404  0.00  0.00    +0.004 A 
ATOM     28  C   UNL     1      -1.116   0.325  -5.207  0.00  0.00    +0.048 A 
ATOM     29  C   UNL     1      -1.735   1.448  -4.691  0.00  0.00    +0.144 A 
BRANCH  29  30
ATOM     30  O   UNL     1      -2.523   2.220  -5.486  0.00  0.00    -0.493 OA
ATOM     31  C   UNL     1      -2.666   1.813  -6.848  0.00  0.00    +0.277 C 
ENDBRANCH  29  30
ENDBRANCH  19  20
BRANCH  19  32
ATOM     32  C   UNL     1       1.401   1.607  -0.003  0.00  0.00    +0.347 C 
ATOM     33  O   UNL     1       1.796   2.303   0.903  0.00  0.00    -0.248 OA
ATOM     34  O   UNL     1       2.222   1.300  -1.019  0.00  0.00    -0.248 OA
ENDBRANCH  19  32
ENDBRANCH   7  19
TORSDOF 6
