REMARK  Name = ZINC38704776
REMARK  9 active torsions:
REMARK  status: ('A' for Active; 'I' for Inactive)
REMARK    1  A    between atoms: C_1  and  C_2
REMARK    2  A    between atoms: C_2  and  C_3
REMARK    3  A    between atoms: C_3  and  C_4
REMARK    4  A    between atoms: C_4  and  N_5
REMARK    5  A    between atoms: C_6  and  C_25
REMARK    6  A    between atoms: C_9  and  C_16
REMARK    7  A    between atoms: C_17  and  C_24
REMARK    8  A    between atoms: C_19  and  C_23
REMARK    9  A    between atoms: C_21  and  O_22
REMARK                            x       y       z     vdW  Elec       q    Type
REMARK                         _______ _______ _______ _____ _____    ______ ____
ROOT
ATOM      1  N   UNL     1       1.395  -2.549  -2.545  0.00  0.00    -0.285 N 
ATOM      2  C   UNL     1       0.819  -2.775  -3.877  0.00  0.00    +0.141 C 
ATOM      3  C   UNL     1       1.952  -3.248  -4.746  0.00  0.00    +0.035 A 
ATOM      4  C   UNL     1       2.370  -3.671  -6.012  0.00  0.00    +0.102 A 
ATOM      5  N   UNL     1       3.660  -3.930  -5.936  0.00  0.00    -0.173 NA
ATOM      6  N   UNL     1       4.099  -3.712  -4.747  0.00  0.00    -0.272 N 
ATOM      7  H   UNL     1       5.018  -3.835  -4.461  0.00  0.00    +0.189 HD
ATOM      8  C   UNL     1       3.079  -3.281  -3.947  0.00  0.00    +0.126 A 
ATOM      9  C   UNL     1       2.708  -2.841  -2.598  0.00  0.00    +0.265 C 
ATOM     10  O   UNL     1       3.477  -2.755  -1.659  0.00  0.00    -0.268 OA
ENDROOT
BRANCH   4  11
ATOM     11  C   UNL     1       1.517  -3.805  -7.219  0.00  0.00    +0.047 A 
ATOM     12  C   UNL     1       1.548  -4.977  -7.971  0.00  0.00    -0.037 A 
ATOM     13  C   UNL     1       0.752  -5.097  -9.093  0.00  0.00    +0.007 A 
ATOM     14  C   UNL     1      -0.076  -4.057  -9.474  0.00  0.00    -0.047 A 
ATOM     15  C   UNL     1      -0.115  -2.890  -8.735  0.00  0.00    +0.049 A 
ATOM     16  C   UNL     1       0.674  -2.758  -7.603  0.00  0.00    +0.127 A 
ATOM     17  C   UNL     1      -0.941  -4.197 -10.700  0.00  0.00    +0.044 C 
ATOM     18  C   UNL     1       2.450  -6.112  -7.561  0.00  0.00    +0.044 C 
BRANCH  16  19
ATOM     19  O   UNL     1       0.633  -1.613  -6.873  0.00  0.00    -0.506 OA
ATOM     20  H   UNL     1       1.214  -0.915  -7.204  0.00  0.00    +0.292 HD
ENDBRANCH  16  19
ENDBRANCH   4  11
BRANCH   2  21
ATOM     21  C   UNL     1      -0.256  -3.828  -3.805  0.00  0.00    -0.021 A 
ATOM     22  C   UNL     1      -0.036  -4.993  -3.093  0.00  0.00    +0.007 A 
ATOM     23  C   UNL     1      -1.021  -5.960  -3.027  0.00  0.00    +0.022 A 
ATOM     24  C   UNL     1      -2.228  -5.763  -3.673  0.00  0.00    +0.059 A 
ATOM     25  C   UNL     1      -2.449  -4.596  -4.385  0.00  0.00    +0.060 A 
ATOM     26  C   UNL     1      -1.464  -3.627  -4.446  0.00  0.00    +0.027 A 
ATOM     27 CL   UNL     1      -3.964  -4.347  -5.196  0.00  0.00    -0.082 Cl
ATOM     28 CL   UNL     1      -3.466  -6.977  -3.590  0.00  0.00    -0.082 Cl
ENDBRANCH   2  21
BRANCH   1  29
ATOM     29  C   UNL     1       0.668  -2.081  -1.363  0.00  0.00    +0.109 C 
BRANCH  29  30
ATOM     30  C   UNL     1       0.704  -0.552  -1.314  0.00  0.00    +0.019 C 
BRANCH  30  32
ATOM     31  C   UNL     1      -0.020   1.466  -0.032  0.00  0.00    +0.004 C 
ATOM     32  C   UNL     1      -0.056  -0.063  -0.080  0.00  0.00    -0.002 C 
ENDBRANCH  30  32
ENDBRANCH  29  30
ENDBRANCH   1  29
TORSDOF 6
