REMARK  Name = ZINC42747683
REMARK  6 active torsions:
REMARK  status: ('A' for Active; 'I' for Inactive)
REMARK    1  A    between atoms: C_1  and  C_2
REMARK    2  A    between atoms: C_6  and  C_24
REMARK    3  A    between atoms: N_9  and  S_10
REMARK    4  A    between atoms: S_10  and  C_13
REMARK    5  A    between atoms: C_16  and  O_20
REMARK    6  A    between atoms: O_20  and  C_21
REMARK                            x       y       z     vdW  Elec       q    Type
REMARK                         _______ _______ _______ _____ _____    ______ ____
ROOT
ATOM      1  S   UNL     1       1.415   0.561   2.252  0.00  0.00    +0.061 S 
ATOM      2  O   UNL     1       2.621  -0.009   2.743  0.00  0.00    -0.153 OA
ATOM      3  O   UNL     1       1.367   1.855   1.668  0.00  0.00    -0.153 OA
ENDROOT
BRANCH   1  10
ATOM      4  C   UNL     1      -0.409   1.456   0.281  0.00  0.00    +0.026 C 
ATOM      5  C   UNL     1      -0.192  -0.053   0.150  0.00  0.00    +0.077 C 
ATOM      6  C   UNL     1       0.303  -0.380  -1.263  0.00  0.00    +0.021 C 
ATOM      7  C   UNL     1       0.651  -1.868  -1.346  0.00  0.00    +0.015 C 
ATOM      8  C   UNL     1       1.772  -2.188  -0.355  0.00  0.00    +0.090 C 
ATOM      9  C   UNL     1       1.294  -1.881   1.068  0.00  0.00    +0.122 C 
ATOM     10  N   UNL     1       0.819  -0.492   1.122  0.00  0.00    -0.173 NA
BRANCH   8  11
ATOM     11  C   UNL     1       2.980  -1.344  -0.672  0.00  0.00    +0.215 C 
ATOM     12  O   UNL     1       3.418  -0.575   0.157  0.00  0.00    -0.276 OA
ATOM     13  N   UNL     1       3.573  -1.444  -1.878  0.00  0.00    -0.329 N 
ATOM     14  H   UNL     1       3.223  -2.058  -2.542  0.00  0.00    +0.145 HD
ATOM     15  H   UNL     1       4.351  -0.900  -2.083  0.00  0.00    +0.145 HD
ENDBRANCH   8  11
ENDBRANCH   1  10
BRANCH   1  16
ATOM     16  C   UNL     1       0.280   0.575   3.600  0.00  0.00    +0.107 A 
ATOM     17  C   UNL     1      -0.771   1.473   3.609  0.00  0.00    +0.032 A 
ATOM     18  C   UNL     1      -1.662   1.487   4.664  0.00  0.00    +0.049 A 
ATOM     19  C   UNL     1      -1.502   0.598   5.717  0.00  0.00    +0.145 A 
ATOM     20  C   UNL     1      -0.447  -0.304   5.707  0.00  0.00    +0.085 A 
ATOM     21  C   UNL     1       0.439  -0.317   4.645  0.00  0.00    +0.052 A 
ATOM     22 CL   UNL     1      -0.243  -1.418   7.022  0.00  0.00    -0.080 Cl
BRANCH  19  23
ATOM     23  O   UNL     1      -2.377   0.610   6.757  0.00  0.00    -0.433 OA
BRANCH  23  24
ATOM     24  C   UNL     1      -3.439   1.565   6.700  0.00  0.00    +0.541 C 
ATOM     25  F   UNL     1      -2.902   2.856   6.646  0.00  0.00    -0.166 F 
ATOM     26  F   UNL     1      -4.214   1.334   5.559  0.00  0.00    -0.166 F 
ENDBRANCH  23  24
ENDBRANCH  19  23
ENDBRANCH   1  16
TORSDOF 5
