REMARK  Name = ZINC00535187
REMARK  2 active torsions:
REMARK  status: ('A' for Active; 'I' for Inactive)
REMARK    1  A    between atoms: C_8  and  C_10
REMARK    2  A    between atoms: N_13  and  O_22
REMARK                            x       y       z     vdW  Elec       q    Type
REMARK                         _______ _______ _______ _____ _____    ______ ____
ROOT
ATOM      1  C   UNL     1      -3.552   3.208   0.035  0.00  0.00    +0.194 A 
ATOM      2  C   UNL     1      -3.583   1.737   0.027  0.00  0.00    +0.314 A 
ATOM      3  O   UNL     1      -4.645   1.143   0.029  0.00  0.00    -0.262 OA
ATOM      4  N   UNL     1      -2.417   1.055   0.019  0.00  0.00    -0.143 N 
ATOM      5  C   UNL     1      -1.226   1.756   0.017  0.00  0.00    +0.111 A 
ATOM      6  C   UNL     1      -0.013   1.076   0.008  0.00  0.00    +0.031 A 
ATOM      7  C   UNL     1       1.171   1.782   0.001  0.00  0.00    +0.002 A 
ATOM      8  C   UNL     1       1.163   3.171   0.008  0.00  0.00    +0.002 A 
ATOM      9  C   UNL     1      -0.015   3.859   0.023  0.00  0.00    +0.031 A 
ATOM     10  C   UNL     1      -1.234   3.163   0.031  0.00  0.00    +0.112 A 
ATOM     11  N   UNL     1      -2.397   3.843   0.046  0.00  0.00    -0.122 N 
ATOM     12  O   UNL     1      -2.379   5.258   0.053  0.00  0.00    -0.163 OA
ENDROOT
BRANCH   1  20
ATOM     13  C   UNL     1      -8.966   5.895   0.078  0.00  0.00    +0.001 A 
ATOM     14  C   UNL     1      -8.184   7.042   0.081  0.00  0.00    +0.004 A 
ATOM     15  C   UNL     1      -6.808   6.955   0.073  0.00  0.00    +0.047 A 
ATOM     16  C   UNL     1      -6.193   5.710   0.063  0.00  0.00    +0.136 A 
ATOM     17  C   UNL     1      -6.991   4.551   0.060  0.00  0.00    +0.021 A 
ATOM     18  C   UNL     1      -8.383   4.659   0.068  0.00  0.00    +0.011 A 
ATOM     19  C   UNL     1      -6.055   3.426   0.048  0.00  0.00    +0.060 A 
ATOM     20  C   UNL     1      -4.811   3.971   0.045  0.00  0.00    +0.161 A 
ATOM     21  O   UNL     1      -4.903   5.316   0.059  0.00  0.00    -0.453 OA
ENDBRANCH   1  20
BRANCH   4  22
ATOM     22  O   UNL     1      -2.415  -0.361   0.011  0.00  0.00    -0.423 OA
ATOM     23  H   UNL     1      -3.298  -0.756   0.013  0.00  0.00    +0.326 HD
ENDBRANCH   4  22
TORSDOF 2
