REMARK  Name = ZINC35675956
REMARK  3 active torsions:
REMARK  status: ('A' for Active; 'I' for Inactive)
REMARK    1  A    between atoms: C_3  and  O_9
REMARK    2  A    between atoms: O_9  and  C_10
REMARK    3  A    between atoms: C_13  and  N_19
REMARK                            x       y       z     vdW  Elec       q    Type
REMARK                         _______ _______ _______ _____ _____    ______ ____
ROOT
ATOM      1  C   UNL     1       3.378   3.457  -0.005  0.00  0.00    +0.159 A 
ATOM      2  C   UNL     1       2.130   3.987   0.073  0.00  0.00    +0.050 A 
ATOM      3  C   UNL     1       1.901   5.364   0.093  0.00  0.00    +0.029 A 
ATOM      4  C   UNL     1       2.913   6.272   0.035  0.00  0.00    +0.056 A 
ATOM      5  C   UNL     1       4.299   5.804  -0.051  0.00  0.00    +0.158 A 
ATOM      6  C   UNL     1       4.540   4.347  -0.066  0.00  0.00    +0.178 A 
ATOM      7  N   UNL     1       5.833   4.148  -0.140  0.00  0.00    -0.045 NA
ATOM      8  O   UNL     1       6.469   5.415  -0.170  0.00  0.00    -0.241 OA
ATOM      9  N   UNL     1       5.460   6.409  -0.118  0.00  0.00    -0.047 NA
ENDROOT
BRANCH   4  10
ATOM     10  N   UNL     1       2.632   7.639   0.058  0.00  0.00    -0.356 N 
ATOM     11  H   UNL     1       1.713   7.945   0.114  0.00  0.00    +0.142 HD
ATOM     12  H   UNL     1       3.356   8.284   0.016  0.00  0.00    +0.142 HD
ENDBRANCH   4  10
BRANCH   1  13
ATOM     13  O   UNL     1       3.548   2.108  -0.021  0.00  0.00    -0.451 OA
BRANCH  13  16
ATOM     14  C   UNL     1       4.200   1.585   3.520  0.00  0.00    +0.019 A 
ATOM     15  C   UNL     1       3.958   2.224   2.319  0.00  0.00    +0.050 A 
ATOM     16  C   UNL     1       3.788   1.481   1.161  0.00  0.00    +0.164 A 
ATOM     17  C   UNL     1       3.862   0.094   1.211  0.00  0.00    +0.166 A 
ATOM     18  C   UNL     1       4.105  -0.540   2.415  0.00  0.00    +0.057 A 
ATOM     19  C   UNL     1       4.274   0.205   3.569  0.00  0.00    +0.021 A 
ATOM     20 BR   UNL     1       4.607  -0.666   5.214  0.00  0.00    -0.050 Br
ATOM     21  F   UNL     1       3.696  -0.633   0.084  0.00  0.00    -0.202 F 
ENDBRANCH  13  16
ENDBRANCH   1  13
TORSDOF 3
