REMARK  Name = ZINC01381939
REMARK  6 active torsions:
REMARK  status: ('A' for Active; 'I' for Inactive)
REMARK    1  A    between atoms: C_1  and  C_2
REMARK    2  A    between atoms: C_2  and  C_16
REMARK    3  A    between atoms: N_6  and  C_8
REMARK    4  A    between atoms: N_25  and  N_28
REMARK    5  A    between atoms: N_28  and  C_29
REMARK    6  A    between atoms: C_33  and  C_36
REMARK                            x       y       z     vdW  Elec       q    Type
REMARK                         _______ _______ _______ _____ _____    ______ ____
ROOT
ATOM      1  C   UNL     1       0.346   3.921  -1.879  0.00  0.00    +0.113 C 
ATOM      2  N   UNL     1       1.492   4.355  -2.232  0.00  0.00    -0.089 NA
ATOM      3  O   UNL     1       2.471   4.234  -1.221  0.00  0.00    -0.380 OA
ATOM      4  C   UNL     1       1.977   3.317  -0.229  0.00  0.00    +0.309 C 
ATOM      5  C   UNL     1       0.435   3.400  -0.458  0.00  0.00    +0.180 C 
ATOM      6  C   UNL     1       0.040   1.935  -0.455  0.00  0.00    +0.252 C 
ATOM      7  O   UNL     1      -1.083   1.506  -0.294  0.00  0.00    -0.273 OA
ATOM      8  N   UNL     1       1.139   1.194  -0.658  0.00  0.00    -0.150 N 
ATOM      9  C   UNL     1       2.283   1.895  -0.655  0.00  0.00    +0.283 C 
ATOM     10  O   UNL     1       3.378   1.464  -0.946  0.00  0.00    -0.269 OA
ENDROOT
BRANCH   1  12
ATOM     11  C   UNL     1      -1.209   2.514  -3.228  0.00  0.00    +0.057 C 
ATOM     12  C   UNL     1      -0.894   3.927  -2.734  0.00  0.00    +0.143 C 
ATOM     13  N   UNL     1      -2.034   4.479  -1.984  0.00  0.00    -0.274 N 
ATOM     14  C   UNL     1      -2.442   5.577  -2.646  0.00  0.00    +0.322 C 
ATOM     15  O   UNL     1      -3.371   6.279  -2.296  0.00  0.00    -0.251 OA
ATOM     16  N   UNL     1      -1.699   5.801  -3.737  0.00  0.00    -0.185 N 
ATOM     17  N   UNL     1      -0.730   4.849  -3.876  0.00  0.00    -0.204 NA
ATOM     18  H   UNL     1      -2.418   4.119  -1.169  0.00  0.00    +0.152 HD
ATOM     19  H   UNL     1      -0.827   4.359  -4.753  0.00  0.00    +0.148 HD
BRANCH  16  20
ATOM     20  C   UNL     1      -1.891   6.871  -4.621  0.00  0.00    +0.073 A 
ATOM     21  C   UNL     1      -2.813   6.764  -5.653  0.00  0.00    +0.028 A 
ATOM     22  C   UNL     1      -3.005   7.823  -6.519  0.00  0.00    +0.022 A 
ATOM     23  C   UNL     1      -2.271   8.986  -6.366  0.00  0.00    +0.042 A 
ATOM     24  C   UNL     1      -1.346   9.094  -5.342  0.00  0.00    +0.042 A 
ATOM     25  C   UNL     1      -1.154   8.040  -4.469  0.00  0.00    +0.065 A 
ATOM     26 CL   UNL     1       0.006   8.175  -3.185  0.00  0.00    -0.082 Cl
ATOM     27 CL   UNL     1      -2.510  10.312  -7.461  0.00  0.00    -0.083 Cl
ENDBRANCH  16  20
ENDBRANCH   1  12
BRANCH   8  28
ATOM     28  N   UNL     1       1.097  -0.191  -0.860  0.00  0.00    -0.227 N 
ATOM     29  C   UNL     1       1.185  -1.102   0.284  0.00  0.00    +0.156 C 
ATOM     30  C   UNL     1       0.970  -0.702  -2.147  0.00  0.00    +0.156 A 
ATOM     31  C   UNL     1      -0.283  -1.090  -2.616  0.00  0.00    +0.083 A 
ATOM     32  C   UNL     1      -0.395  -1.592  -3.900  0.00  0.00    +0.037 A 
ATOM     33  C   UNL     1       0.755  -1.700  -4.672  0.00  0.00    +0.074 A 
ATOM     34  C   UNL     1       1.965  -1.301  -4.142  0.00  0.00    +0.125 A 
ATOM     35  N   UNL     1       2.042  -0.821  -2.915  0.00  0.00    -0.237 NA
ATOM     36 CL   UNL     1      -1.686  -0.939  -1.605  0.00  0.00    -0.080 Cl
BRANCH  33  37
ATOM     37  C   UNL     1       0.682  -2.247  -6.074  0.00  0.00    +0.419 C 
ATOM     38  F   UNL     1       1.962  -2.255  -6.639  0.00  0.00    -0.166 F 
ATOM     39  F   UNL     1       0.179  -3.552  -6.040  0.00  0.00    -0.166 F 
ATOM     40  F   UNL     1      -0.163  -1.442  -6.846  0.00  0.00    -0.166 F 
ENDBRANCH  33  37
ENDBRANCH   8  28
TORSDOF 4
