REMARK  Name = ZINC37402177
REMARK  15 active torsions:
REMARK  status: ('A' for Active; 'I' for Inactive)
REMARK    1  A    between atoms: C_1  and  C_2
REMARK    2  A    between atoms: C_2  and  C_41
REMARK    3  A    between atoms: C_7  and  C_24
REMARK    4  A    between atoms: C_7  and  O_32
REMARK    5  A    between atoms: C_9  and  O_14
REMARK    6  A    between atoms: O_14  and  C_15
REMARK    7  A    between atoms: C_15  and  C_16
REMARK    8  A    between atoms: C_19  and  C_22
REMARK    9  A    between atoms: N_26  and  C_27
REMARK   10  A    between atoms: C_27  and  C_28
REMARK   11  A    between atoms: C_28  and  N_29
REMARK   12  A    between atoms: N_29  and  C_30
REMARK   13  A    between atoms: N_29  and  C_31
REMARK   14  A    between atoms: O_32  and  C_33
REMARK   15  A    between atoms: C_33  and  C_34
REMARK                            x       y       z     vdW  Elec       q    Type
REMARK                         _______ _______ _______ _____ _____    ______ ____
ROOT
ATOM      1  C   UNL     1      -0.866   0.902  -0.024  0.00  0.00    +0.074 C 
ATOM      2  C   UNL     1      -0.555  -0.596  -0.006  0.00  0.00    +0.165 C 
ATOM      3  O   UNL     1       0.223  -0.941  -1.162  0.00  0.00    -0.343 OA
ATOM      4  C   UNL     1       1.459  -1.531  -0.676  0.00  0.00    +0.156 C 
ATOM      5  C   UNL     1       1.213  -3.040  -0.600  0.00  0.00    +0.079 C 
ATOM      6  C   UNL     1       2.267  -3.720   0.269  0.00  0.00    +0.150 C 
ATOM      7  C   UNL     1       2.156  -3.163   1.693  0.00  0.00    +0.079 C 
ATOM      8  C   UNL     1       2.491  -1.673   1.651  0.00  0.00    +0.153 C 
ATOM      9  C   UNL     1       1.567  -0.908   0.727  0.00  0.00    +0.179 C 
ATOM     10  O   UNL     1       0.201  -0.921   1.177  0.00  0.00    -0.341 OA
ATOM     11  C   UNL     1      -1.863  -1.392  -0.015  0.00  0.00    +0.074 C 
ENDROOT
BRANCH   6  12
ATOM     12  C   UNL     1       3.640  -3.433  -0.282  0.00  0.00    +0.245 C 
ATOM     13  O   UNL     1       3.824  -2.450  -0.968  0.00  0.00    -0.273 OA
ATOM     14  N   UNL     1       4.663  -4.268  -0.012  0.00  0.00    -0.315 N 
ATOM     15  H   UNL     1       4.502  -5.089   0.479  0.00  0.00    +0.149 HD
BRANCH  14  16
ATOM     16  C   UNL     1       6.017  -3.936  -0.461  0.00  0.00    +0.086 C 
BRANCH  16  17
ATOM     17  C   UNL     1       6.983  -5.041  -0.028  0.00  0.00    -0.061 C 
BRANCH  17  18
ATOM     18  N   UNL     1       8.341  -4.708  -0.478  0.00  0.00    +0.377 N 
ATOM     19  C   UNL     1       9.286  -5.707   0.039  0.00  0.00    -0.097 C 
ATOM     20  C   UNL     1       8.384  -4.707  -1.946  0.00  0.00    -0.097 C 
ATOM     21  H   UNL     1       8.595  -3.795  -0.133  0.00  0.00    -0.083 HD
ENDBRANCH  17  18
ENDBRANCH  16  17
ENDBRANCH  14  16
ENDBRANCH   6  12
BRANCH   8  22
ATOM     22  O   UNL     1       2.382  -1.133   2.970  0.00  0.00    -0.369 OA
BRANCH  22  23
ATOM     23  C   UNL     1       3.596  -1.189   3.723  0.00  0.00    +0.195 C 
BRANCH  23  24
ATOM     24  C   UNL     1       3.367  -0.596   5.089  0.00  0.00    -0.022 A 
ATOM     25  C   UNL     1       3.566   0.758   5.294  0.00  0.00    +0.007 A 
ATOM     26  C   UNL     1       3.359   1.307   6.543  0.00  0.00    +0.019 A 
ATOM     27  C   UNL     1       2.946   0.494   7.600  0.00  0.00    +0.052 A 
ATOM     28  C   UNL     1       2.746  -0.871   7.386  0.00  0.00    +0.019 A 
ATOM     29  C   UNL     1       2.953  -1.407   6.131  0.00  0.00    +0.007 A 
BRANCH  27  30
ATOM     30  C   UNL     1       2.729   1.057   8.898  0.00  0.00    +0.099 C 
ATOM     31  N   UNL     1       2.557   1.504   9.928  0.00  0.00    -0.191 NA
ENDBRANCH  27  30
ENDBRANCH  23  24
ENDBRANCH  22  23
ENDBRANCH   8  22
BRANCH   6  32
ATOM     32  O   UNL     1       2.038  -5.130   0.286  0.00  0.00    -0.359 OA
BRANCH  32  33
ATOM     33  C   UNL     1       0.735  -5.503   0.741  0.00  0.00    +0.199 C 
BRANCH  33  34
ATOM     34  C   UNL     1       0.576  -6.997   0.640  0.00  0.00    +0.013 A 
ATOM     35  C   UNL     1       1.617  -7.773   0.165  0.00  0.00    +0.009 A 
ATOM     36  C   UNL     1       1.470  -9.145   0.072  0.00  0.00    +0.001 A 
ATOM     37  C   UNL     1       0.283  -9.742   0.453  0.00  0.00    +0.003 A 
ATOM     38  C   UNL     1      -0.759  -8.968   0.928  0.00  0.00    +0.039 A 
ATOM     39  C   UNL     1      -0.612  -7.595   1.027  0.00  0.00    +0.129 A 
ATOM     40  F   UNL     1      -1.628  -6.838   1.496  0.00  0.00    -0.205 F 
ENDBRANCH  33  34
ENDBRANCH  32  33
ENDBRANCH   6  32
TORSDOF 11
