REMARK  Name = ZINC00718429
REMARK  11 active torsions:
REMARK  status: ('A' for Active; 'I' for Inactive)
REMARK    1  A    between atoms: C_1  and  C_2
REMARK    2  A    between atoms: C_2  and  O_3
REMARK    3  A    between atoms: O_3  and  C_4
REMARK    4  A    between atoms: C_6  and  C_20
REMARK    5  A    between atoms: C_9  and  O_10
REMARK    6  A    between atoms: O_10  and  C_11
REMARK    7  A    between atoms: C_23  and  C_34
REMARK    8  A    between atoms: C_29  and  N_33
REMARK    9  A    between atoms: C_30  and  C_31
REMARK   10  A    between atoms: C_37  and  O_40
REMARK   11  A    between atoms: O_40  and  C_41
REMARK                            x       y       z     vdW  Elec       q    Type
REMARK                         _______ _______ _______ _____ _____    ______ ____
ROOT
ATOM      1  C   UNL     1      -0.298  -4.998   0.586  0.00  0.00    +0.102 C 
ATOM      2  C   UNL     1       0.805  -5.934   1.006  0.00  0.00    +0.054 A 
ATOM      3  C   UNL     1       1.936  -5.676   1.786  0.00  0.00    +0.100 A 
ATOM      4  N   UNL     1       2.622  -6.798   1.891  0.00  0.00    -0.171 NA
ATOM      5  N   UNL     1       1.943  -7.799   1.180  0.00  0.00    -0.246 N 
ATOM      6  H   UNL     1       2.222  -8.724   1.089  0.00  0.00    +0.192 HD
ATOM      7  C   UNL     1       0.832  -7.250   0.646  0.00  0.00    +0.223 A 
ATOM      8  O   UNL     1      -0.134  -7.821  -0.116  0.00  0.00    -0.423 OA
ATOM      9  C   UNL     1      -1.279  -7.131  -0.294  0.00  0.00    +0.200 C 
ATOM     10  C   UNL     1      -1.424  -5.822   0.013  0.00  0.00    +0.098 C 
ENDROOT
BRANCH   1  13
ATOM     11  C   UNL     1       0.581  -1.798  -1.221  0.00  0.00    +0.164 A 
ATOM     12  C   UNL     1       0.108  -2.679  -0.261  0.00  0.00    +0.054 A 
ATOM     13  C   UNL     1       0.216  -4.042  -0.460  0.00  0.00    -0.030 A 
ATOM     14  C   UNL     1       0.797  -4.532  -1.615  0.00  0.00    +0.023 A 
ATOM     15  C   UNL     1       1.270  -3.659  -2.578  0.00  0.00    +0.064 A 
ATOM     16  C   UNL     1       1.159  -2.290  -2.387  0.00  0.00    +0.188 A 
ATOM     17 BR   UNL     1       2.064  -4.332  -4.157  0.00  0.00    -0.046 Br
BRANCH  11  18
ATOM     18  O   UNL     1       0.475  -0.457  -1.027  0.00  0.00    -0.489 OA
BRANCH  18  20
ATOM     19  C   UNL     1      -0.161   1.505   0.233  0.00  0.00    +0.048 C 
ATOM     20  C   UNL     1      -0.130  -0.024   0.193  0.00  0.00    +0.226 C 
ENDBRANCH  18  20
ENDBRANCH  11  18
BRANCH  16  21
ATOM     21  O   UNL     1       1.620  -1.430  -3.335  0.00  0.00    -0.407 OA
BRANCH  21  22
ATOM     22  C   UNL     1       2.900  -1.022  -3.250  0.00  0.00    +0.408 C 
ATOM     23  O   UNL     1       3.607  -1.423  -2.346  0.00  0.00    -0.226 OA
ATOM     24  N   UNL     1       3.399  -0.170  -4.168  0.00  0.00    -0.263 N 
ATOM     25  C   UNL     1       2.561   0.333  -5.268  0.00  0.00    +0.139 C 
ATOM     26  C   UNL     1       2.686   1.860  -5.312  0.00  0.00    +0.179 C 
ATOM     27  O   UNL     1       4.069   2.218  -5.352  0.00  0.00    -0.377 OA
ATOM     28  C   UNL     1       4.812   1.814  -4.199  0.00  0.00    +0.179 C 
ATOM     29  C   UNL     1       4.795   0.289  -4.096  0.00  0.00    +0.139 C 
ENDBRANCH  21  22
ENDBRANCH  16  21
ENDBRANCH   1  13
BRANCH   3  30
ATOM     30  C   UNL     1       2.301  -4.369   2.388  0.00  0.00    +0.003 A 
ATOM     31  C   UNL     1       1.323  -3.580   2.990  0.00  0.00    +0.013 A 
ATOM     32  C   UNL     1       1.666  -2.367   3.549  0.00  0.00    +0.046 A 
ATOM     33  C   UNL     1       2.983  -1.931   3.512  0.00  0.00    +0.120 A 
ATOM     34  C   UNL     1       3.960  -2.715   2.912  0.00  0.00    +0.046 A 
ATOM     35  C   UNL     1       3.624  -3.932   2.357  0.00  0.00    +0.013 A 
BRANCH  33  36
ATOM     36  O   UNL     1       3.318  -0.735   4.064  0.00  0.00    -0.495 OA
ATOM     37  C   UNL     1       4.691  -0.348   3.990  0.00  0.00    +0.277 C 
ENDBRANCH  33  36
ENDBRANCH   3  30
BRANCH   9  38
ATOM     38  N   UNL     1      -2.360  -7.795  -0.817  0.00  0.00    -0.328 N 
ATOM     39  H   UNL     1      -2.288  -8.735  -1.046  0.00  0.00    +0.145 HD
ATOM     40  H   UNL     1      -3.197  -7.325  -0.956  0.00  0.00    +0.145 HD
ENDBRANCH   9  38
BRANCH  10  41
ATOM     41  C   UNL     1      -2.691  -5.195  -0.215  0.00  0.00    +0.101 C 
ATOM     42  N   UNL     1      -3.697  -4.697  -0.395  0.00  0.00    -0.191 NA
ENDBRANCH  10  41
TORSDOF 9
