REMARK  Name = ZINC19848410
REMARK  7 active torsions:
REMARK  status: ('A' for Active; 'I' for Inactive)
REMARK    1  A    between atoms: C_1  and  O_2
REMARK    2  A    between atoms: O_2  and  C_3
REMARK    3  A    between atoms: C_3  and  O_22
REMARK    4  A    between atoms: C_4  and  C_20
REMARK    5  A    between atoms: C_5  and  C_13
REMARK    6  A    between atoms: C_7  and  C_11
REMARK    7  A    between atoms: O_22  and  C_23
REMARK                            x       y       z     vdW  Elec       q    Type
REMARK                         _______ _______ _______ _____ _____    ______ ____
ROOT
ATOM      1  C   UNL     1      -1.217  -0.587   0.274  0.00  0.00    +0.294 C 
ATOM      2  C   UNL     1      -1.300  -2.056   0.728  0.00  0.00    +0.167 C 
ATOM      3  C   UNL     1      -2.681  -2.708   0.827  0.00  0.00    +0.077 C 
ATOM      4  C   UNL     1      -2.105  -1.973   2.039  0.00  0.00    +0.146 C 
ATOM      5  C   UNL     1      -2.418  -0.509   2.223  0.00  0.00    +0.116 C 
ATOM      6  N   UNL     1      -1.935   0.202   1.273  0.00  0.00    -0.211 NA
ATOM      7  N   UNL     1      -3.131  -0.003   3.277  0.00  0.00    -0.345 N 
ATOM      8  H   UNL     1      -3.471  -0.597   3.964  0.00  0.00    +0.143 HD
ATOM      9  H   UNL     1      -3.298   0.951   3.336  0.00  0.00    +0.143 HD
ENDROOT
BRANCH   3  10
ATOM     10  C   UNL     1      -2.736  -4.213   0.891  0.00  0.00    -0.040 A 
ATOM     11  C   UNL     1      -3.085  -4.843   2.071  0.00  0.00    +0.005 A 
ATOM     12  C   UNL     1      -3.135  -6.223   2.130  0.00  0.00    +0.020 A 
ATOM     13  C   UNL     1      -2.836  -6.974   1.007  0.00  0.00    +0.041 A 
ATOM     14  C   UNL     1      -2.486  -6.343  -0.174  0.00  0.00    +0.020 A 
ATOM     15  C   UNL     1      -2.442  -4.963  -0.233  0.00  0.00    +0.005 A 
ATOM     16 CL   UNL     1      -2.898  -8.707   1.080  0.00  0.00    -0.084 Cl
ENDBRANCH   3  10
BRANCH   1  18
ATOM     17  C   UNL     1       0.322   1.201  -0.148  0.00  0.00    +0.199 C 
ATOM     18  O   UNL     1       0.148  -0.171   0.210  0.00  0.00    -0.333 OA
ENDBRANCH   1  18
BRANCH   4  19
ATOM     19  C   UNL     1      -1.713  -2.744   3.229  0.00  0.00    +0.079 C 
ATOM     20  N   UNL     1      -1.410  -3.340   4.148  0.00  0.00    -0.195 NA
ENDBRANCH   4  19
BRANCH   2  21
ATOM     21  C   UNL     1      -0.094  -2.888   0.591  0.00  0.00    +0.080 C 
ATOM     22  N   UNL     1       0.837  -3.530   0.485  0.00  0.00    -0.196 NA
ENDBRANCH   2  21
BRANCH   1  23
ATOM     23  O   UNL     1      -1.835  -0.434  -1.006  0.00  0.00    -0.333 OA
ATOM     24  C   UNL     1      -1.147  -1.099  -2.067  0.00  0.00    +0.199 C 
ENDBRANCH   1  23
TORSDOF 5
