REMARK  Name = ZINC08723688
REMARK  6 active torsions:
REMARK  status: ('A' for Active; 'I' for Inactive)
REMARK    1  A    between atoms: N_7  and  C_15
REMARK    2  A    between atoms: C_9  and  C_12
REMARK    3  A    between atoms: C_15  and  C_16
REMARK    4  A    between atoms: N_18  and  C_19
REMARK    5  A    between atoms: C_22  and  S_25
REMARK    6  A    between atoms: S_25  and  N_28
REMARK                            x       y       z     vdW  Elec       q    Type
REMARK                         _______ _______ _______ _____ _____    ______ ____
ROOT
ATOM      1  C   UNL     1       0.083   4.143   0.487  0.00  0.00    +0.235 C 
ATOM      2  O   UNL     1      -0.828   3.527   1.000  0.00  0.00    -0.274 OA
ATOM      3  N   UNL     1       1.140   3.480  -0.024  0.00  0.00    -0.284 N 
ATOM      4  H   UNL     1       1.902   3.973  -0.366  0.00  0.00    +0.155 HD
ENDROOT
BRANCH   3   5
ATOM      5  C   UNL     1       1.138   2.082  -0.060  0.00  0.00    +0.034 A 
ATOM      6  C   UNL     1      -0.053   1.392  -0.248  0.00  0.00    +0.025 A 
ATOM      7  C   UNL     1      -0.051   0.011  -0.284  0.00  0.00    +0.030 A 
ATOM      8  C   UNL     1       1.135  -0.684  -0.133  0.00  0.00    +0.106 A 
ATOM      9  C   UNL     1       2.322  -0.001   0.056  0.00  0.00    +0.030 A 
ATOM     10  C   UNL     1       2.327   1.380   0.093  0.00  0.00    +0.025 A 
BRANCH   8  11
ATOM     11  S   UNL     1       1.132  -2.446  -0.180  0.00  0.00    +0.061 S 
ATOM     12  O   UNL     1       2.287  -2.872   0.531  0.00  0.00    -0.153 OA
ATOM     13  O   UNL     1      -0.179  -2.860   0.178  0.00  0.00    -0.153 OA
BRANCH  11  14
ATOM     14  N   UNL     1       1.356  -2.894  -1.758  0.00  0.00    -0.177 NA
ATOM     15  C   UNL     1       0.193  -3.081  -2.597  0.00  0.00    +0.109 C 
ATOM     16  C   UNL     1      -0.298  -4.540  -2.496  0.00  0.00    +0.017 C 
ATOM     17  C   UNL     1       0.642  -5.443  -3.179  0.00  0.00    +0.001 C 
ATOM     18  C   UNL     1       2.041  -5.471  -2.570  0.00  0.00    +0.001 C 
ATOM     19  C   UNL     1       2.858  -4.339  -3.143  0.00  0.00    +0.017 C 
ATOM     20  C   UNL     1       2.734  -3.092  -2.249  0.00  0.00    +0.109 C 
ENDBRANCH  11  14
ENDBRANCH   8  11
ENDBRANCH   3   5
BRANCH   1  21
ATOM     21  C   UNL     1       0.033   5.647   0.422  0.00  0.00    +0.201 C 
BRANCH  21  28
ATOM     22  C   UNL     1      -3.530   4.890  -1.355  0.00  0.00    +0.002 A 
ATOM     23  C   UNL     1      -4.619   4.565  -0.567  0.00  0.00    +0.004 A 
ATOM     24  C   UNL     1      -4.564   4.753   0.800  0.00  0.00    +0.047 A 
ATOM     25  C   UNL     1      -3.417   5.269   1.389  0.00  0.00    +0.143 A 
ATOM     26  C   UNL     1      -2.323   5.601   0.599  0.00  0.00    +0.073 A 
ATOM     27  C   UNL     1      -2.387   5.406  -0.778  0.00  0.00    +0.027 A 
ATOM     28  N   UNL     1      -1.150   6.130   1.146  0.00  0.00    -0.314 N 
ATOM     29  C   UNL     1      -1.037   5.853   2.583  0.00  0.00    +0.160 C 
ATOM     30  C   UNL     1      -2.348   6.263   3.265  0.00  0.00    +0.275 C 
ATOM     31  O   UNL     1      -3.394   5.439   2.739  0.00  0.00    -0.476 OA
BRANCH  30  32
ATOM     32  C   UNL     1      -2.235   6.055   4.754  0.00  0.00    +0.253 C 
ATOM     33  O   UNL     1      -2.934   5.232   5.306  0.00  0.00    -0.272 OA
ATOM     34  N   UNL     1      -1.358   6.785   5.471  0.00  0.00    -0.326 N 
ATOM     35  H   UNL     1      -0.799   7.443   5.029  0.00  0.00    +0.145 HD
ATOM     36  H   UNL     1      -1.285   6.651   6.429  0.00  0.00    +0.145 HD
ENDBRANCH  30  32
ENDBRANCH  21  28
ENDBRANCH   1  21
TORSDOF 6
