REMARK  Name = ZINC20916194
REMARK  11 active torsions:
REMARK  status: ('A' for Active; 'I' for Inactive)
REMARK    1  A    between atoms: C_1  and  C_2
REMARK    2  A    between atoms: C_2  and  N_3
REMARK    3  A    between atoms: N_3  and  C_4
REMARK    4  A    between atoms: N_3  and  C_11
REMARK    5  A    between atoms: C_4  and  C_5
REMARK    6  A    between atoms: C_14  and  C_17
REMARK    7  A    between atoms: C_18  and  C_19
REMARK    8  A    between atoms: C_18  and  C_21
REMARK    9  A    between atoms: N_23  and  C_24
REMARK   10  A    between atoms: C_27  and  S_30
REMARK   11  A    between atoms: S_30  and  N_33
REMARK                            x       y       z     vdW  Elec       q    Type
REMARK                         _______ _______ _______ _____ _____    ______ ____
ROOT
ATOM      1  C   UNL     1       7.240   2.928  -4.077  0.00  0.00    +0.032 C 
ATOM      2  C   UNL     1       7.239   2.974  -5.455  0.00  0.00    +0.114 C 
ENDROOT
BRANCH   1   6
ATOM      3  C   UNL     1       5.043  -0.068  -2.061  0.00  0.00    +0.030 A 
ATOM      4  C   UNL     1       5.279   1.157  -1.440  0.00  0.00    +0.024 A 
ATOM      5  C   UNL     1       5.992   2.126  -2.084  0.00  0.00    +0.010 A 
ATOM      6  C   UNL     1       6.479   1.891  -3.379  0.00  0.00    -0.024 A 
ATOM      7  C   UNL     1       6.235   0.657  -4.002  0.00  0.00    +0.010 A 
ATOM      8  C   UNL     1       5.525  -0.307  -3.347  0.00  0.00    +0.024 A 
BRANCH   3   9
ATOM      9  N   UNL     1       4.322  -1.053  -1.399  0.00  0.00    -0.326 N 
BRANCH   9  11
ATOM     10  C   UNL     1       2.756  -2.265  -2.835  0.00  0.00    +0.024 C 
ATOM     11  C   UNL     1       4.068  -2.340  -2.052  0.00  0.00    +0.102 C 
ENDBRANCH   9  11
BRANCH   9  12
ATOM     12  C   UNL     1       3.814  -0.805  -0.047  0.00  0.00    +0.140 C 
BRANCH  12  13
ATOM     13  C   UNL     1       2.435  -0.205  -0.131  0.00  0.00    -0.030 A 
ATOM     14  C   UNL     1       1.323  -1.027  -0.147  0.00  0.00    +0.005 A 
ATOM     15  C   UNL     1       0.058  -0.476  -0.225  0.00  0.00    +0.000 A 
ATOM     16  C   UNL     1      -0.096   0.896  -0.285  0.00  0.00    +0.000 A 
ATOM     17  C   UNL     1       1.015   1.718  -0.268  0.00  0.00    +0.000 A 
ATOM     18  C   UNL     1       2.281   1.167  -0.191  0.00  0.00    +0.005 A 
ENDBRANCH  12  13
ENDBRANCH   9  12
ENDBRANCH   3   9
ENDBRANCH   1   6
BRANCH   2  19
ATOM     19  C   UNL     1       8.143   3.895  -6.160  0.00  0.00    +0.259 C 
ATOM     20  O   UNL     1       8.892   4.616  -5.527  0.00  0.00    -0.269 OA
ATOM     21  N   UNL     1       8.142   3.941  -7.507  0.00  0.00    -0.281 N 
ATOM     22  H   UNL     1       7.407   3.354  -8.076  0.00  0.00    +0.155 HD
BRANCH  21  23
ATOM     23  C   UNL     1       9.076   4.735  -8.180  0.00  0.00    +0.034 A 
ATOM     24  C   UNL     1       8.782   5.238  -9.441  0.00  0.00    +0.025 A 
ATOM     25  C   UNL     1       9.704   6.026 -10.101  0.00  0.00    +0.030 A 
ATOM     26  C   UNL     1      10.924   6.306  -9.512  0.00  0.00    +0.105 A 
ATOM     27  C   UNL     1      11.223   5.801  -8.260  0.00  0.00    +0.030 A 
ATOM     28  C   UNL     1      10.302   5.017  -7.592  0.00  0.00    +0.025 A 
BRANCH  26  29
ATOM     29  S   UNL     1      12.100   7.307 -10.361  0.00  0.00    +0.056 S 
ATOM     30  O   UNL     1      11.367   8.104 -11.280  0.00  0.00    -0.153 OA
ATOM     31  O   UNL     1      12.944   7.871  -9.367  0.00  0.00    -0.153 OA
BRANCH  29  32
ATOM     32  N   UNL     1      13.046   6.291 -11.265  0.00  0.00    -0.204 NA
ATOM     33  H   UNL     1      13.796   6.880 -11.812  0.00  0.00    +0.144 HD
ATOM     34  H   UNL     1      12.415   5.744 -11.981  0.00  0.00    +0.144 HD
ENDBRANCH  29  32
ENDBRANCH  26  29
ENDBRANCH  21  23
ENDBRANCH   2  19
BRANCH   2  35
ATOM     35  C   UNL     1       6.358   2.126  -6.199  0.00  0.00    +0.104 C 
ATOM     36  N   UNL     1       5.659   1.453  -6.790  0.00  0.00    -0.191 NA
ENDBRANCH   2  35
TORSDOF 10
