REMARK  Name = ZINC20507854
REMARK  9 active torsions:
REMARK  status: ('A' for Active; 'I' for Inactive)
REMARK    1  A    between atoms: C_1  and  N_2
REMARK    2  A    between atoms: C_3  and  C_34
REMARK    3  A    between atoms: C_5  and  C_15
REMARK    4  A    between atoms: N_17  and  C_18
REMARK    5  A    between atoms: C_18  and  C_19
REMARK    6  A    between atoms: C_19  and  C_20
REMARK    7  A    between atoms: C_20  and  N_21
REMARK    8  A    between atoms: N_24  and  C_27
REMARK    9  A    between atoms: C_27  and  C_28
REMARK                            x       y       z     vdW  Elec       q    Type
REMARK                         _______ _______ _______ _____ _____    ______ ____
ROOT
ATOM      1  C   UNL     1       0.004   1.837  -4.022  0.00  0.00    +0.223 C 
ATOM      2  O   UNL     1      -1.151   1.834  -3.652  0.00  0.00    -0.275 OA
ATOM      3  N   UNL     1       0.938   2.496  -3.307  0.00  0.00    -0.315 N 
ATOM      4  H   UNL     1       1.986   2.500  -3.642  0.00  0.00    +0.149 HD
ENDROOT
BRANCH   1   8
ATOM      5  C   UNL     1      -3.220   1.171  -6.173  0.00  0.00    +0.133 C 
ATOM      6  N   UNL     1      -1.909   0.557  -5.949  0.00  0.00    -0.292 N 
ATOM      7  C   UNL     1      -0.699   1.283  -6.329  0.00  0.00    +0.129 C 
ATOM      8  C   UNL     1       0.395   1.106  -5.280  0.00  0.00    +0.131 C 
ATOM      9  C   UNL     1       0.580  -0.356  -4.970  0.00  0.00    -0.021 A 
ATOM     10  C   UNL     1       1.826  -0.849  -4.636  0.00  0.00    +0.005 A 
ATOM     11  C   UNL     1       1.979  -2.191  -4.333  0.00  0.00    +0.000 A 
ATOM     12  C   UNL     1       0.889  -3.043  -4.358  0.00  0.00    +0.001 A 
ATOM     13  C   UNL     1      -0.360  -2.561  -4.695  0.00  0.00    +0.013 A 
ATOM     14  C   UNL     1      -0.515  -1.216  -5.020  0.00  0.00    +0.041 A 
ATOM     15  C   UNL     1      -1.836  -0.669  -5.395  0.00  0.00    +0.247 C 
ATOM     16  O   UNL     1      -2.846  -1.318  -5.205  0.00  0.00    -0.270 OA
BRANCH   7  17
ATOM     17  C   UNL     1      -1.024   2.749  -6.465  0.00  0.00    +0.011 A 
ATOM     18  C   UNL     1      -1.869   3.360  -7.330  0.00  0.00    +0.013 A 
ATOM     19  C   UNL     1      -2.011   4.733  -7.272  0.00  0.00    +0.008 A 
ATOM     20  C   UNL     1      -1.301   5.429  -6.350  0.00  0.00    +0.045 A 
ATOM     21  S   UNL     1      -0.400   4.130  -5.521  0.00  0.00    -0.100 S 
ENDBRANCH   7  17
ENDBRANCH   1   8
BRANCH   3  22
ATOM     22  C   UNL     1       0.558   3.207  -2.084  0.00  0.00    +0.102 C 
BRANCH  22  23
ATOM     23  C   UNL     1       1.796   3.864  -1.470  0.00  0.00    +0.000 C 
BRANCH  23  24
ATOM     24  C   UNL     1       1.399   4.607  -0.193  0.00  0.00    -0.077 C 
BRANCH  24  25
ATOM     25  N   UNL     1       2.587   5.238   0.396  0.00  0.00    +0.381 N 
ATOM     26  C   UNL     1       3.542   4.225   0.867  0.00  0.00    -0.063 C 
ATOM     27  C   UNL     1       4.798   4.920   1.399  0.00  0.00    +0.066 C 
ATOM     28  N   UNL     1       4.424   5.834   2.488  0.00  0.00    -0.302 NA
ATOM     29  C   UNL     1       3.469   6.847   2.018  0.00  0.00    +0.066 C 
ATOM     30  C   UNL     1       2.213   6.152   1.485  0.00  0.00    -0.063 C 
ATOM     31  H   UNL     1       3.079   5.830  -0.390  0.00  0.00    -0.082 HD
BRANCH  28  32
ATOM     32  C   UNL     1       5.612   6.465   3.077  0.00  0.00    +0.119 C 
BRANCH  32  33
ATOM     33  C   UNL     1       6.668   5.418   3.322  0.00  0.00    -0.033 A 
ATOM     34  C   UNL     1       6.713   4.752   4.533  0.00  0.00    +0.005 A 
ATOM     35  C   UNL     1       7.678   3.787   4.756  0.00  0.00    +0.000 A 
ATOM     36  C   UNL     1       8.605   3.496   3.772  0.00  0.00    +0.000 A 
ATOM     37  C   UNL     1       8.563   4.166   2.563  0.00  0.00    +0.000 A 
ATOM     38  C   UNL     1       7.595   5.127   2.339  0.00  0.00    +0.005 A 
ENDBRANCH  32  33
ENDBRANCH  28  32
ENDBRANCH  24  25
ENDBRANCH  23  24
ENDBRANCH  22  23
ENDBRANCH   3  22
TORSDOF 8
