REMARK  Name = ZINC06193537
REMARK  10 active torsions:
REMARK  status: ('A' for Active; 'I' for Inactive)
REMARK    1  A    between atoms: C_1  and  C_2
REMARK    2  A    between atoms: C_4  and  C_40
REMARK    3  A    between atoms: C_7  and  C_14
REMARK    4  A    between atoms: C_14  and  C_16
REMARK    5  A    between atoms: C_14  and  N_72
REMARK    6  A    between atoms: N_20  and  C_21
REMARK    7  A    between atoms: C_26  and  C_27
REMARK    8  A    between atoms: C_26  and  N_72
REMARK    9  A    between atoms: C_33  and  C_34
REMARK   10  A    between atoms: C_33  and  N_72
REMARK                            x       y       z     vdW  Elec       q    Type
REMARK                         _______ _______ _______ _____ _____    ______ ____
ROOT
ATOM      1  C   UNL     1      -2.937   5.878  -0.358  0.00  0.00    +0.040 C 
ENDROOT
BRANCH   1   8
ATOM      2  C   UNL     1       3.406   1.787  -2.937  0.00  0.00    +0.044 C 
ATOM      3  C   UNL     1       2.092   2.358  -2.472  0.00  0.00    -0.048 A 
ATOM      4  C   UNL     1       0.973   1.539  -2.399  0.00  0.00    +0.007 A 
ATOM      5  C   UNL     1      -0.229   2.038  -1.984  0.00  0.00    -0.041 A 
ATOM      6  C   UNL     1      -0.332   3.384  -1.619  0.00  0.00    +0.002 A 
ATOM      7  C   UNL     1      -1.603   3.950  -1.164  0.00  0.00    +0.018 A 
ATOM      8  C   UNL     1      -1.644   5.264  -0.829  0.00  0.00    +0.011 A 
ATOM      9  C   UNL     1      -0.480   6.057  -0.920  0.00  0.00    +0.251 A 
ATOM     10  O   UNL     1      -0.539   7.235  -0.614  0.00  0.00    -0.268 OA
ATOM     11  N   UNL     1       0.692   5.546  -1.336  0.00  0.00    -0.322 N 
ATOM     12  H   UNL     1       1.472   6.119  -1.386  0.00  0.00    +0.169 HD
ATOM     13  C   UNL     1       0.800   4.218  -1.691  0.00  0.00    +0.050 A 
ATOM     14  C   UNL     1       2.012   3.689  -2.122  0.00  0.00    +0.029 A 
ATOM     15  C   UNL     1      -1.437   1.140  -1.915  0.00  0.00    +0.044 C 
ENDBRANCH   1   8
BRANCH   1  16
ATOM     16  C   UNL     1      -2.792   6.312   1.078  0.00  0.00    +0.143 A 
ATOM     17  N   UNL     1      -2.308   7.452   1.507  0.00  0.00    -0.115 NA
ATOM     18  N   UNL     1      -2.352   7.444   2.794  0.00  0.00    -0.023 NA
ATOM     19  N   UNL     1      -2.852   6.329   3.198  0.00  0.00    -0.044 NA
ATOM     20  N   UNL     1      -3.141   5.606   2.170  0.00  0.00    -0.227 N 
BRANCH  20  21
ATOM     21  C   UNL     1      -3.735   4.266   2.187  0.00  0.00    +0.111 C 
ATOM     22  C   UNL     1      -5.089   4.298   2.925  0.00  0.00    +0.027 C 
ATOM     23  C   UNL     1      -5.132   2.954   3.695  0.00  0.00    +0.002 C 
ATOM     24  C   UNL     1      -3.664   2.775   4.155  0.00  0.00    +0.002 C 
ATOM     25  C   UNL     1      -2.829   3.299   2.969  0.00  0.00    +0.027 C 
ENDBRANCH  20  21
ENDBRANCH   1  16
BRANCH   1  26
ATOM     26  N   UNL     1      -3.240   7.066  -1.183  0.00  0.00    +0.395 N 
ATOM     27  H   UNL     1      -2.631   7.839  -0.892  0.00  0.00    -0.079 HD
BRANCH  26  28
ATOM     28  C   UNL     1      -4.650   7.468  -0.992  0.00  0.00    -0.041 C 
BRANCH  28  29
ATOM     29  C   UNL     1      -4.758   8.246   0.294  0.00  0.00    -0.064 A 
ATOM     30  C   UNL     1      -5.210   7.624   1.443  0.00  0.00    +0.002 A 
ATOM     31  C   UNL     1      -5.304   8.336   2.624  0.00  0.00    +0.000 A 
ATOM     32  C   UNL     1      -4.958   9.675   2.653  0.00  0.00    +0.000 A 
ATOM     33  C   UNL     1      -4.512  10.298   1.503  0.00  0.00    +0.000 A 
ATOM     34  C   UNL     1      -4.412   9.584   0.323  0.00  0.00    +0.002 A 
ENDBRANCH  28  29
ENDBRANCH  26  28
BRANCH  26  35
ATOM     35  C   UNL     1      -2.990   6.767  -2.609  0.00  0.00    -0.040 C 
BRANCH  35  36
ATOM     36  C   UNL     1      -2.947   8.065  -3.375  0.00  0.00    -0.046 A 
ATOM     37  C   UNL     1      -4.093   8.566  -3.973  0.00  0.00    +0.005 A 
ATOM     38  C   UNL     1      -4.008   9.765  -4.663  0.00  0.00    +0.020 A 
ATOM     39  C   UNL     1      -2.789  10.412  -4.740  0.00  0.00    +0.111 A 
ATOM     40  N   UNL     1      -1.718   9.903  -4.164  0.00  0.00    -0.263 NA
ATOM     41  C   UNL     1      -1.763   8.767  -3.495  0.00  0.00    +0.112 A 
ENDBRANCH  35  36
ENDBRANCH  26  35
ENDBRANCH   1  26
TORSDOF 8
