REMARK  Name = ZINC53286725
REMARK  5 active torsions:
REMARK  status: ('A' for Active; 'I' for Inactive)
REMARK    1  A    between atoms: C_1  and  C_2
REMARK    2  A    between atoms: C_2  and  C_4
REMARK    3  A    between atoms: C_2  and  N_20
REMARK    4  A    between atoms: N_9  and  C_19
REMARK    5  A    between atoms: C_11  and  C_13
REMARK                            x       y       z     vdW  Elec       q    Type
REMARK                         _______ _______ _______ _____ _____    ______ ____
ROOT
ATOM      1  C   UNL     1       1.487   0.151  -1.607  0.00  0.00    +0.236 C 
ATOM      2  O   UNL     1       2.374  -0.671  -1.706  0.00  0.00    -0.274 OA
ATOM      3  N   UNL     1       0.589   0.295  -2.601  0.00  0.00    -0.290 N 
ATOM      4  C   UNL     1      -0.396   1.388  -2.575  0.00  0.00    +0.124 C 
ATOM      5  C   UNL     1      -1.790   0.793  -2.800  0.00  0.00    +0.103 C 
ATOM      6  N   UNL     1      -1.784  -0.009  -4.031  0.00  0.00    -0.302 NA
ATOM      7  C   UNL     1      -0.866  -1.151  -3.918  0.00  0.00    +0.111 C 
ATOM      8  C   UNL     1       0.570  -0.632  -3.742  0.00  0.00    +0.120 C 
ATOM      9  C   UNL     1      -3.140  -0.456  -4.375  0.00  0.00    +0.105 C 
ENDROOT
BRANCH   8  10
ATOM     10  C   UNL     1       1.498  -1.788  -3.471  0.00  0.00    -0.026 A 
ATOM     11  C   UNL     1       1.255  -2.635  -2.407  0.00  0.00    +0.005 A 
ATOM     12  C   UNL     1       2.106  -3.695  -2.158  0.00  0.00    +0.000 A 
ATOM     13  C   UNL     1       3.201  -3.908  -2.974  0.00  0.00    +0.000 A 
ATOM     14  C   UNL     1       3.445  -3.061  -4.039  0.00  0.00    +0.000 A 
ATOM     15  C   UNL     1       2.591  -2.003  -4.290  0.00  0.00    +0.005 A 
ENDBRANCH   8  10
BRANCH   1  17
ATOM     16  C   UNL     1       2.024   2.375  -0.651  0.00  0.00    +0.038 C 
ATOM     17  C   UNL     1       1.391   1.010  -0.373  0.00  0.00    +0.157 C 
BRANCH  17  18
ATOM     18  N   UNL     1       2.099   0.359   0.732  0.00  0.00    -0.289 N 
ATOM     19  C   UNL     1       1.757   0.634   2.007  0.00  0.00    +0.298 C 
ATOM     20  O   UNL     1       0.860   1.422   2.239  0.00  0.00    -0.253 OA
ATOM     21  N   UNL     1       2.408   0.035   3.023  0.00  0.00    -0.313 N 
ATOM     22  H   UNL     1       2.814  -0.269   0.547  0.00  0.00    +0.151 HD
ATOM     23  H   UNL     1       3.124  -0.593   2.838  0.00  0.00    +0.146 HD
ATOM     24  H   UNL     1       2.162   0.233   3.940  0.00  0.00    +0.146 HD
ENDBRANCH  17  18
ENDBRANCH   1  17
TORSDOF 3
