REMARK  Name = ZINC04891446
REMARK  2 active torsions:
REMARK  status: ('A' for Active; 'I' for Inactive)
REMARK    1  A    between atoms: C_4  and  N_7
REMARK    2  A    between atoms: N_7  and  C_8
REMARK                            x       y       z     vdW  Elec       q    Type
REMARK                         _______ _______ _______ _____ _____    ______ ____
ROOT
ATOM      1  C   UNL     1       1.044   2.280   0.096  0.00  0.00    +0.047 A 
ATOM      2  C   UNL     1       2.350   1.825  -0.084  0.00  0.00    +0.072 A 
ATOM      3  C   UNL     1       3.415   2.699   0.000  0.00  0.00    +0.154 A 
ATOM      4  C   UNL     1       3.192   4.062   0.268  0.00  0.00    +0.094 A 
ATOM      5  C   UNL     1       1.892   4.535   0.450  0.00  0.00    +0.062 A 
ATOM      6  C   UNL     1       0.803   3.636   0.358  0.00  0.00    +0.056 A 
ATOM      7  C   UNL     1      -0.568   4.121   0.543  0.00  0.00    +0.196 A 
ATOM      8  O   UNL     1      -1.504   3.346   0.468  0.00  0.00    -0.287 OA
ATOM      9  C   UNL     1      -0.813   5.551   0.819  0.00  0.00    +0.033 A 
ATOM     10  C   UNL     1      -2.113   6.019   0.996  0.00  0.00    +0.012 A 
ATOM     11  C   UNL     1      -2.333   7.359   1.255  0.00  0.00    +0.001 A 
ATOM     12  C   UNL     1      -1.269   8.241   1.340  0.00  0.00    +0.001 A 
ATOM     13  C   UNL     1       0.027   7.794   1.167  0.00  0.00    +0.012 A 
ATOM     14  C   UNL     1       0.268   6.447   0.906  0.00  0.00    +0.033 A 
ATOM     15  C   UNL     1       1.650   5.957   0.730  0.00  0.00    +0.197 A 
ATOM     16  O   UNL     1       2.585   6.731   0.805  0.00  0.00    -0.287 OA
ATOM     17  N   UNL     1       4.269   4.931   0.351  0.00  0.00    -0.349 N 
ATOM     18  H   UNL     1       4.129   5.873   0.535  0.00  0.00    +0.166 HD
ATOM     19  C   UNL     1       5.562   4.429   0.164  0.00  0.00    +0.083 A 
ATOM     20  C   UNL     1       6.658   5.275   0.242  0.00  0.00    +0.029 A 
ATOM     21  C   UNL     1       7.933   4.771   0.057  0.00  0.00    +0.002 A 
ATOM     22  C   UNL     1       8.115   3.426  -0.206  0.00  0.00    +0.004 A 
ATOM     23  C   UNL     1       7.027   2.576  -0.285  0.00  0.00    +0.048 A 
ATOM     24  C   UNL     1       5.746   3.072  -0.101  0.00  0.00    +0.152 A 
ATOM     25  O   UNL     1       4.678   2.237  -0.177  0.00  0.00    -0.452 OA
ENDROOT
BRANCH   1  26
ATOM     26  N   UNL     1      -0.017   1.393   0.010  0.00  0.00    -0.314 N 
ATOM     27  H   UNL     1      -0.237   0.826   0.765  0.00  0.00    +0.152 HD
BRANCH  26  31
ATOM     28  C   UNL     1      -2.268   1.171  -3.487  0.00  0.00    +0.000 A 
ATOM     29  C   UNL     1      -2.654   0.451  -2.371  0.00  0.00    +0.002 A 
ATOM     30  C   UNL     1      -1.909   0.522  -1.210  0.00  0.00    +0.023 A 
ATOM     31  C   UNL     1      -0.772   1.319  -1.163  0.00  0.00    +0.031 A 
ATOM     32  C   UNL     1      -0.390   2.046  -2.284  0.00  0.00    +0.023 A 
ATOM     33  C   UNL     1      -1.136   1.965  -3.444  0.00  0.00    +0.002 A 
ENDBRANCH  26  31
ENDBRANCH   1  26
TORSDOF 2
