REMARK  Name = ZINC01177228
REMARK  8 active torsions:
REMARK  status: ('A' for Active; 'I' for Inactive)
REMARK    1  A    between atoms: C_1  and  C_2
REMARK    2  A    between atoms: C_2  and  C_3
REMARK    3  A    between atoms: C_2  and  C_4
REMARK    4  A    between atoms: C_2  and  C_5
REMARK    5  A    between atoms: N_16  and  C_33
REMARK    6  A    between atoms: C_19  and  S_22
REMARK    7  A    between atoms: S_22  and  C_23
REMARK    8  A    between atoms: C_23  and  C_24
REMARK                            x       y       z     vdW  Elec       q    Type
REMARK                         _______ _______ _______ _____ _____    ______ ____
ROOT
ATOM      1  C   UNL     1       0.718  -0.497  -1.257  0.00  0.00    -0.000 C 
ATOM      2  C   UNL     1       0.746  -2.029  -1.264  0.00  0.00    +0.009 C 
ATOM      3  C   UNL     1       1.238  -2.534  -2.622  0.00  0.00    +0.037 C 
ATOM      4  C   UNL     1       2.553  -1.841  -2.957  0.00  0.00    -0.023 A 
ATOM      5  C   UNL     1       2.921  -0.706  -2.329  0.00  0.00    -0.004 A 
ATOM      6  S   UNL     1       4.488  -0.286  -3.039  0.00  0.00    -0.074 S 
ATOM      7  C   UNL     1       4.644  -1.598  -4.148  0.00  0.00    +0.102 A 
ATOM      8  C   UNL     1       3.488  -2.350  -3.962  0.00  0.00    +0.074 A 
ATOM      9  C   UNL     1       3.353  -3.563  -4.801  0.00  0.00    +0.264 A 
ATOM     10  O   UNL     1       2.370  -4.273  -4.695  0.00  0.00    -0.267 OA
ATOM     11  N   UNL     1       4.321  -3.877  -5.678  0.00  0.00    -0.280 N 
ATOM     12  C   UNL     1       5.451  -3.089  -5.821  0.00  0.00    +0.240 A 
ATOM     13  N   UNL     1       5.609  -1.959  -5.061  0.00  0.00    -0.249 N 
ATOM     14  C   UNL     1       6.803  -1.385  -5.410  0.00  0.00    +0.198 A 
ATOM     15  N   UNL     1       7.355  -2.125  -6.340  0.00  0.00    -0.120 NA
ATOM     16  N   UNL     1       6.500  -3.203  -6.601  0.00  0.00    -0.109 NA
ATOM     17  C   UNL     1       4.178  -5.079  -6.502  0.00  0.00    +0.155 C 
ATOM     18  C   UNL     1       2.162   0.027  -1.267  0.00  0.00    +0.046 C 
ENDROOT
BRANCH   1  20
ATOM     19  C   UNL     1      -0.019   1.526   0.010  0.00  0.00    +0.011 C 
ATOM     20  C   UNL     1       0.002  -0.004   0.002  0.00  0.00    -0.035 C 
ATOM     21  C   UNL     1       0.742  -0.511   1.242  0.00  0.00    +0.011 C 
ATOM     22  C   UNL     1      -1.433  -0.534   0.013  0.00  0.00    +0.011 C 
ENDBRANCH   1  20
BRANCH  14  23
ATOM     23  S   UNL     1       7.480   0.092  -4.727  0.00  0.00    -0.081 S 
BRANCH  23  24
ATOM     24  C   UNL     1       9.053   0.301  -5.605  0.00  0.00    +0.112 C 
BRANCH  24  25
ATOM     25  C   UNL     1       9.744   1.545  -5.109  0.00  0.00    -0.033 A 
ATOM     26  C   UNL     1      10.616   1.470  -4.039  0.00  0.00    +0.008 A 
ATOM     27  C   UNL     1      11.252   2.609  -3.581  0.00  0.00    +0.050 A 
ATOM     28  C   UNL     1      11.016   3.829  -4.193  0.00  0.00    +0.166 A 
ATOM     29  C   UNL     1      10.138   3.905  -5.271  0.00  0.00    +0.167 A 
ATOM     30  C   UNL     1       9.508   2.758  -5.729  0.00  0.00    +0.054 A 
ATOM     31  O   UNL     1      10.077   5.201  -5.694  0.00  0.00    -0.453 OA
ATOM     32  C   UNL     1      11.234   5.845  -5.129  0.00  0.00    +0.466 C 
ATOM     33  O   UNL     1      11.505   5.078  -3.941  0.00  0.00    -0.453 OA
ENDBRANCH  24  25
ENDBRANCH  23  24
ENDBRANCH  14  23
TORSDOF 4
