REMARK  Name = ZINC58775403
REMARK  8 active torsions:
REMARK  status: ('A' for Active; 'I' for Inactive)
REMARK    1  A    between atoms: C_4  and  C_7
REMARK    2  A    between atoms: C_8  and  C_9
REMARK    3  A    between atoms: N_11  and  C_12
REMARK    4  A    between atoms: C_12  and  C_13
REMARK    5  A    between atoms: N_15  and  C_16
REMARK    6  A    between atoms: C_16  and  C_17
REMARK    7  A    between atoms: C_17  and  C_19
REMARK    8  A    between atoms: C_17  and  N_26
REMARK                            x       y       z     vdW  Elec       q    Type
REMARK                         _______ _______ _______ _____ _____    ______ ____
ROOT
ATOM      1  C   UNL     1       6.092  -6.247  -0.203  0.00  0.00    +0.230 C 
ATOM      2  O   UNL     1       4.956  -6.645  -0.352  0.00  0.00    -0.274 OA
ATOM      3  N   UNL     1       7.111  -7.127  -0.140  0.00  0.00    -0.315 N 
ATOM      4  H   UNL     1       8.020  -6.809  -0.021  0.00  0.00    +0.149 HD
ENDROOT
BRANCH   1   5
ATOM      5  C   UNL     1       6.365  -4.770  -0.089  0.00  0.00    +0.200 C 
BRANCH   5   8
ATOM      6  C   UNL     1       5.102  -2.686  -0.111  0.00  0.00    +0.237 C 
ATOM      7  O   UNL     1       6.149  -2.084   0.039  0.00  0.00    -0.271 OA
ATOM      8  N   UNL     1       5.103  -4.031  -0.187  0.00  0.00    -0.303 N 
ATOM      9  H   UNL     1       4.269  -4.511  -0.307  0.00  0.00    +0.149 HD
BRANCH   6  11
ATOM     10  C   UNL     1       3.840  -0.602  -0.133  0.00  0.00    +0.013 C 
ATOM     11  C   UNL     1       3.841  -1.948  -0.209  0.00  0.00    +0.068 C 
BRANCH  10  15
ATOM     12  C   UNL     1       0.187   1.536  -0.418  0.00  0.00    +0.000 A 
ATOM     13  C   UNL     1       1.376   2.224  -0.246  0.00  0.00    +0.001 A 
ATOM     14  C   UNL     1       2.567   1.536  -0.153  0.00  0.00    +0.008 A 
ATOM     15  C   UNL     1       2.572   0.140  -0.232  0.00  0.00    -0.025 A 
ATOM     16  C   UNL     1       1.367  -0.548  -0.405  0.00  0.00    +0.008 A 
ATOM     17  C   UNL     1       0.184   0.154  -0.497  0.00  0.00    +0.001 A 
ENDBRANCH  10  15
ENDBRANCH   6  11
ENDBRANCH   5   8
ENDBRANCH   1   5
BRANCH   3  18
ATOM     18  C   UNL     1       6.846  -8.564  -0.251  0.00  0.00    +0.093 C 
BRANCH  18  19
ATOM     19  C   UNL     1       8.172  -9.328  -0.256  0.00  0.00    -0.020 C 
BRANCH  19  20
ATOM     20  C   UNL     1       8.852  -9.163   1.079  0.00  0.00    -0.058 A 
ATOM     21  C   UNL     1       8.457  -9.934   2.156  0.00  0.00    +0.002 A 
ATOM     22  C   UNL     1       9.080  -9.783   3.380  0.00  0.00    +0.002 A 
ATOM     23  C   UNL     1      10.099  -8.860   3.529  0.00  0.00    +0.020 A 
ATOM     24  C   UNL     1      10.494  -8.088   2.451  0.00  0.00    +0.041 A 
ATOM     25  C   UNL     1       9.874  -8.244   1.224  0.00  0.00    +0.022 A 
ATOM     26 CL   UNL     1      11.773  -6.929   2.636  0.00  0.00    -0.084 Cl
ENDBRANCH  19  20
BRANCH  19  27
ATOM     27  N   UNL     1       7.914 -10.753  -0.501  0.00  0.00    +0.385 N 
ATOM     28  C   UNL     1       7.310 -10.941  -1.845  0.00  0.00    -0.078 C 
ATOM     29  C   UNL     1       7.623 -12.423  -2.171  0.00  0.00    -0.020 C 
ATOM     30  C   UNL     1       9.039 -12.615  -1.580  0.00  0.00    -0.020 C 
ATOM     31  C   UNL     1       9.188 -11.505  -0.523  0.00  0.00    -0.078 C 
ATOM     32  H   UNL     1       7.303 -11.124   0.211  0.00  0.00    -0.081 HD
ENDBRANCH  19  27
ENDBRANCH  18  19
ENDBRANCH   3  18
TORSDOF 8
