REMARK  Name = ZINC20681875
REMARK  11 active torsions:
REMARK  status: ('A' for Active; 'I' for Inactive)
REMARK    1  A    between atoms: C_1  and  C_2
REMARK    2  A    between atoms: C_2  and  C_3
REMARK    3  A    between atoms: C_3  and  N_4
REMARK    4  A    between atoms: N_4  and  C_5
REMARK    5  A    between atoms: N_4  and  S_8
REMARK    6  A    between atoms: C_5  and  C_6
REMARK    7  A    between atoms: C_6  and  C_7
REMARK    8  A    between atoms: S_8  and  C_11
REMARK    9  A    between atoms: C_24  and  C_27
REMARK   10  A    between atoms: C_30  and  O_34
REMARK   11  A    between atoms: C_32  and  O_33
REMARK                            x       y       z     vdW  Elec       q    Type
REMARK                         _______ _______ _______ _____ _____    ______ ____
ROOT
ATOM      1  C   UNL     1      -5.926   1.814   4.394  0.00  0.00    +0.106 A 
ATOM      2  C   UNL     1      -5.629   1.931   3.049  0.00  0.00    +0.030 A 
ATOM      3  C   UNL     1      -6.621   1.732   2.109  0.00  0.00    +0.025 A 
ATOM      4  C   UNL     1      -7.913   1.425   2.517  0.00  0.00    +0.031 A 
ATOM      5  C   UNL     1      -8.216   1.308   3.865  0.00  0.00    -0.018 A 
ATOM      6  C   UNL     1      -7.209   1.507   4.799  0.00  0.00    +0.034 A 
ATOM      7  C   UNL     1      -9.591   0.974   4.350  0.00  0.00    +0.049 C 
ATOM      8  C   UNL     1     -10.284   2.188   4.920  0.00  0.00    -0.023 C 
ATOM      9  C   UNL     1     -11.563   2.158   4.633  0.00  0.00    -0.030 C 
ATOM     10  C   UNL     1     -11.898   0.912   3.835  0.00  0.00    +0.033 C 
ATOM     11  C   UNL     1     -10.527   0.498   3.223  0.00  0.00    +0.029 C 
ATOM     12  C   UNL     1     -10.312   1.352   1.970  0.00  0.00    +0.108 C 
ATOM     13  N   UNL     1      -8.910   1.238   1.553  0.00  0.00    -0.336 N 
ATOM     14  H   UNL     1      -8.665   1.010   0.505  0.00  0.00    +0.147 HD
ENDROOT
BRANCH  12  15
ATOM     15  C   UNL     1     -10.630   2.792   2.280  0.00  0.00    +0.015 A 
ATOM     16  C   UNL     1      -9.667   3.607   2.843  0.00  0.00    +0.012 A 
ATOM     17  C   UNL     1      -9.956   4.927   3.128  0.00  0.00    +0.046 A 
ATOM     18  C   UNL     1     -11.216   5.439   2.849  0.00  0.00    +0.120 A 
ATOM     19  C   UNL     1     -12.184   4.624   2.284  0.00  0.00    +0.091 A 
ATOM     20  C   UNL     1     -11.889   3.300   1.994  0.00  0.00    +0.125 A 
BRANCH  20  21
ATOM     21  O   UNL     1     -12.835   2.500   1.435  0.00  0.00    -0.506 OA
ATOM     22  H   UNL     1     -13.833   2.903   1.208  0.00  0.00    +0.292 HD
ENDBRANCH  20  21
BRANCH  18  23
ATOM     23  O   UNL     1     -11.499   6.738   3.129  0.00  0.00    -0.507 OA
ATOM     24  H   UNL     1     -12.498   7.143   2.908  0.00  0.00    +0.292 HD
ENDBRANCH  18  23
ENDBRANCH  12  15
BRANCH   1  25
ATOM     25  S   UNL     1      -4.663   2.064   5.597  0.00  0.00    +0.061 S 
ATOM     26  O   UNL     1      -5.317   2.440   6.801  0.00  0.00    -0.153 OA
ATOM     27  O   UNL     1      -3.672   2.876   4.982  0.00  0.00    -0.153 OA
BRANCH  25  28
ATOM     28  N   UNL     1      -3.959   0.592   5.881  0.00  0.00    -0.177 NA
BRANCH  28  29
ATOM     29  C   UNL     1      -2.810   0.163   5.080  0.00  0.00    +0.109 C 
BRANCH  29  31
ATOM     30  C   UNL     1      -0.315   0.067   4.980  0.00  0.00    +0.005 C 
ATOM     31  C   UNL     1      -1.516   0.515   5.816  0.00  0.00    +0.014 C 
ENDBRANCH  29  31
ENDBRANCH  28  29
BRANCH  28  32
ATOM     32  C   UNL     1      -4.486  -0.281   6.933  0.00  0.00    +0.109 C 
BRANCH  32  33
ATOM     33  C   UNL     1      -3.692  -0.062   8.222  0.00  0.00    +0.014 C 
ATOM     34  C   UNL     1      -4.241  -0.973   9.321  0.00  0.00    +0.005 C 
ENDBRANCH  32  33
ENDBRANCH  28  32
ENDBRANCH  25  28
ENDBRANCH   1  25
TORSDOF 9
