REMARK  Name = ZINC39733510
REMARK  9 active torsions:
REMARK  status: ('A' for Active; 'I' for Inactive)
REMARK    1  A    between atoms: C_1  and  C_2
REMARK    2  A    between atoms: C_2  and  O_3
REMARK    3  A    between atoms: O_3  and  C_4
REMARK    4  A    between atoms: C_4  and  C_6
REMARK    5  A    between atoms: C_8  and  N_16
REMARK    6  A    between atoms: C_17  and  C_19
REMARK    7  A    between atoms: C_19  and  C_21
REMARK    8  A    between atoms: C_19  and  S_22
REMARK    9  A    between atoms: S_22  and  C_23
REMARK                            x       y       z     vdW  Elec       q    Type
REMARK                         _______ _______ _______ _____ _____    ______ ____
ROOT
ATOM      1  N   UNL     1      -0.688  -1.617  -3.554  0.00  0.00    -0.301 N 
ATOM      2  C   UNL     1      -1.272  -0.496  -4.023  0.00  0.00    +0.227 C 
ATOM      3  O   UNL     1      -0.624   0.303  -4.664  0.00  0.00    -0.275 OA
ATOM      4  H   UNL     1      -1.206  -2.256  -3.041  0.00  0.00    +0.150 HD
ENDROOT
BRANCH   1   6
ATOM      5  C   UNL     1       1.468  -2.353  -2.550  0.00  0.00    +0.155 C 
ATOM      6  C   UNL     1       0.731  -1.869  -3.819  0.00  0.00    +0.153 C 
ATOM      7  S   UNL     1       0.969  -3.363  -4.867  0.00  0.00    -0.106 S 
ATOM      8  C   UNL     1       1.254  -4.549  -3.566  0.00  0.00    -0.013 C 
ATOM      9  C   UNL     1       1.481  -3.868  -2.459  0.00  0.00    -0.044 C 
ATOM     10  C   UNL     1       1.717  -4.861  -1.315  0.00  0.00    +0.033 C 
ATOM     11  C   UNL     1       1.165  -6.208  -1.818  0.00  0.00    +0.009 C 
ATOM     12  C   UNL     1       1.309  -6.041  -3.343  0.00  0.00    +0.042 C 
BRANCH   5  13
ATOM     13  C   UNL     1       0.775  -1.794  -1.334  0.00  0.00    +0.317 C 
ATOM     14  O   UNL     1       0.314  -2.540  -0.504  0.00  0.00    -0.250 OA
BRANCH  13  15
ATOM     15  O   UNL     1       0.671  -0.465  -1.174  0.00  0.00    -0.464 OA
BRANCH  15  17
ATOM     16  C   UNL     1      -0.019   1.526   0.010  0.00  0.00    +0.048 C 
ATOM     17  C   UNL     1       0.002  -0.004   0.002  0.00  0.00    +0.229 C 
ENDBRANCH  15  17
ENDBRANCH  13  15
ENDBRANCH   5  13
ENDBRANCH   1   6
BRANCH   2  18
ATOM     18  C   UNL     1      -2.732  -0.237  -3.750  0.00  0.00    +0.137 C 
ATOM     19  C   UNL     1      -2.884   0.432  -2.383  0.00  0.00    +0.029 C 
BRANCH  18  20
ATOM     20  S   UNL     1      -3.402   0.854  -5.035  0.00  0.00    -0.073 S 
BRANCH  20  21
ATOM     21  C   UNL     1      -5.123   0.940  -4.666  0.00  0.00    +0.198 A 
ATOM     22  N   UNL     1      -5.738   0.341  -3.673  0.00  0.00    -0.120 NA
ATOM     23  N   UNL     1      -6.994   0.617  -3.694  0.00  0.00    -0.107 NA
ATOM     24  C   UNL     1      -7.259   1.417  -4.710  0.00  0.00    +0.260 A 
ATOM     25  N   UNL     1      -6.066   1.647  -5.356  0.00  0.00    -0.258 N 
ATOM     26  C   UNL     1      -6.014   2.457  -6.464  0.00  0.00    +0.037 A 
ATOM     27  C   UNL     1      -7.151   3.017  -6.911  0.00  0.00    +0.039 A 
ATOM     28  C   UNL     1      -8.363   2.766  -6.218  0.00  0.00    +0.278 A 
ATOM     29  O   UNL     1      -9.512   3.333  -6.657  0.00  0.00    -0.265 OA
ATOM     30  N   UNL     1      -8.387   1.985  -5.162  0.00  0.00    -0.171 NA
ATOM     31  C   UNL     1      -7.205   3.900  -8.129  0.00  0.00    +0.042 C 
ATOM     32  C   UNL     1      -5.812   4.416  -8.483  0.00  0.00    +0.005 C 
ATOM     33  C   UNL     1      -4.855   3.218  -8.537  0.00  0.00    +0.006 C 
ATOM     34  C   UNL     1      -4.678   2.682  -7.118  0.00  0.00    +0.054 C 
ENDBRANCH  20  21
ENDBRANCH  18  20
ENDBRANCH   2  18
TORSDOF 7
