REMARK  Name = ZINC08590000
REMARK  8 active torsions:
REMARK  status: ('A' for Active; 'I' for Inactive)
REMARK    1  A    between atoms: C_1  and  C_2
REMARK    2  A    between atoms: C_6  and  N_8
REMARK    3  A    between atoms: N_8  and  S_9
REMARK    4  A    between atoms: S_9  and  C_12
REMARK    5  A    between atoms: C_25  and  C_28
REMARK    6  A    between atoms: C_31  and  C_34
REMARK    7  A    between atoms: C_34  and  O_36
REMARK    8  A    between atoms: O_36  and  C_37
REMARK                            x       y       z     vdW  Elec       q    Type
REMARK                         _______ _______ _______ _____ _____    ______ ____
ROOT
ATOM      1  C   UNL     1      -0.954   1.915  -1.397  0.00  0.00    +0.109 A 
ATOM      2  C   UNL     1      -1.879   1.049  -1.950  0.00  0.00    +0.030 A 
ATOM      3  C   UNL     1      -2.614   1.445  -3.050  0.00  0.00    +0.025 A 
ATOM      4  C   UNL     1      -2.416   2.704  -3.602  0.00  0.00    +0.031 A 
ATOM      5  C   UNL     1      -1.486   3.574  -3.053  0.00  0.00    -0.018 A 
ATOM      6  C   UNL     1      -0.757   3.166  -1.945  0.00  0.00    +0.034 A 
ATOM      7  C   UNL     1      -1.240   4.939  -3.613  0.00  0.00    +0.049 C 
ATOM      8  C   UNL     1      -1.861   6.009  -2.746  0.00  0.00    -0.023 C 
ATOM      9  C   UNL     1      -2.329   6.981  -3.490  0.00  0.00    -0.030 C 
ATOM     10  C   UNL     1      -2.078   6.694  -4.958  0.00  0.00    +0.033 C 
ATOM     11  C   UNL     1      -1.888   5.149  -4.995  0.00  0.00    +0.029 C 
ATOM     12  C   UNL     1      -3.283   4.519  -5.019  0.00  0.00    +0.105 C 
ATOM     13  N   UNL     1      -3.165   3.088  -4.719  0.00  0.00    -0.336 N 
ATOM     14  H   UNL     1      -3.596   2.425  -5.281  0.00  0.00    +0.147 HD
ENDROOT
BRANCH  12  15
ATOM     15  C   UNL     1      -4.154   5.182  -3.983  0.00  0.00    -0.027 A 
ATOM     16  C   UNL     1      -4.051   4.806  -2.655  0.00  0.00    +0.006 A 
ATOM     17  C   UNL     1      -4.841   5.412  -1.701  0.00  0.00    +0.015 A 
ATOM     18  C   UNL     1      -5.754   6.399  -2.079  0.00  0.00    +0.059 A 
ATOM     19  C   UNL     1      -5.857   6.769  -3.421  0.00  0.00    +0.015 A 
ATOM     20  C   UNL     1      -5.057   6.159  -4.364  0.00  0.00    +0.006 A 
BRANCH  18  21
ATOM     21  C   UNL     1      -6.608   7.048  -1.063  0.00  0.00    +0.339 C 
ATOM     22  O   UNL     1      -7.401   7.907  -1.394  0.00  0.00    -0.245 OA
BRANCH  21  23
ATOM     23  O   UNL     1      -6.506   6.689   0.232  0.00  0.00    -0.464 OA
ATOM     24  C   UNL     1      -7.376   7.369   1.175  0.00  0.00    +0.280 C 
ENDBRANCH  21  23
ENDBRANCH  18  21
ENDBRANCH  12  15
BRANCH   1  25
ATOM     25  S   UNL     1      -0.017   1.417   0.010  0.00  0.00    +0.072 S 
ATOM     26  O   UNL     1       0.002  -0.004   0.002  0.00  0.00    -0.150 OA
ATOM     27  O   UNL     1       1.172   2.195   0.003  0.00  0.00    -0.150 OA
BRANCH  25  28
ATOM     28  N   UNL     1      -0.872   1.871   1.353  0.00  0.00    -0.216 N 
ATOM     29  H   UNL     1      -0.510   2.541   1.955  0.00  0.00    +0.174 HD
BRANCH  28  35
ATOM     30  C   UNL     1      -5.575   2.368   2.690  0.00  0.00    +0.044 C 
ATOM     31  C   UNL     1      -4.412   1.506   2.271  0.00  0.00    -0.049 A 
ATOM     32  C   UNL     1      -4.573   0.138   2.152  0.00  0.00    +0.003 A 
ATOM     33  C   UNL     1      -3.508  -0.656   1.768  0.00  0.00    +0.002 A 
ATOM     34  C   UNL     1      -2.279  -0.084   1.502  0.00  0.00    +0.024 A 
ATOM     35  C   UNL     1      -2.114   1.290   1.621  0.00  0.00    +0.048 A 
ATOM     36  C   UNL     1      -3.184   2.084   2.012  0.00  0.00    +0.027 A 
ENDBRANCH  28  35
ENDBRANCH  25  28
ENDBRANCH   1  25
TORSDOF 6
