REMARK  Name = ZINC14475696
REMARK  5 active torsions:
REMARK  status: ('A' for Active; 'I' for Inactive)
REMARK    1  A    between atoms: C_1  and  C_2
REMARK    2  A    between atoms: C_2  and  C_4
REMARK    3  A    between atoms: C_17  and  C_20
REMARK    4  A    between atoms: C_22  and  N_27
REMARK    5  A    between atoms: C_25  and  O_26
REMARK                            x       y       z     vdW  Elec       q    Type
REMARK                         _______ _______ _______ _____ _____    ______ ____
ROOT
ATOM      1  C   UNL     1       0.002  -0.004   0.002  0.00  0.00    +0.017 A 
ATOM      2  C   UNL     1      -0.017   1.397   0.010  0.00  0.00    +0.013 A 
ATOM      3  C   UNL     1       1.155   2.095   0.002  0.00  0.00    +0.024 A 
ATOM      4  C   UNL     1       2.378   1.426  -0.013  0.00  0.00    +0.031 A 
ATOM      5  C   UNL     1       2.397   0.022  -0.009  0.00  0.00    -0.019 A 
ATOM      6  C   UNL     1       1.229  -0.679  -0.007  0.00  0.00    +0.017 A 
ATOM      7  C   UNL     1       3.719  -0.642   0.017  0.00  0.00    +0.049 C 
ATOM      8  C   UNL     1       3.950  -2.017  -0.520  0.00  0.00    -0.023 C 
ATOM      9  C   UNL     1       5.181  -2.092  -1.014  0.00  0.00    -0.030 C 
ATOM     10  C   UNL     1       5.890  -0.746  -0.857  0.00  0.00    +0.033 C 
ATOM     11  C   UNL     1       4.703   0.226  -0.824  0.00  0.00    +0.029 C 
ATOM     12  C   UNL     1       4.881   1.512  -0.037  0.00  0.00    +0.108 C 
ATOM     13  N   UNL     1       3.556   2.169  -0.042  0.00  0.00    -0.336 N 
ATOM     14  H   UNL     1       3.486   3.267  -0.069  0.00  0.00    +0.147 HD
ENDROOT
BRANCH  12  15
ATOM     15  C   UNL     1       5.303   1.204   1.376  0.00  0.00    +0.017 A 
ATOM     16  C   UNL     1       4.351   1.047   2.364  0.00  0.00    +0.041 A 
ATOM     17  C   UNL     1       4.738   0.759   3.660  0.00  0.00    +0.127 A 
ATOM     18  C   UNL     1       6.079   0.637   3.972  0.00  0.00    +0.036 A 
ATOM     19  C   UNL     1       7.036   0.798   2.989  0.00  0.00    +0.048 A 
ATOM     20  C   UNL     1       6.650   1.082   1.687  0.00  0.00    +0.122 A 
BRANCH  17  21
ATOM     21  N   UNL     1       3.715   0.585   4.715  0.00  0.00    +0.056 N 
ATOM     22  O   UNL     1       4.054   0.335   5.857  0.00  0.00    -0.126 OA
ATOM     23  O   UNL     1       2.533   0.692   4.441  0.00  0.00    -0.126 OA
ENDBRANCH  17  21
BRANCH  20  24
ATOM     24  O   UNL     1       7.589   1.241   0.718  0.00  0.00    -0.506 OA
ATOM     25  H   UNL     1       8.656   1.145   0.965  0.00  0.00    +0.292 HD
ENDBRANCH  20  24
ENDBRANCH  12  15
BRANCH   1  27
ATOM     26  C   UNL     1      -2.574  -0.028   0.013  0.00  0.00    +0.091 C 
ATOM     27  C   UNL     1      -1.256  -0.759   0.003  0.00  0.00    +0.160 C 
ATOM     28  O   UNL     1      -1.236  -1.972  -0.004  0.00  0.00    -0.292 OA
ENDBRANCH   1  27
TORSDOF 4
