REMARK  Name = ZINC08234664
REMARK  4 active torsions:
REMARK  status: ('A' for Active; 'I' for Inactive)
REMARK    1  A    between atoms: C_1  and  C_2
REMARK    2  A    between atoms: C_2  and  C_27
REMARK    3  A    between atoms: C_10  and  C_12
REMARK    4  A    between atoms: N_17  and  C_19
REMARK                            x       y       z     vdW  Elec       q    Type
REMARK                         _______ _______ _______ _____ _____    ______ ____
ROOT
ATOM      1  C   UNL     1       1.392   3.569   0.015  0.00  0.00    +0.011 C 
ATOM      2  C   UNL     1       1.417   2.039  -0.001  0.00  0.00    -0.022 C 
ATOM      3  C   UNL     1       2.168   1.562  -1.247  0.00  0.00    +0.063 C 
ATOM      4  C   UNL     1       2.138   0.038  -1.264  0.00  0.00    +0.062 A 
ATOM      5  C   UNL     1       1.069  -0.621  -0.642  0.00  0.00    +0.079 A 
ATOM      6  S   UNL     1       1.466  -2.323  -0.909  0.00  0.00    -0.049 S 
ATOM      7  C   UNL     1       2.946  -2.063  -1.787  0.00  0.00    +0.165 A 
ATOM      8  N   UNL     1       3.037  -0.741  -1.816  0.00  0.00    -0.229 NA
ATOM      9  N   UNL     1       3.810  -3.001  -2.320  0.00  0.00    -0.264 N 
ATOM     10  C   UNL     1       3.545  -4.315  -2.186  0.00  0.00    +0.224 C 
ATOM     11  O   UNL     1       2.547  -4.675  -1.598  0.00  0.00    -0.275 OA
ATOM     12  C   UNL     1       0.002  -0.004   0.002  0.00  0.00    +0.172 C 
ATOM     13  O   UNL     1      -0.876  -0.652   0.535  0.00  0.00    -0.291 OA
ATOM     14  C   UNL     1      -0.018   1.514   0.010  0.00  0.00    +0.087 C 
ATOM     15  C   UNL     1       2.145   1.538   1.248  0.00  0.00    +0.011 C 
ATOM     16  H   UNL     1       4.608  -2.712  -2.790  0.00  0.00    +0.157 HD
ENDROOT
BRANCH  10  17
ATOM     17  C   UNL     1       4.487  -5.337  -2.767  0.00  0.00    +0.101 C 
ATOM     18  C   UNL     1       4.590  -5.185  -4.302  0.00  0.00    +0.110 C 
ATOM     19  C   UNL     1       3.554  -6.147  -4.841  0.00  0.00    +0.217 C 
ATOM     20  O   UNL     1       3.119  -6.137  -5.973  0.00  0.00    -0.276 OA
ATOM     21  N   UNL     1       3.188  -7.016  -3.882  0.00  0.00    -0.298 N 
ATOM     22  C   UNL     1       3.909  -6.763  -2.630  0.00  0.00    +0.121 C 
BRANCH  21  23
ATOM     23  C   UNL     1       2.194  -8.077  -4.065  0.00  0.00    +0.076 C 
ATOM     24  C   UNL     1       2.612  -8.998  -5.230  0.00  0.00    +0.022 C 
ATOM     25  C   UNL     1       1.277  -9.361  -5.925  0.00  0.00    +0.002 C 
ATOM     26  C   UNL     1       0.476  -8.037  -5.840  0.00  0.00    +0.002 C 
ATOM     27  C   UNL     1       0.836  -7.466  -4.452  0.00  0.00    +0.022 C 
ENDBRANCH  21  23
ENDBRANCH  10  17
TORSDOF 2
