REMARK  Name = ZINC07057322
REMARK  6 active torsions:
REMARK  status: ('A' for Active; 'I' for Inactive)
REMARK    1  A    between atoms: C_1  and  C_2
REMARK    2  A    between atoms: C_2  and  C_4
REMARK    3  A    between atoms: C_2  and  O_16
REMARK    4  A    between atoms: N_6  and  C_7
REMARK    5  A    between atoms: O_16  and  C_17
REMARK    6  A    between atoms: C_17  and  C_19
REMARK                            x       y       z     vdW  Elec       q    Type
REMARK                         _______ _______ _______ _____ _____    ______ ____
ROOT
ATOM      1  C   UNL     1       4.582  -0.671  -1.068  0.00  0.00    +0.062 C 
ATOM      2  C   UNL     1       3.742  -0.969   0.176  0.00  0.00    +0.259 C 
ENDROOT
BRANCH   2   3
ATOM      3  C   UNL     1       2.426  -0.242   0.079  0.00  0.00    +0.258 C 
ATOM      4  O   UNL     1       1.386  -0.866   0.086  0.00  0.00    -0.271 OA
ATOM      5  N   UNL     1       2.404   1.103  -0.015  0.00  0.00    -0.280 N 
ATOM      6  H   UNL     1       3.345   1.663  -0.113  0.00  0.00    +0.155 HD
BRANCH   5   7
ATOM      7  C   UNL     1       1.181   1.787   0.011  0.00  0.00    +0.072 A 
ATOM      8  C   UNL     1       0.077   1.213   0.627  0.00  0.00    +0.029 A 
ATOM      9  C   UNL     1      -1.130   1.885   0.647  0.00  0.00    +0.043 A 
ATOM     10  C   UNL     1      -1.238   3.137   0.065  0.00  0.00    +0.161 A 
ATOM     11  C   UNL     1      -0.138   3.714  -0.551  0.00  0.00    +0.195 A 
ATOM     12  C   UNL     1       1.072   3.041  -0.579  0.00  0.00    +0.182 A 
ATOM     13  F   UNL     1       2.145   3.602  -1.178  0.00  0.00    -0.200 F 
ATOM     14  F   UNL     1      -0.246   4.932  -1.124  0.00  0.00    -0.199 F 
ATOM     15  F   UNL     1      -2.418   3.794   0.091  0.00  0.00    -0.202 F 
ENDBRANCH   5   7
ENDBRANCH   2   3
BRANCH   2  16
ATOM     16  O   UNL     1       3.501  -2.397   0.267  0.00  0.00    -0.449 OA
BRANCH  16  17
ATOM     17  C   UNL     1       4.403  -3.128   0.952  0.00  0.00    +0.340 C 
ATOM     18  O   UNL     1       5.365  -2.586   1.460  0.00  0.00    -0.245 OA
BRANCH  17  19
ATOM     19  C   UNL     1       4.222  -4.584   1.086  0.00  0.00    +0.060 A 
ATOM     20  C   UNL     1       3.116  -5.221   0.504  0.00  0.00    +0.017 A 
ATOM     21  C   UNL     1       2.932  -6.559   0.615  0.00  0.00    +0.030 A 
ATOM     22  C   UNL     1       3.853  -7.369   1.325  0.00  0.00    +0.080 A 
ATOM     23  C   UNL     1       4.962  -6.703   1.903  0.00  0.00    +0.042 A 
ATOM     24  C   UNL     1       5.155  -5.354   1.790  0.00  0.00    +0.032 A 
ATOM     25  S   UNL     1       5.844  -8.037   2.676  0.00  0.00    -0.053 S 
ATOM     26  C   UNL     1       4.727  -9.349   2.202  0.00  0.00    +0.157 A 
ATOM     27  N   UNL     1       3.807  -8.701   1.520  0.00  0.00    -0.225 NA
ATOM     28  N   UNL     1       4.808 -10.696   2.478  0.00  0.00    -0.337 N 
ATOM     29  H   UNL     1       4.031 -11.381   2.110  0.00  0.00    +0.144 HD
ATOM     30  H   UNL     1       5.651 -11.087   3.067  0.00  0.00    +0.144 HD
ENDBRANCH  17  19
ENDBRANCH  16  17
ENDBRANCH   2  16
TORSDOF 5
