REMARK  Name = ZINC25576947
REMARK  8 active torsions:
REMARK  status: ('A' for Active; 'I' for Inactive)
REMARK    1  A    between atoms: C_1  and  C_2
REMARK    2  A    between atoms: C_2  and  C_4
REMARK    3  A    between atoms: C_2  and  N_14
REMARK    4  A    between atoms: C_7  and  S_10
REMARK    5  A    between atoms: S_10  and  N_13
REMARK    6  A    between atoms: N_14  and  C_15
REMARK    7  A    between atoms: C_16  and  C_18
REMARK    8  A    between atoms: C_18  and  C_19
REMARK                            x       y       z     vdW  Elec       q    Type
REMARK                         _______ _______ _______ _____ _____    ______ ____
ROOT
ATOM      1  N   UNL     1      -0.967  -0.603   0.923  0.00  0.00    -0.297 N 
ATOM      2  C   UNL     1      -2.402  -0.408   0.705  0.00  0.00    +0.132 C 
ATOM      3  C   UNL     1      -0.538  -1.348   1.962  0.00  0.00    +0.220 C 
ATOM      4  O   UNL     1       0.650  -1.509   2.142  0.00  0.00    -0.275 OA
ENDROOT
BRANCH   1   6
ATOM      5  C   UNL     1      -0.512  -0.090  -1.424  0.00  0.00    +0.033 C 
ATOM      6  C   UNL     1       0.003   0.012   0.013  0.00  0.00    +0.103 C 
BRANCH   6   7
ATOM      7  C   UNL     1       0.186   1.462   0.379  0.00  0.00    -0.027 A 
ATOM      8  C   UNL     1      -0.876   2.186   0.889  0.00  0.00    +0.007 A 
ATOM      9  C   UNL     1      -0.706   3.515   1.229  0.00  0.00    +0.029 A 
ATOM     10  C   UNL     1       0.522   4.123   1.050  0.00  0.00    +0.105 A 
ATOM     11  C   UNL     1       1.583   3.401   0.535  0.00  0.00    +0.029 A 
ATOM     12  C   UNL     1       1.414   2.070   0.200  0.00  0.00    +0.007 A 
BRANCH  10  13
ATOM     13  S   UNL     1       0.737   5.819   1.477  0.00  0.00    +0.056 S 
ATOM     14  O   UNL     1      -0.257   6.122   2.446  0.00  0.00    -0.153 OA
ATOM     15  O   UNL     1       2.124   6.003   1.724  0.00  0.00    -0.153 OA
BRANCH  13  16
ATOM     16  N   UNL     1       0.372   6.712   0.131  0.00  0.00    -0.204 NA
ATOM     17  H   UNL     1       0.494   7.782   0.357  0.00  0.00    +0.144 HD
ATOM     18  H   UNL     1      -0.668   6.517  -0.169  0.00  0.00    +0.144 HD
ENDBRANCH  13  16
ENDBRANCH  10  13
ENDBRANCH   6   7
ENDBRANCH   1   6
BRANCH   3  19
ATOM     19  C   UNL     1      -1.535  -1.980   2.898  0.00  0.00    +0.133 C 
BRANCH  19  20
ATOM     20  C   UNL     1      -0.803  -2.753   3.964  0.00  0.00    -0.013 A 
ATOM     21  C   UNL     1      -0.588  -4.089   3.813  0.00  0.00    +0.006 A 
ATOM     22  C   UNL     1       0.087  -4.823   4.787  0.00  0.00    +0.001 A 
ATOM     23  C   UNL     1       0.551  -4.223   5.918  0.00  0.00    +0.010 A 
ATOM     24  C   UNL     1       0.348  -2.847   6.106  0.00  0.00    +0.001 A 
ATOM     25  C   UNL     1      -0.334  -2.097   5.115  0.00  0.00    +0.075 A 
ATOM     26  N   UNL     1      -0.524  -0.785   5.287  0.00  0.00    -0.255 NA
ATOM     27  C   UNL     1      -0.088  -0.168   6.359  0.00  0.00    +0.111 A 
ATOM     28  C   UNL     1       0.594  -0.844   7.368  0.00  0.00    +0.020 A 
ATOM     29  C   UNL     1       0.812  -2.188   7.261  0.00  0.00    +0.011 A 
ENDBRANCH  19  20
ENDBRANCH   3  19
TORSDOF 6
