REMARK  Name = ZINC39781063
REMARK  9 active torsions:
REMARK  status: ('A' for Active; 'I' for Inactive)
REMARK    1  A    between atoms: C_1  and  O_2
REMARK    2  A    between atoms: O_2  and  C_3
REMARK    3  A    between atoms: C_3  and  C_4
REMARK    4  A    between atoms: C_4  and  N_5
REMARK    5  A    between atoms: C_6  and  C_8
REMARK    6  A    between atoms: C_10  and  N_19
REMARK    7  A    between atoms: C_20  and  C_22
REMARK    8  A    between atoms: C_22  and  O_23
REMARK    9  A    between atoms: O_23  and  C_24
REMARK                            x       y       z     vdW  Elec       q    Type
REMARK                         _______ _______ _______ _____ _____    ______ ____
ROOT
ATOM      1  N   UNL     1       2.118  -3.389   4.244  0.00  0.00    -0.299 N 
ATOM      2  C   UNL     1       3.349  -3.691   4.701  0.00  0.00    +0.252 C 
ATOM      3  O   UNL     1       4.165  -4.194   3.958  0.00  0.00    -0.272 OA
ATOM      4  H   UNL     1       1.465  -2.986   4.837  0.00  0.00    +0.150 HD
ENDROOT
BRANCH   1   6
ATOM      5  C   UNL     1       0.369  -4.328   2.738  0.00  0.00    +0.132 C 
ATOM      6  C   UNL     1       1.765  -3.669   2.849  0.00  0.00    +0.151 C 
ATOM      7  S   UNL     1       2.779  -5.043   2.157  0.00  0.00    -0.106 S 
ATOM      8  C   UNL     1       1.639  -6.376   2.447  0.00  0.00    -0.013 C 
ATOM      9  C   UNL     1       0.466  -5.833   2.737  0.00  0.00    -0.046 C 
ATOM     10  C   UNL     1      -0.744  -6.707   3.061  0.00  0.00    +0.032 C 
ATOM     11  C   UNL     1      -0.496  -8.120   2.533  0.00  0.00    +0.005 C 
ATOM     12  C   UNL     1       0.851  -8.632   3.054  0.00  0.00    +0.005 C 
ATOM     13  C   UNL     1       1.964  -7.841   2.372  0.00  0.00    +0.042 C 
BRANCH   5  15
ATOM     14  N   UNL     1      -0.515  -2.565   1.245  0.00  0.00    -0.313 N 
ATOM     15  C   UNL     1      -0.287  -3.876   1.459  0.00  0.00    +0.223 C 
ATOM     16  O   UNL     1      -0.610  -4.693   0.622  0.00  0.00    -0.275 OA
ATOM     17  H   UNL     1      -0.257  -1.913   1.914  0.00  0.00    +0.149 HD
BRANCH  14  18
ATOM     18  C   UNL     1      -1.154  -2.126   0.002  0.00  0.00    +0.132 C 
BRANCH  18  19
ATOM     19  C   UNL     1      -1.295  -0.603   0.011  0.00  0.00    +0.178 C 
BRANCH  19  21
ATOM     20  C   UNL     1      -0.017   1.425   0.010  0.00  0.00    +0.194 C 
ATOM     21  O   UNL     1       0.002  -0.004   0.002  0.00  0.00    -0.381 OA
ENDBRANCH  19  21
ENDBRANCH  18  19
ENDBRANCH  14  18
ENDBRANCH   5  15
ENDBRANCH   1   6
BRANCH   2  22
ATOM     22  C   UNL     1       3.712  -3.402   6.135  0.00  0.00    +0.324 C 
BRANCH  22  23
ATOM     23  O   UNL     1       5.061  -3.808   6.376  0.00  0.00    -0.483 OA
BRANCH  23  24
ATOM     24  C   UNL     1       5.548  -3.616   7.630  0.00  0.00    +0.120 C 
ATOM     25  C   UNL     1       4.740  -3.067   8.558  0.00  0.00    +0.047 C 
ATOM     26  C   UNL     1       5.288  -2.768   9.910  0.00  0.00    +0.137 C 
ATOM     27  C   UNL     1       6.465  -3.677  10.194  0.00  0.00    -0.012 C 
ATOM     28  C   UNL     1       6.322  -4.041  11.511  0.00  0.00    +0.003 A 
ATOM     29  C   UNL     1       7.167  -4.760  12.387  0.00  0.00    +0.010 A 
ATOM     30  C   UNL     1       6.705  -4.971  13.654  0.00  0.00    +0.001 A 
ATOM     31  C   UNL     1       5.467  -4.515  14.103  0.00  0.00    +0.002 A 
ATOM     32  C   UNL     1       4.599  -3.809  13.325  0.00  0.00    +0.026 A 
ATOM     33  C   UNL     1       5.007  -3.537  11.991  0.00  0.00    +0.044 A 
ATOM     34  N   UNL     1       4.396  -2.880  11.045  0.00  0.00    -0.374 N 
ATOM     35  C   UNL     1       7.325  -4.126   9.195  0.00  0.00    +0.010 C 
ATOM     36  C   UNL     1       6.880  -4.006   7.905  0.00  0.00    +0.046 C 
ATOM     37  H   UNL     1       3.496  -2.524  11.099  0.00  0.00    +0.161 HD
ENDBRANCH  23  24
ENDBRANCH  22  23
ENDBRANCH   2  22
TORSDOF 8
