REMARK  Name = ZINC39676592
REMARK  13 active torsions:
REMARK  status: ('A' for Active; 'I' for Inactive)
REMARK    1  A    between atoms: C_1  and  C_2
REMARK    2  A    between atoms: C_2  and  C_3
REMARK    3  A    between atoms: C_3  and  C_5
REMARK    4  A    between atoms: C_3  and  C_6
REMARK    5  A    between atoms: C_6  and  C_7
REMARK    6  A    between atoms: C_11  and  C_20
REMARK    7  A    between atoms: N_22  and  C_23
REMARK    8  A    between atoms: C_23  and  C_24
REMARK    9  A    between atoms: C_23  and  C_32
REMARK   10  A    between atoms: C_27  and  O_30
REMARK   11  A    between atoms: O_30  and  C_31
REMARK   12  A    between atoms: C_35  and  O_38
REMARK   13  A    between atoms: O_38  and  C_39
REMARK                            x       y       z     vdW  Elec       q    Type
REMARK                         _______ _______ _______ _____ _____    ______ ____
ROOT
ATOM      1  C   UNL     1      -2.323  -7.399   1.043  0.00  0.00    +0.219 C 
ATOM      2  O   UNL     1      -2.379  -7.699  -0.131  0.00  0.00    -0.275 OA
ATOM      3  N   UNL     1      -2.026  -8.335   1.965  0.00  0.00    -0.304 N 
ATOM      4  H   UNL     1      -1.982  -8.095   2.904  0.00  0.00    +0.150 HD
ENDROOT
BRANCH   1   9
ATOM      5  C   UNL     1      -2.861  -2.576   0.258  0.00  0.00    +0.216 C 
ATOM      6  O   UNL     1      -3.795  -1.802   0.273  0.00  0.00    -0.276 OA
ATOM      7  N   UNL     1      -3.081  -3.900   0.384  0.00  0.00    -0.300 N 
ATOM      8  C   UNL     1      -2.077  -4.990   0.396  0.00  0.00    +0.121 C 
ATOM      9  C   UNL     1      -2.586  -5.978   1.470  0.00  0.00    +0.100 C 
ATOM     10  C   UNL     1      -4.099  -5.714   1.560  0.00  0.00    -0.004 C 
ATOM     11  C   UNL     1      -4.381  -4.593   0.549  0.00  0.00    +0.115 C 
ATOM     12  C   UNL     1      -4.472  -5.254   2.966  0.00  0.00    -0.010 C 
ATOM     13  C   UNL     1      -5.988  -5.053   3.046  0.00  0.00    -0.082 C 
ATOM     14  N   UNL     1      -6.668  -6.314   2.725  0.00  0.00    +0.379 N 
ATOM     15  C   UNL     1      -6.377  -6.702   1.340  0.00  0.00    -0.082 C 
ATOM     16  C   UNL     1      -4.878  -6.972   1.187  0.00  0.00    -0.010 C 
ATOM     17  H   UNL     1      -6.345  -7.037   3.350  0.00  0.00    -0.086 HD
ATOM     18  H   UNL     1      -7.664  -6.196   2.838  0.00  0.00    -0.086 HD
BRANCH   5  19
ATOM     19  C   UNL     1      -1.455  -2.057   0.099  0.00  0.00    +0.099 C 
BRANCH  19  20
ATOM     20  C   UNL     1      -1.484  -0.533  -0.022  0.00  0.00    -0.006 C 
ATOM     21  C   UNL     1      -2.210  -0.138  -1.310  0.00  0.00    +0.008 C 
BRANCH  20  23
ATOM     22  C   UNL     1      -0.080   1.534  -0.054  0.00  0.00    +0.004 C 
ATOM     23  C   UNL     1      -0.052   0.004  -0.058  0.00  0.00    +0.000 C 
ENDBRANCH  20  23
ENDBRANCH  19  20
ENDBRANCH   5  19
ENDBRANCH   1   9
BRANCH   3  24
ATOM     24  C   UNL     1      -1.770  -9.717   1.550  0.00  0.00    +0.134 C 
BRANCH  24  25
ATOM     25  C   UNL     1      -0.901 -10.397   2.575  0.00  0.00    -0.023 A 
ATOM     26  C   UNL     1      -1.117 -10.172   3.922  0.00  0.00    +0.009 A 
ATOM     27  C   UNL     1      -0.321 -10.794   4.865  0.00  0.00    +0.046 A 
ATOM     28  C   UNL     1       0.696 -11.645   4.458  0.00  0.00    +0.120 A 
ATOM     29  C   UNL     1       0.911 -11.870   3.106  0.00  0.00    +0.046 A 
ATOM     30  C   UNL     1       0.109 -11.249   2.168  0.00  0.00    +0.009 A 
BRANCH  28  31
ATOM     31  O   UNL     1       1.481 -12.258   5.383  0.00  0.00    -0.495 OA
ATOM     32  C   UNL     1       2.509 -13.121   4.893  0.00  0.00    +0.277 C 
ENDBRANCH  28  31
ENDBRANCH  24  25
BRANCH  24  33
ATOM     33  C   UNL     1      -3.079 -10.456   1.431  0.00  0.00    -0.023 A 
ATOM     34  C   UNL     1      -4.078 -10.243   2.362  0.00  0.00    +0.009 A 
ATOM     35  C   UNL     1      -5.278 -10.920   2.256  0.00  0.00    +0.046 A 
ATOM     36  C   UNL     1      -5.479 -11.813   1.213  0.00  0.00    +0.120 A 
ATOM     37  C   UNL     1      -4.475 -12.024   0.280  0.00  0.00    +0.046 A 
ATOM     38  C   UNL     1      -3.279 -11.341   0.388  0.00  0.00    +0.009 A 
BRANCH  36  39
ATOM     39  O   UNL     1      -6.659 -12.480   1.106  0.00  0.00    -0.495 OA
ATOM     40  C   UNL     1      -6.796 -13.383   0.008  0.00  0.00    +0.277 C 
ENDBRANCH  36  39
ENDBRANCH  24  33
ENDBRANCH   3  24
TORSDOF 9
