REMARK  Name = ZINC63281539
REMARK  7 active torsions:
REMARK  status: ('A' for Active; 'I' for Inactive)
REMARK    1  A    between atoms: C_1  and  O_2
REMARK    2  A    between atoms: O_2  and  C_3
REMARK    3  A    between atoms: C_9  and  C_12
REMARK    4  A    between atoms: C_12  and  C_13
REMARK    5  A    between atoms: C_13  and  N_14
REMARK    6  A    between atoms: C_15  and  C_17
REMARK    7  A    between atoms: C_21  and  C_24
REMARK                            x       y       z     vdW  Elec       q    Type
REMARK                         _______ _______ _______ _____ _____    ______ ____
ROOT
ATOM      1  N   UNL     1       1.869  -6.860   0.087  0.00  0.00    -0.311 N 
ATOM      2  C   UNL     1       2.616  -7.300  -0.945  0.00  0.00    +0.238 C 
ATOM      3  O   UNL     1       3.637  -6.711  -1.252  0.00  0.00    -0.271 OA
ATOM      4  H   UNL     1       1.056  -7.329   0.332  0.00  0.00    +0.149 HD
ENDROOT
BRANCH   2   5
ATOM      5  C   UNL     1       2.214  -8.445  -1.671  0.00  0.00    +0.086 C 
ATOM      6  C   UNL     1       3.020  -8.956  -2.624  0.00  0.00    +0.020 C 
ATOM      7  C   UNL     1       2.575 -10.085  -3.546  0.00  0.00    +0.121 C 
ATOM      8  S   UNL     1       3.614  -9.707  -5.024  0.00  0.00    -0.128 S 
ATOM      9  C   UNL     1       4.896  -8.716  -4.147  0.00  0.00    +0.159 C 
ATOM     10  N   UNL     1       4.273  -8.500  -2.829  0.00  0.00    -0.331 N 
ATOM     11  H   UNL     1       4.755  -8.040  -2.124  0.00  0.00    +0.147 HD
BRANCH   9  12
ATOM     12  C   UNL     1       5.135  -7.405  -4.850  0.00  0.00    -0.017 A 
ATOM     13  C   UNL     1       4.375  -6.297  -4.523  0.00  0.00    +0.008 A 
ATOM     14  C   UNL     1       4.594  -5.094  -5.168  0.00  0.00    +0.020 A 
ATOM     15  C   UNL     1       5.573  -4.999  -6.140  0.00  0.00    +0.041 A 
ATOM     16  C   UNL     1       6.333  -6.108  -6.467  0.00  0.00    +0.020 A 
ATOM     17  C   UNL     1       6.117  -7.309  -5.818  0.00  0.00    +0.008 A 
ATOM     18 CL   UNL     1       5.848  -3.488  -6.951  0.00  0.00    -0.084 Cl
ENDBRANCH   9  12
ENDBRANCH   2   5
BRANCH   1  19
ATOM     19  C   UNL     1       2.285  -5.673   0.840  0.00  0.00    +0.109 C 
BRANCH  19  20
ATOM     20  C   UNL     1       1.271  -5.391   1.949  0.00  0.00    +0.052 C 
BRANCH  20  27
ATOM     21  C   UNL     1       0.147  -0.951   1.601  0.00  0.00    +0.121 A 
ATOM     22  C   UNL     1       0.782  -0.115   2.536  0.00  0.00    +0.047 A 
ATOM     23  C   UNL     1       1.651  -0.582   3.458  0.00  0.00    +0.029 A 
ATOM     24  C   UNL     1       1.960  -2.014   3.507  0.00  0.00    +0.043 A 
ATOM     25  N   UNL     1       2.749  -2.714   4.283  0.00  0.00    -0.380 N 
ATOM     26  C   UNL     1       2.671  -4.123   3.880  0.00  0.00    +0.144 C 
ATOM     27  C   UNL     1       1.699  -4.171   2.723  0.00  0.00    -0.040 C 
ATOM     28  C   UNL     1       1.291  -2.897   2.523  0.00  0.00    +0.002 A 
ATOM     29  C   UNL     1       0.360  -2.289   1.566  0.00  0.00    +0.055 A 
ATOM     30  H   UNL     1       3.294  -2.360   5.003  0.00  0.00    +0.160 HD
BRANCH  21  32
ATOM     31  C   UNL     1      -0.910   1.013   0.779  0.00  0.00    +0.277 C 
ATOM     32  O   UNL     1      -0.715  -0.401   0.706  0.00  0.00    -0.495 OA
ENDBRANCH  21  32
ENDBRANCH  20  27
ENDBRANCH  19  20
ENDBRANCH   1  19
TORSDOF 6
