REMARK  Name = ZINC33684535
REMARK  3 active torsions:
REMARK  status: ('A' for Active; 'I' for Inactive)
REMARK    1  A    between atoms: C_10  and  C_12
REMARK    2  A    between atoms: C_14  and  N_28
REMARK    3  A    between atoms: C_16  and  C_21
REMARK                            x       y       z     vdW  Elec       q    Type
REMARK                         _______ _______ _______ _____ _____    ______ ____
ROOT
ATOM      1  C   UNL     1       4.680   0.027   0.880  0.00  0.00    +0.030 C 
ATOM      2  C   UNL     1       5.761   0.639   0.364  0.00  0.00    +0.186 C 
ATOM      3  C   UNL     1       6.744   1.361   1.246  0.00  0.00    +0.187 C 
ATOM      4  C   UNL     1       6.019   1.907   2.480  0.00  0.00    +0.059 C 
ATOM      5  C   UNL     1       5.343   0.743   3.211  0.00  0.00    +0.090 C 
ATOM      6  C   UNL     1       4.412   0.040   2.257  0.00  0.00    +0.162 C 
ATOM      7  O   UNL     1       3.425  -0.524   2.683  0.00  0.00    -0.292 OA
ATOM      8  O   UNL     1       5.967   0.607  -0.966  0.00  0.00    -0.290 OA
ENDROOT
BRANCH   1  18
ATOM      9  C   UNL     1      -0.017   1.376   0.010  0.00  0.00    +0.000 A 
ATOM     10  C   UNL     1       1.173   2.080   0.002  0.00  0.00    +0.000 A 
ATOM     11  C   UNL     1       2.375   1.401  -0.015  0.00  0.00    +0.002 A 
ATOM     12  C   UNL     1       2.395   0.014  -0.023  0.00  0.00    -0.054 A 
ATOM     13  C   UNL     1       1.208  -0.687  -0.013  0.00  0.00    -0.047 A 
ATOM     14  C   UNL     1       0.002  -0.004   0.002  0.00  0.00    +0.004 A 
ATOM     15  C   UNL     1       1.186  -2.194  -0.014  0.00  0.00    +0.016 C 
ATOM     16  C   UNL     1       2.554  -2.732  -0.434  0.00  0.00    -0.077 C 
ATOM     17  N   UNL     1       3.587  -2.079   0.386  0.00  0.00    +0.387 N 
ATOM     18  C   UNL     1       3.728  -0.686  -0.046  0.00  0.00    -0.003 C 
ATOM     19  H   UNL     1       3.313  -2.106   1.357  0.00  0.00    -0.085 HD
ATOM     20  H   UNL     1       4.466  -2.561   0.268  0.00  0.00    -0.085 HD
ENDBRANCH   1  18
BRANCH   4  21
ATOM     21  C   UNL     1       7.014   2.572   3.396  0.00  0.00    -0.041 A 
ATOM     22  C   UNL     1       8.067   1.845   3.918  0.00  0.00    +0.007 A 
ATOM     23  C   UNL     1       8.979   2.454   4.758  0.00  0.00    +0.038 A 
ATOM     24  C   UNL     1       8.838   3.795   5.077  0.00  0.00    +0.123 A 
ATOM     25  C   UNL     1       7.783   4.522   4.553  0.00  0.00    +0.038 A 
ATOM     26  C   UNL     1       6.875   3.912   3.709  0.00  0.00    +0.007 A 
ATOM     27  F   UNL     1       9.729   4.391   5.898  0.00  0.00    -0.205 F 
ENDBRANCH   4  21
BRANCH   3  28
ATOM     28  N   UNL     1       7.794   0.431   1.669  0.00  0.00    -0.241 N 
ATOM     29  C   UNL     1       7.651  -0.879   1.934  0.00  0.00    +0.219 A 
ATOM     30  N   UNL     1       8.821  -1.354   2.278  0.00  0.00    -0.223 NA
ATOM     31  C   UNL     1       9.731  -0.382   2.244  0.00  0.00    +0.245 A 
ATOM     32  N   UNL     1       9.152   0.729   1.871  0.00  0.00    -0.158 NA
ENDBRANCH   3  28
TORSDOF 3
