REMARK  Name = ZINC20347919
REMARK  13 active torsions:
REMARK  status: ('A' for Active; 'I' for Inactive)
REMARK    1  A    between atoms: C_1  and  C_2
REMARK    2  A    between atoms: C_7  and  N_8
REMARK    3  A    between atoms: C_9  and  C_11
REMARK    4  A    between atoms: C_11  and  S_12
REMARK    5  A    between atoms: S_12  and  C_13
REMARK    6  A    between atoms: C_14  and  C_38
REMARK    7  A    between atoms: C_15  and  C_33
REMARK    8  A    between atoms: C_17  and  C_21
REMARK    9  A    between atoms: C_18  and  C_20
REMARK   10  A    between atoms: N_23  and  C_24
REMARK   11  A    between atoms: C_25  and  C_32
REMARK   12  A    between atoms: C_27  and  C_31
REMARK   13  A    between atoms: C_29  and  C_30
REMARK                            x       y       z     vdW  Elec       q    Type
REMARK                         _______ _______ _______ _____ _____    ______ ____
ROOT
ATOM      1  C   UNL     1       8.501  -2.400  -1.048  0.00  0.00    +0.080 C 
ATOM      2  C   UNL     1       7.495  -3.163  -0.541  0.00  0.00    +0.072 C 
ATOM      3  C   UNL     1       6.199  -2.547  -0.094  0.00  0.00    +0.134 C 
ATOM      4  C   UNL     1       6.054  -1.154  -0.638  0.00  0.00    +0.047 C 
ATOM      5  C   UNL     1       7.101  -0.479  -1.138  0.00  0.00    +0.015 C 
ATOM      6  N   UNL     1       8.350  -1.037  -1.171  0.00  0.00    -0.312 N 
ATOM      7  C   UNL     1       6.899   0.918  -1.667  0.00  0.00    +0.061 C 
ATOM      8  H   UNL     1       9.234  -0.395  -1.296  0.00  0.00    +0.152 HD
ENDROOT
BRANCH   3   9
ATOM      9  C   UNL     1       5.053  -3.392  -0.586  0.00  0.00    +0.118 A 
ATOM     10  C   UNL     1       4.116  -3.973   0.185  0.00  0.00    +0.045 A 
ATOM     11  C   UNL     1       3.240  -4.662  -0.684  0.00  0.00    +0.041 A 
ATOM     12  C   UNL     1       3.698  -4.470  -1.933  0.00  0.00    +0.195 A 
ATOM     13  O   UNL     1       4.797  -3.700  -1.868  0.00  0.00    -0.467 OA
ENDBRANCH   3   9
BRANCH   4  14
ATOM     14  C   UNL     1       4.779  -0.540  -0.628  0.00  0.00    +0.247 C 
ATOM     15  O   UNL     1       4.329  -0.088   0.410  0.00  0.00    -0.270 OA
ATOM     16  N   UNL     1       4.063  -0.454  -1.766  0.00  0.00    -0.281 N 
ATOM     17  H   UNL     1       4.425  -0.945  -2.682  0.00  0.00    +0.155 HD
BRANCH  16  18
ATOM     18  C   UNL     1       2.860   0.259  -1.784  0.00  0.00    +0.040 A 
ATOM     19  C   UNL     1       2.674   1.288  -2.699  0.00  0.00    -0.029 A 
ATOM     20  C   UNL     1       1.485   1.990  -2.714  0.00  0.00    +0.008 A 
ATOM     21  C   UNL     1       0.480   1.669  -1.820  0.00  0.00    -0.050 A 
ATOM     22  C   UNL     1       0.662   0.646  -0.908  0.00  0.00    +0.008 A 
ATOM     23  C   UNL     1       1.849  -0.060  -0.887  0.00  0.00    -0.029 A 
ATOM     24  C   UNL     1       2.046  -1.175   0.107  0.00  0.00    +0.045 C 
ATOM     25  C   UNL     1      -0.814   2.442  -1.835  0.00  0.00    +0.044 C 
ATOM     26  C   UNL     1       3.769   1.637  -3.673  0.00  0.00    +0.045 C 
ENDBRANCH  16  18
ENDBRANCH   4  14
BRANCH   2  27
ATOM     27  C   UNL     1       7.673  -4.579  -0.431  0.00  0.00    +0.098 C 
ATOM     28  N   UNL     1       7.816  -5.703  -0.344  0.00  0.00    -0.191 NA
ENDBRANCH   2  27
BRANCH   1  29
ATOM     29  S   UNL     1      10.008  -3.163  -1.549  0.00  0.00    -0.100 S 
BRANCH  29  30
ATOM     30  C   UNL     1      10.924  -1.707  -2.114  0.00  0.00    +0.171 C 
BRANCH  30  32
ATOM     31  N   UNL     1      13.147  -1.206  -3.074  0.00  0.00    -0.285 N 
ATOM     32  C   UNL     1      12.285  -2.129  -2.603  0.00  0.00    +0.227 C 
ATOM     33  O   UNL     1      12.605  -3.298  -2.573  0.00  0.00    -0.275 OA
ATOM     34  H   UNL     1      12.888  -0.138  -3.030  0.00  0.00    +0.155 HD
BRANCH  31  41
ATOM     35  C   UNL     1      14.355   0.461  -5.038  0.00  0.00    +0.045 C 
ATOM     36  C   UNL     1      14.997  -0.823  -4.579  0.00  0.00    -0.029 A 
ATOM     37  C   UNL     1      16.209  -1.219  -5.110  0.00  0.00    +0.005 A 
ATOM     38  C   UNL     1      16.796  -2.400  -4.694  0.00  0.00    +0.000 A 
ATOM     39  C   UNL     1      16.173  -3.186  -3.741  0.00  0.00    +0.002 A 
ATOM     40  C   UNL     1      14.964  -2.793  -3.202  0.00  0.00    +0.023 A 
ATOM     41  C   UNL     1      14.373  -1.607  -3.618  0.00  0.00    +0.036 A 
ENDBRANCH  31  41
ENDBRANCH  30  32
ENDBRANCH  29  30
ENDBRANCH   1  29
TORSDOF 8
