REMARK  Name = ZINC12473299
REMARK  9 active torsions:
REMARK  status: ('A' for Active; 'I' for Inactive)
REMARK    1  A    between atoms: C_5  and  N_7
REMARK    2  A    between atoms: N_7  and  C_8
REMARK    3  A    between atoms: C_8  and  C_10
REMARK    4  A    between atoms: C_8  and  C_17
REMARK    5  A    between atoms: N_19  and  C_20
REMARK    6  A    between atoms: C_20  and  C_21
REMARK    7  A    between atoms: C_27  and  C_29
REMARK    8  A    between atoms: C_30  and  N_37
REMARK    9  A    between atoms: C_31  and  C_34
REMARK                            x       y       z     vdW  Elec       q    Type
REMARK                         _______ _______ _______ _____ _____    ______ ____
ROOT
ATOM      1  N   UNL     1      -5.053   1.216   3.428  0.00  0.00    -0.248 N 
ATOM      2  C   UNL     1      -6.299   1.699   3.250  0.00  0.00    +0.262 C 
ATOM      3  O   UNL     1      -6.780   1.745   2.133  0.00  0.00    -0.269 OA
ENDROOT
BRANCH   1   8
ATOM      4  C   UNL     1      -3.253   2.196   6.482  0.00  0.00    +0.002 A 
ATOM      5  C   UNL     1      -3.405   1.058   7.253  0.00  0.00    +0.003 A 
ATOM      6  C   UNL     1      -4.102  -0.028   6.759  0.00  0.00    +0.040 A 
ATOM      7  C   UNL     1      -4.656   0.022   5.492  0.00  0.00    +0.145 A 
ATOM      8  C   UNL     1      -4.500   1.163   4.713  0.00  0.00    +0.073 A 
ATOM      9  C   UNL     1      -3.798   2.252   5.214  0.00  0.00    +0.026 A 
ATOM     10  F   UNL     1      -5.342  -1.037   5.011  0.00  0.00    -0.204 F 
ENDBRANCH   1   8
BRANCH   2  11
ATOM     11  C   UNL     1      -7.073   2.167   4.401  0.00  0.00    +0.116 A 
ATOM     12  C   UNL     1      -8.364   2.697   4.442  0.00  0.00    +0.076 A 
ATOM     13  C   UNL     1      -8.763   3.032   5.736  0.00  0.00    +0.155 A 
ATOM     14  N   UNL     1      -7.935   2.830   6.737  0.00  0.00    -0.203 NA
ATOM     15  S   UNL     1      -6.624   2.206   6.124  0.00  0.00    +0.019 S 
BRANCH  13  16
ATOM     16  C   UNL     1     -10.099   3.607   5.979  0.00  0.00    +0.262 C 
ATOM     17  O   UNL     1     -10.860   3.791   5.048  0.00  0.00    -0.269 OA
ATOM     18  N   UNL     1     -10.477   3.928   7.232  0.00  0.00    -0.324 N 
ATOM     19  H   UNL     1      -9.870   3.781   7.974  0.00  0.00    +0.145 HD
ATOM     20  H   UNL     1     -11.356   4.306   7.392  0.00  0.00    +0.145 HD
ENDBRANCH  13  16
BRANCH  12  21
ATOM     21  N   UNL     1      -9.163   2.872   3.320  0.00  0.00    -0.355 N 
ATOM     22  H   UNL     1      -8.830   2.619   2.444  0.00  0.00    +0.142 HD
ATOM     23  H   UNL     1     -10.053   3.246   3.411  0.00  0.00    +0.142 HD
ENDBRANCH  12  21
ENDBRANCH   2  11
BRANCH   1  24
ATOM     24  C   UNL     1      -4.278   0.748   2.277  0.00  0.00    +0.198 C 
BRANCH  24  25
ATOM     25  C   UNL     1      -3.788  -0.653   2.538  0.00  0.00    -0.018 A 
ATOM     26  C   UNL     1      -2.849  -0.884   3.526  0.00  0.00    +0.009 A 
ATOM     27  C   UNL     1      -2.402  -2.168   3.770  0.00  0.00    +0.038 A 
ATOM     28  C   UNL     1      -2.887  -3.224   3.017  0.00  0.00    +0.123 A 
ATOM     29  C   UNL     1      -3.823  -2.991   2.023  0.00  0.00    +0.038 A 
ATOM     30  C   UNL     1      -4.273  -1.706   1.785  0.00  0.00    +0.009 A 
ATOM     31  F   UNL     1      -2.448  -4.480   3.251  0.00  0.00    -0.205 F 
ENDBRANCH  24  25
BRANCH  24  32
ATOM     32  C   UNL     1      -3.098   1.660   2.060  0.00  0.00    +0.239 C 
ATOM     33  O   UNL     1      -2.922   2.609   2.795  0.00  0.00    -0.273 OA
ATOM     34  N   UNL     1      -2.239   1.422   1.049  0.00  0.00    -0.311 N 
ATOM     35  H   UNL     1      -2.379   0.664   0.462  0.00  0.00    +0.149 HD
BRANCH  34  36
ATOM     36  C   UNL     1      -1.092   2.309   0.839  0.00  0.00    +0.135 C 
BRANCH  36  37
ATOM     37  C   UNL     1      -0.283   1.820  -0.364  0.00  0.00    +0.135 C 
ATOM     38  C   UNL     1       0.980   2.690  -0.553  0.00  0.00    +0.035 C 
ATOM     39  C   UNL     1       1.134   2.800  -2.086  0.00  0.00    +0.031 C 
ATOM     40  C   UNL     1      -0.053   1.983  -2.642  0.00  0.00    +0.160 C 
ATOM     41  O   UNL     1      -1.036   1.993  -1.584  0.00  0.00    -0.375 OA
ENDBRANCH  36  37
ENDBRANCH  34  36
ENDBRANCH  24  32
ENDBRANCH   1  24
TORSDOF 9
