REMARK  Name = ZINC04554025
REMARK  6 active torsions:
REMARK  status: ('A' for Active; 'I' for Inactive)
REMARK    1  A    between atoms: C_1  and  C_2
REMARK    2  A    between atoms: C_7  and  C_8
REMARK    3  A    between atoms: C_19  and  C_20
REMARK    4  A    between atoms: C_19  and  C_21
REMARK    5  A    between atoms: C_19  and  N_47
REMARK    6  A    between atoms: C_22  and  O_24
REMARK                            x       y       z     vdW  Elec       q    Type
REMARK                         _______ _______ _______ _____ _____    ______ ____
ROOT
ATOM      1  C   UNL     1      -0.306  -6.066   1.696  0.00  0.00    +0.224 C 
ATOM      2  N   UNL     1       0.839  -5.159   1.896  0.00  0.00    -0.313 N 
ATOM      3  C   UNL     1       0.544  -3.821   2.003  0.00  0.00    +0.080 A 
ATOM      4  C   UNL     1      -0.622  -3.263   1.461  0.00  0.00    +0.067 A 
ATOM      5  C   UNL     1      -0.785  -1.835   1.650  0.00  0.00    -0.027 A 
ATOM      6  C   UNL     1       0.208  -1.215   2.333  0.00  0.00    -0.021 A 
ATOM      7  S   UNL     1       1.360  -2.503   2.728  0.00  0.00    -0.080 S 
ATOM      8  C   UNL     1       0.286   0.241   2.664  0.00  0.00    -0.035 C 
ATOM      9  C   UNL     1      -2.012   0.301   1.898  0.00  0.00    -0.073 C 
ATOM     10  C   UNL     1      -1.974  -1.029   1.140  0.00  0.00    +0.018 C 
ATOM     11  C   UNL     1      -1.543  -4.181   0.744  0.00  0.00    +0.220 C 
ATOM     12  N   UNL     1      -1.329  -5.464   0.850  0.00  0.00    -0.223 NA
ATOM     13  H   UNL     1       1.750  -5.488   1.949  0.00  0.00    +0.149 HD
ATOM     14  N   UNL     1      -0.691   0.955   1.805  0.00  0.00    +0.384 N 
ATOM     15  H   UNL     1      -0.368   0.920   0.831  0.00  0.00    -0.081 HD
ENDROOT
BRANCH   1  22
ATOM     16  C   UNL     1      -2.968  -7.181   1.845  0.00  0.00    +0.044 C 
ATOM     17  C   UNL     1      -2.183  -6.932   3.107  0.00  0.00    -0.044 A 
ATOM     18  C   UNL     1      -2.737  -7.237   4.337  0.00  0.00    +0.004 A 
ATOM     19  C   UNL     1      -2.018  -7.010   5.495  0.00  0.00    +0.000 A 
ATOM     20  C   UNL     1      -0.744  -6.477   5.424  0.00  0.00    +0.000 A 
ATOM     21  C   UNL     1      -0.189  -6.176   4.194  0.00  0.00    +0.007 A 
ATOM     22  C   UNL     1      -0.910  -6.399   3.036  0.00  0.00    -0.003 A 
ENDBRANCH   1  22
BRANCH  14  23
ATOM     23  C   UNL     1      -0.795   2.369   2.226  0.00  0.00    -0.074 C 
ATOM     24  C   UNL     1       0.605   2.985   2.264  0.00  0.00    -0.014 C 
ATOM     25  C   UNL     1      -1.658   3.125   1.213  0.00  0.00    -0.014 C 
ENDBRANCH  14  23
BRANCH  11  26
ATOM     26  O   UNL     1      -2.572  -3.704   0.006  0.00  0.00    -0.492 OA
ATOM     27  H   UNL     1      -3.106  -4.391  -0.415  0.00  0.00    +0.294 HD
ENDBRANCH  11  26
TORSDOF 3
