REMARK  Name = ZINC08903060
REMARK  5 active torsions:
REMARK  status: ('A' for Active; 'I' for Inactive)
REMARK    1  A    between atoms: C_1  and  O_2
REMARK    2  A    between atoms: O_2  and  C_3
REMARK    3  A    between atoms: C_5  and  C_10
REMARK    4  A    between atoms: C_8  and  O_9
REMARK    5  A    between atoms: N_13  and  N_14
REMARK                            x       y       z     vdW  Elec       q    Type
REMARK                         _______ _______ _______ _____ _____    ______ ____
ROOT
ATOM      1  C   UNL     1      -2.498   5.106   0.344  0.00  0.00    +0.138 A 
ATOM      2  C   UNL     1      -1.413   5.914   0.362  0.00  0.00    +0.077 A 
ATOM      3  C   UNL     1      -0.097   5.322   0.049  0.00  0.00    +0.096 A 
ATOM      4  N   UNL     1       0.959   6.063  -0.195  0.00  0.00    -0.180 NA
ATOM      5  C   UNL     1      -0.039   3.838   0.027  0.00  0.00    +0.047 A 
ATOM      6  C   UNL     1       1.173   3.161   0.009  0.00  0.00    +0.033 A 
ATOM      7  C   UNL     1       1.181   1.778   0.000  0.00  0.00    +0.043 A 
ATOM      8  C   UNL     1      -0.013   1.076   0.008  0.00  0.00    +0.043 A 
ATOM      9  C   UNL     1      -1.223   1.744   0.017  0.00  0.00    +0.085 A 
ATOM     10  C   UNL     1      -1.250   3.132   0.031  0.00  0.00    +0.156 A 
ATOM     11  O   UNL     1      -2.426   3.797   0.039  0.00  0.00    -0.453 OA
ATOM     12 CL   UNL     1      -2.709   0.847   0.019  0.00  0.00    -0.080 Cl
ATOM     13 CL   UNL     1       2.691   0.921  -0.021  0.00  0.00    -0.083 Cl
ENDROOT
BRANCH   4  14
ATOM     14  N   UNL     1       0.857   7.460  -0.163  0.00  0.00    -0.215 N 
ATOM     15  C   UNL     1       1.964   8.237  -0.419  0.00  0.00    +0.179 A 
ATOM     16  N   UNL     1       3.191   7.857  -0.704  0.00  0.00    -0.224 NA
ATOM     17  C   UNL     1       4.186   8.739  -0.939  0.00  0.00    +0.080 A 
ATOM     18  C   UNL     1       5.536   8.465  -1.259  0.00  0.00    +0.029 A 
ATOM     19  C   UNL     1       6.428   9.486  -1.462  0.00  0.00    +0.002 A 
ATOM     20  C   UNL     1       6.043  10.815  -1.363  0.00  0.00    +0.001 A 
ATOM     21  C   UNL     1       4.730  11.119  -1.053  0.00  0.00    +0.017 A 
ATOM     22  C   UNL     1       3.830  10.104  -0.847  0.00  0.00    +0.041 A 
ATOM     23  S   UNL     1       2.103  10.019  -0.441  0.00  0.00    -0.051 S 
ATOM     24  H   UNL     1       0.006   7.879   0.040  0.00  0.00    +0.176 HD
ENDBRANCH   4  14
BRANCH   1  27
ATOM     25  C   UNL     1      -6.188   5.425   0.971  0.00  0.00    +0.162 A 
ATOM     26  C   UNL     1      -4.957   4.879   0.657  0.00  0.00    +0.061 A 
ATOM     27  C   UNL     1      -3.815   5.684   0.672  0.00  0.00    +0.021 A 
ATOM     28  C   UNL     1      -3.925   7.040   0.993  0.00  0.00    +0.015 A 
ATOM     29  C   UNL     1      -5.156   7.578   1.299  0.00  0.00    +0.050 A 
ATOM     30  C   UNL     1      -6.289   6.777   1.290  0.00  0.00    +0.158 A 
BRANCH  25  32
ATOM     31  C   UNL     1      -7.122   3.265   0.626  0.00  0.00    +0.277 C 
ATOM     32  O   UNL     1      -7.300   4.643   0.963  0.00  0.00    -0.491 OA
ENDBRANCH  25  32
BRANCH  30  33
ATOM     33  O   UNL     1      -7.501   7.313   1.593  0.00  0.00    -0.503 OA
ATOM     34  H   UNL     1      -7.980   7.660   0.828  0.00  0.00    +0.292 HD
ENDBRANCH  30  33
ENDBRANCH   1  27
TORSDOF 4
