REMARK  Name = ZINC04118649
REMARK  6 active torsions:
REMARK  status: ('A' for Active; 'I' for Inactive)
REMARK    1  A    between atoms: C_10  and  C_11
REMARK    2  A    between atoms: C_11  and  N_12
REMARK    3  A    between atoms: N_12  and  C_13
REMARK    4  A    between atoms: C_13  and  C_14
REMARK    5  A    between atoms: N_16  and  C_17
REMARK    6  A    between atoms: C_22  and  N_23
REMARK                            x       y       z     vdW  Elec       q    Type
REMARK                         _______ _______ _______ _____ _____    ______ ____
ROOT
ATOM      1  N   UNL     1       5.299   0.590   1.311  0.00  0.00    +0.387 N 
ATOM      2  H   UNL     1       4.551   1.185   1.633  0.00  0.00    -0.085 HD
ATOM      3  H   UNL     1       5.386  -0.205   1.927  0.00  0.00    -0.085 HD
ENDROOT
BRANCH   1   4
ATOM      4  C   UNL     1       5.003   0.124  -0.051  0.00  0.00    -0.046 C 
BRANCH   4  14
ATOM      5  C   UNL     1       0.026   1.322  -0.056  0.00  0.00    +0.001 A 
ATOM      6  C   UNL     1       1.212   2.055  -0.059  0.00  0.00    +0.001 A 
ATOM      7  C   UNL     1       2.421   1.432  -0.057  0.00  0.00    +0.009 A 
ATOM      8  C   UNL     1       2.480   0.028  -0.050  0.00  0.00    -0.017 A 
ATOM      9  C   UNL     1       1.275  -0.718  -0.046  0.00  0.00    -0.018 A 
ATOM     10  C   UNL     1       0.044  -0.039  -0.050  0.00  0.00    +0.008 A 
ATOM     11  C   UNL     1       1.334  -2.122  -0.039  0.00  0.00    +0.008 A 
ATOM     12  C   UNL     1       2.544  -2.745  -0.036  0.00  0.00    +0.001 A 
ATOM     13  C   UNL     1       3.728  -2.012  -0.039  0.00  0.00    +0.002 A 
ATOM     14  C   UNL     1       3.710  -0.651  -0.046  0.00  0.00    -0.057 A 
ENDBRANCH   4  14
ENDBRANCH   1   4
BRANCH   1  15
ATOM     15  C   UNL     1       6.559   1.345   1.307  0.00  0.00    +0.016 C 
BRANCH  15  16
ATOM     16  C   UNL     1       6.864   1.822   2.703  0.00  0.00    +0.200 C 
ATOM     17  O   UNL     1       6.105   1.559   3.613  0.00  0.00    -0.278 OA
ATOM     18  N   UNL     1       7.978   2.541   2.942  0.00  0.00    -0.285 N 
ATOM     19  H   UNL     1       8.617   2.697   2.229  0.00  0.00    +0.155 HD
BRANCH  18  20
ATOM     20  C   UNL     1       8.213   3.064   4.218  0.00  0.00    +0.064 A 
ATOM     21  C   UNL     1       7.825   2.351   5.345  0.00  0.00    +0.025 A 
ATOM     22  C   UNL     1       8.059   2.870   6.603  0.00  0.00    +0.002 A 
ATOM     23  C   UNL     1       8.679   4.098   6.742  0.00  0.00    +0.002 A 
ATOM     24  C   UNL     1       9.066   4.811   5.622  0.00  0.00    +0.034 A 
ATOM     25  C   UNL     1       8.841   4.295   4.361  0.00  0.00    +0.147 A 
BRANCH  25  26
ATOM     26  N   UNL     1       9.261   5.056   3.163  0.00  0.00    +0.058 N 
ATOM     27  O   UNL     1       9.893   6.079   3.288  0.00  0.00    -0.126 OA
ATOM     28  O   UNL     1       8.974   4.653   2.060  0.00  0.00    -0.126 OA
ENDBRANCH  25  26
ENDBRANCH  18  20
ENDBRANCH  15  16
ENDBRANCH   1  15
TORSDOF 6
