REMARK  Name = ZINC09414012
REMARK  7 active torsions:
REMARK  status: ('A' for Active; 'I' for Inactive)
REMARK    1  A    between atoms: C_1  and  C_2
REMARK    2  A    between atoms: C_2  and  C_3
REMARK    3  A    between atoms: C_3  and  C_4
REMARK    4  A    between atoms: C_5  and  O_18
REMARK    5  A    between atoms: N_9  and  C_12
REMARK    6  A    between atoms: N_19  and  C_20
REMARK    7  A    between atoms: C_26  and  N_56
REMARK                            x       y       z     vdW  Elec       q    Type
REMARK                         _______ _______ _______ _____ _____    ______ ____
ROOT
ATOM      1  C   UNL     1      -1.222   1.817  -0.010  0.00  0.00    +0.202 C 
ATOM      2  C   UNL     1      -0.970   3.235  -0.300  0.00  0.00    +0.198 C 
ATOM      3  N   UNL     1       0.282   3.662  -0.320  0.00  0.00    -0.131 NA
ATOM      4  C   UNL     1       1.308   2.851  -0.081  0.00  0.00    +0.335 C 
ATOM      5  O   UNL     1       2.433   3.319  -0.117  0.00  0.00    -0.250 OA
ATOM      6  N   UNL     1       1.173   1.546   0.198  0.00  0.00    -0.220 N 
ATOM      7  C   UNL     1      -0.046   0.968   0.253  0.00  0.00    +0.241 C 
ATOM      8  O   UNL     1      -0.170  -0.216   0.506  0.00  0.00    -0.274 OA
ENDROOT
BRANCH   6   9
ATOM      9  C   UNL     1       2.367   0.735   0.448  0.00  0.00    +0.086 C 
ATOM     10  C   UNL     1       3.126   1.301   1.650  0.00  0.00    +0.023 C 
ATOM     11  C   UNL     1       4.373   0.454   1.911  0.00  0.00    +0.002 C 
ATOM     12  C   UNL     1       5.277   0.483   0.677  0.00  0.00    +0.000 C 
ATOM     13  C   UNL     1       4.518  -0.083  -0.525  0.00  0.00    +0.002 C 
ATOM     14  C   UNL     1       3.271   0.764  -0.786  0.00  0.00    +0.023 C 
ENDBRANCH   6   9
BRANCH   1  15
ATOM     15  C   UNL     1      -2.509   1.302   0.020  0.00  0.00    +0.034 C 
ATOM     16  N   UNL     1      -3.567   2.128  -0.072  0.00  0.00    -0.290 NA
BRANCH  16  17
ATOM     17  C   UNL     1      -4.920   1.577  -0.180  0.00  0.00    +0.091 C 
ATOM     18  C   UNL     1      -5.227   1.258  -1.645  0.00  0.00    +0.025 C 
ATOM     19  C   UNL     1      -6.639   0.682  -1.757  0.00  0.00    +0.002 C 
ATOM     20  C   UNL     1      -7.650   1.705  -1.235  0.00  0.00    -0.001 C 
ATOM     21  C   UNL     1      -7.344   2.024   0.230  0.00  0.00    -0.014 C 
ATOM     22  C   UNL     1      -5.931   2.600   0.342  0.00  0.00    -0.050 C 
BRANCH  22  25
ATOM     23  H   UNL     1      -6.292   3.580   2.116  0.00  0.00    -0.090 HD
ATOM     24  H   UNL     1      -5.631   2.066   2.307  0.00  0.00    -0.090 HD
ATOM     25  N   UNL     1      -5.614   2.916   1.746  0.00  0.00    +0.381 N 
ATOM     26  H   UNL     1      -4.676   3.331   1.795  0.00  0.00    -0.090 HD
ENDBRANCH  22  25
ENDBRANCH  16  17
BRANCH  15  28
ATOM     27  C   UNL     1      -2.807  -0.552   1.640  0.00  0.00    +0.010 C 
ATOM     28  C   UNL     1      -2.723  -0.184   0.157  0.00  0.00    +0.048 C 
ENDBRANCH  15  28
ENDBRANCH   1  15
BRANCH   2  29
ATOM     29  O   UNL     1      -1.992   4.081  -0.548  0.00  0.00    -0.496 OA
ATOM     30  H   UNL     1      -1.715   4.989  -0.731  0.00  0.00    +0.293 HD
ENDBRANCH   2  29
TORSDOF 6
