REMARK  Name = ZINC12502746
REMARK  9 active torsions:
REMARK  status: ('A' for Active; 'I' for Inactive)
REMARK    1  A    between atoms: C_4  and  C_7
REMARK    2  A    between atoms: C_7  and  C_8
REMARK    3  A    between atoms: C_7  and  C_14
REMARK    4  A    between atoms: N_16  and  C_17
REMARK    5  A    between atoms: C_17  and  N_19
REMARK    6  A    between atoms: N_19  and  N_20
REMARK    7  A    between atoms: C_21  and  C_23
REMARK    8  A    between atoms: C_23  and  O_24
REMARK    9  A    between atoms: O_24  and  C_25
REMARK                            x       y       z     vdW  Elec       q    Type
REMARK                         _______ _______ _______ _____ _____    ______ ____
ROOT
ATOM      1  C   UNL     1       6.496   9.114   0.038  0.00  0.00    +0.230 C 
ATOM      2  O   UNL     1       6.434  10.324   0.069  0.00  0.00    -0.274 OA
ATOM      3  N   UNL     1       5.365   8.381   0.062  0.00  0.00    -0.266 N 
ATOM      4  H   UNL     1       5.415   7.412   0.037  0.00  0.00    +0.157 HD
ENDROOT
BRANCH   3   5
ATOM      5  C   UNL     1       4.166   8.993   0.121  0.00  0.00    +0.153 C 
ATOM      6  S   UNL     1       4.079  10.702   0.165  0.00  0.00    -0.017 S 
BRANCH   5   7
ATOM      7  N   UNL     1       3.035   8.260   0.145  0.00  0.00    -0.245 N 
ATOM      8  H   UNL     1       2.172   8.700   0.188  0.00  0.00    +0.172 HD
BRANCH   7   9
ATOM      9  N   UNL     1       3.107   6.861   0.109  0.00  0.00    -0.232 N 
ATOM     10  C   UNL     1       1.976   6.128   0.134  0.00  0.00    +0.267 C 
ATOM     11  O   UNL     1       0.897   6.679   0.186  0.00  0.00    -0.271 OA
ATOM     12  H   UNL     1       3.970   6.420   0.067  0.00  0.00    +0.173 HD
BRANCH  10  13
ATOM     13  C   UNL     1       2.053   4.623   0.095  0.00  0.00    +0.326 C 
BRANCH  13  14
ATOM     14  O   UNL     1       0.733   4.078   0.131  0.00  0.00    -0.483 OA
BRANCH  14  15
ATOM     15  C   UNL     1       0.624   2.723   0.102  0.00  0.00    +0.121 A 
ATOM     16  C   UNL     1      -0.628   2.127   0.134  0.00  0.00    +0.047 A 
ATOM     17  C   UNL     1      -0.737   0.750   0.106  0.00  0.00    +0.019 A 
ATOM     18  C   UNL     1       0.401  -0.034   0.046  0.00  0.00    +0.018 A 
ATOM     19  C   UNL     1       1.651   0.559   0.014  0.00  0.00    +0.019 A 
ATOM     20  C   UNL     1       1.764   1.936   0.042  0.00  0.00    +0.047 A 
ATOM     21 BR   UNL     1       0.249  -1.918   0.007  0.00  0.00    -0.050 Br
ENDBRANCH  14  15
ENDBRANCH  13  14
ENDBRANCH  10  13
ENDBRANCH   7   9
ENDBRANCH   5   7
ENDBRANCH   3   5
BRANCH   1  22
ATOM     22  C   UNL     1       7.837   8.429  -0.028  0.00  0.00    +0.135 C 
BRANCH  22  26
ATOM     23  C   UNL     1      10.936  11.369  -0.072  0.00  0.00    +0.000 A 
ATOM     24  C   UNL     1      10.883  10.406  -1.062  0.00  0.00    +0.000 A 
ATOM     25  C   UNL     1       9.880   9.454  -1.047  0.00  0.00    +0.005 A 
ATOM     26  C   UNL     1       8.930   9.466  -0.043  0.00  0.00    -0.031 A 
ATOM     27  C   UNL     1       8.980  10.433   0.944  0.00  0.00    +0.005 A 
ATOM     28  C   UNL     1       9.986  11.381   0.932  0.00  0.00    +0.000 A 
ENDBRANCH  22  26
BRANCH  22  29
ATOM     29  C   UNL     1       8.006   7.539   1.177  0.00  0.00    -0.031 A 
ATOM     30  C   UNL     1       7.799   8.047   2.446  0.00  0.00    +0.005 A 
ATOM     31  C   UNL     1       7.949   7.229   3.550  0.00  0.00    +0.000 A 
ATOM     32  C   UNL     1       8.316   5.906   3.386  0.00  0.00    +0.000 A 
ATOM     33  C   UNL     1       8.529   5.400   2.117  0.00  0.00    +0.000 A 
ATOM     34  C   UNL     1       8.373   6.217   1.013  0.00  0.00    +0.005 A 
ENDBRANCH  22  29
ENDBRANCH   1  22
TORSDOF 9
