REMARK  Name = ZINC55180464
REMARK  2 active torsions:
REMARK  status: ('A' for Active; 'I' for Inactive)
REMARK    1  A    between atoms: N_9  and  C_14
REMARK    2  A    between atoms: C_16  and  N_21
REMARK                            x       y       z     vdW  Elec       q    Type
REMARK                         _______ _______ _______ _____ _____    ______ ____
ROOT
ATOM      1  C   UNL     1       2.623  -4.120  -0.044  0.00  0.00    +0.089 A 
ATOM      2  C   UNL     1       2.666  -4.806  -1.249  0.00  0.00    +0.054 A 
ATOM      3  C   UNL     1       2.765  -6.190  -1.253  0.00  0.00    +0.053 A 
ATOM      4  C   UNL     1       2.821  -6.885  -0.052  0.00  0.00    +0.027 A 
ATOM      5  C   UNL     1       2.777  -6.200   1.147  0.00  0.00    +0.042 A 
ATOM      6  C   UNL     1       2.684  -4.820   1.155  0.00  0.00    +0.147 A 
ATOM      7  F   UNL     1       2.648  -4.153   2.329  0.00  0.00    -0.203 F 
ENDROOT
BRANCH   1  16
ATOM      8  C   UNL     1      -0.017   1.375   0.010  0.00  0.00    +0.001 A 
ATOM      9  C   UNL     1       1.169   2.093   0.002  0.00  0.00    +0.002 A 
ATOM     10  C   UNL     1       2.387   1.442  -0.013  0.00  0.00    +0.026 A 
ATOM     11  C   UNL     1       2.425   0.056  -0.021  0.00  0.00    +0.054 A 
ATOM     12  C   UNL     1       1.223  -0.673  -0.013  0.00  0.00    +0.063 A 
ATOM     13  C   UNL     1       0.002  -0.004   0.002  0.00  0.00    +0.015 A 
ATOM     14  C   UNL     1       1.301  -2.145  -0.021  0.00  0.00    +0.267 A 
ATOM     15  O   UNL     1       0.291  -2.823  -0.015  0.00  0.00    -0.267 OA
ATOM     16  N   UNL     1       2.522  -2.722  -0.036  0.00  0.00    -0.253 N 
ATOM     17  C   UNL     1       3.642  -1.981  -0.043  0.00  0.00    +0.166 A 
ATOM     18  S   UNL     1       5.154  -2.783  -0.062  0.00  0.00    -0.012 S 
ATOM     19  N   UNL     1       3.627  -0.637  -0.036  0.00  0.00    -0.334 N 
ATOM     20  H   UNL     1       4.464  -0.147  -0.042  0.00  0.00    +0.168 HD
ENDBRANCH   1  16
BRANCH   3  21
ATOM     21  N   UNL     1       2.809  -6.885  -2.466  0.00  0.00    -0.207 N 
ATOM     22  C   UNL     1       2.278  -6.436  -3.766  0.00  0.00    +0.133 C 
ATOM     23  C   UNL     1       3.090  -7.041  -4.927  0.00  0.00    +0.045 C 
ATOM     24  C   UNL     1       3.260  -8.546  -4.561  0.00  0.00    +0.190 C 
ATOM     25  S   UNL     1       3.483  -8.394  -2.741  0.00  0.00    +0.046 S 
ATOM     26  O   UNL     1       4.859  -8.262  -2.411  0.00  0.00    -0.155 OA
ATOM     27  O   UNL     1       2.645  -9.315  -2.055  0.00  0.00    -0.155 OA
ENDBRANCH   3  21
TORSDOF 2
