REMARK  Name = ZINC09089407
REMARK  10 active torsions:
REMARK  status: ('A' for Active; 'I' for Inactive)
REMARK    1  A    between atoms: C_1  and  C_2
REMARK    2  A    between atoms: C_2  and  O_3
REMARK    3  A    between atoms: O_3  and  C_4
REMARK    4  A    between atoms: C_6  and  C_22
REMARK    5  A    between atoms: C_9  and  O_10
REMARK    6  A    between atoms: O_10  and  C_11
REMARK    7  A    between atoms: C_11  and  C_12
REMARK    8  A    between atoms: C_25  and  C_36
REMARK    9  A    between atoms: C_31  and  N_35
REMARK   10  A    between atoms: C_32  and  C_33
REMARK                            x       y       z     vdW  Elec       q    Type
REMARK                         _______ _______ _______ _____ _____    ______ ____
ROOT
ATOM      1  C   UNL     1       0.777  -1.811  -1.336  0.00  0.00    +0.162 A 
ATOM      2  C   UNL     1       0.243  -2.669  -0.388  0.00  0.00    +0.054 A 
ATOM      3  C   UNL     1       0.352  -4.037  -0.555  0.00  0.00    -0.031 A 
ATOM      4  C   UNL     1       0.992  -4.552  -1.667  0.00  0.00    +0.008 A 
ATOM      5  C   UNL     1       1.526  -3.702  -2.616  0.00  0.00    +0.050 A 
ATOM      6  C   UNL     1       1.416  -2.330  -2.458  0.00  0.00    +0.162 A 
ENDROOT
BRANCH   3   7
ATOM      7  C   UNL     1      -0.229  -4.969   0.477  0.00  0.00    +0.101 C 
ATOM      8  C   UNL     1      -1.260  -5.861  -0.165  0.00  0.00    +0.049 A 
ATOM      9  C   UNL     1      -2.493  -5.567  -0.604  0.00  0.00    +0.041 A 
ATOM     10  N   UNL     1      -3.032  -6.703  -1.105  0.00  0.00    -0.278 N 
ATOM     11  H   UNL     1      -3.916  -6.790  -1.493  0.00  0.00    +0.189 HD
ATOM     12  N   UNL     1      -2.088  -7.732  -0.964  0.00  0.00    -0.135 NA
ATOM     13  C   UNL     1      -1.026  -7.234  -0.401  0.00  0.00    +0.245 A 
ATOM     14  O   UNL     1       0.145  -7.835  -0.058  0.00  0.00    -0.421 OA
ATOM     15  C   UNL     1       0.977  -7.155   0.756  0.00  0.00    +0.201 C 
ATOM     16  C   UNL     1       0.861  -5.842   1.046  0.00  0.00    +0.098 C 
ATOM     17  C   UNL     1      -3.157  -4.215  -0.550  0.00  0.00    +0.065 C 
BRANCH  15  18
ATOM     18  N   UNL     1       2.014  -7.847   1.330  0.00  0.00    -0.328 N 
ATOM     19  H   UNL     1       2.129  -8.792   1.145  0.00  0.00    +0.145 HD
ATOM     20  H   UNL     1       2.633  -7.390   1.922  0.00  0.00    +0.145 HD
ENDBRANCH  15  18
BRANCH  16  21
ATOM     21  C   UNL     1       1.817  -5.250   1.933  0.00  0.00    +0.101 C 
ATOM     22  N   UNL     1       2.575  -4.781   2.636  0.00  0.00    -0.191 NA
ENDBRANCH  16  21
ENDBRANCH   3   7
BRANCH   1  23
ATOM     23  O   UNL     1       0.671  -0.465  -1.174  0.00  0.00    -0.489 OA
BRANCH  23  25
ATOM     24  C   UNL     1      -0.019   1.526   0.010  0.00  0.00    +0.048 C 
ATOM     25  C   UNL     1       0.002  -0.004   0.002  0.00  0.00    +0.226 C 
ENDBRANCH  23  25
ENDBRANCH   1  23
BRANCH   6  26
ATOM     26  O   UNL     1       1.936  -1.492  -3.394  0.00  0.00    -0.484 OA
BRANCH  26  27
ATOM     27  C   UNL     1       2.578  -2.095  -4.520  0.00  0.00    +0.265 C 
BRANCH  27  28
ATOM     28  C   UNL     1       3.088  -1.019  -5.443  0.00  0.00    -0.003 A 
ATOM     29  C   UNL     1       2.905   0.294  -5.132  0.00  0.00    +0.007 A 
ATOM     30  C   UNL     1       3.370   1.302  -5.973  0.00  0.00    +0.001 A 
ATOM     31  C   UNL     1       4.020   1.005  -7.131  0.00  0.00    +0.008 A 
ATOM     32  C   UNL     1       4.228  -0.339  -7.486  0.00  0.00    -0.018 A 
ATOM     33  C   UNL     1       3.761  -1.365  -6.627  0.00  0.00    -0.011 A 
ATOM     34  C   UNL     1       3.974  -2.708  -6.980  0.00  0.00    +0.009 A 
ATOM     35  C   UNL     1       4.629  -3.006  -8.135  0.00  0.00    +0.001 A 
ATOM     36  C   UNL     1       5.095  -1.997  -8.976  0.00  0.00    +0.001 A 
ATOM     37  C   UNL     1       4.895  -0.685  -8.674  0.00  0.00    +0.008 A 
ENDBRANCH  27  28
ENDBRANCH  26  27
ENDBRANCH   6  26
TORSDOF 8
