REMARK  Name = ZINC16227723
REMARK  6 active torsions:
REMARK  status: ('A' for Active; 'I' for Inactive)
REMARK    1  A    between atoms: C_1  and  O_2
REMARK    2  A    between atoms: O_2  and  C_3
REMARK    3  A    between atoms: C_8  and  C_9
REMARK    4  A    between atoms: C_12  and  C_14
REMARK    5  A    between atoms: N_15  and  N_16
REMARK    6  A    between atoms: N_29  and  C_30
REMARK                            x       y       z     vdW  Elec       q    Type
REMARK                         _______ _______ _______ _____ _____    ______ ____
ROOT
ATOM      1  N   UNL     1      -1.137  -0.757  -0.689  0.00  0.00    -0.205 N 
ATOM      2  C   UNL     1       0.028  -0.039  -0.512  0.00  0.00    +0.241 A 
ATOM      3  N   UNL     1       1.186  -0.676  -0.361  0.00  0.00    -0.179 NA
ATOM      4  C   UNL     1       2.308   0.015  -0.192  0.00  0.00    +0.225 A 
ATOM      5  N   UNL     1       2.274   1.344  -0.173  0.00  0.00    -0.181 NA
ATOM      6  C   UNL     1       1.117   1.982  -0.324  0.00  0.00    +0.224 A 
ATOM      7  N   UNL     1      -0.006   1.290  -0.493  0.00  0.00    -0.180 NA
ATOM      8  N   UNL     1       1.081   3.361  -0.305  0.00  0.00    -0.299 N 
ATOM      9  C   UNL     1       1.674   3.886   0.933  0.00  0.00    +0.108 C 
ATOM     10  C   UNL     1       1.750   5.412   0.856  0.00  0.00    +0.019 C 
ATOM     11  C   UNL     1       0.341   5.980   0.662  0.00  0.00    +0.003 C 
ATOM     12  C   UNL     1      -0.272   5.381  -0.607  0.00  0.00    +0.019 C 
ATOM     13  C   UNL     1      -0.289   3.855  -0.488  0.00  0.00    +0.108 C 
ATOM     14  N   UNL     1       3.510  -0.647  -0.035  0.00  0.00    -0.283 N 
ATOM     15  H   UNL     1      -1.982  -0.292  -0.799  0.00  0.00    +0.177 HD
ATOM     16  H   UNL     1       4.339  -0.144   0.008  0.00  0.00    +0.155 HD
ENDROOT
BRANCH  14  17
ATOM     17  C   UNL     1       3.533  -2.043   0.064  0.00  0.00    +0.034 A 
ATOM     18  C   UNL     1       2.485  -2.713   0.681  0.00  0.00    +0.026 A 
ATOM     19  C   UNL     1       2.507  -4.091   0.773  0.00  0.00    +0.040 A 
ATOM     20  C   UNL     1       3.578  -4.803   0.259  0.00  0.00    +0.124 A 
ATOM     21  C   UNL     1       4.626  -4.136  -0.352  0.00  0.00    +0.040 A 
ATOM     22  C   UNL     1       4.606  -2.759  -0.451  0.00  0.00    +0.026 A 
ATOM     23  F   UNL     1       3.600  -6.151   0.354  0.00  0.00    -0.205 F 
ENDBRANCH  14  17
BRANCH   1  25
ATOM     24  C   UNL     1      -2.200  -2.835  -0.875  0.00  0.00    +0.176 C 
ATOM     25  N   UNL     1      -1.101  -2.157  -0.708  0.00  0.00    -0.184 NA
BRANCH  24  29
ATOM     26  C   UNL     1      -1.407  -6.362  -0.824  0.00  0.00    +0.139 A 
ATOM     27  C   UNL     1      -2.755  -6.439  -1.015  0.00  0.00    +0.050 A 
ATOM     28  C   UNL     1      -3.240  -5.125  -1.056  0.00  0.00    +0.051 A 
ATOM     29  C   UNL     1      -2.163  -4.298  -0.895  0.00  0.00    +0.148 A 
ATOM     30  O   UNL     1      -1.060  -5.062  -0.753  0.00  0.00    -0.454 OA
BRANCH  26  36
ATOM     31  C   UNL     1       0.681  -7.552  -1.493  0.00  0.00    +0.131 A 
ATOM     32  C   UNL     1       1.544  -8.629  -1.379  0.00  0.00    +0.048 A 
ATOM     33  C   UNL     1       1.252  -9.662  -0.508  0.00  0.00    +0.023 A 
ATOM     34  C   UNL     1       0.098  -9.627   0.259  0.00  0.00    +0.042 A 
ATOM     35  C   UNL     1      -0.769  -8.558   0.161  0.00  0.00    +0.035 A 
ATOM     36  C   UNL     1      -0.484  -7.508  -0.715  0.00  0.00    +0.060 A 
ATOM     37 CL   UNL     1      -0.257 -10.932   1.347  0.00  0.00    -0.084 Cl
BRANCH  31  39
ATOM     38  C   UNL     1       2.170  -6.651  -3.112  0.00  0.00    +0.277 C 
ATOM     39  O   UNL     1       0.965  -6.538  -2.352  0.00  0.00    -0.494 OA
ENDBRANCH  31  39
ENDBRANCH  26  36
ENDBRANCH  24  29
ENDBRANCH   1  25
TORSDOF 5
