REMARK  Name = ZINC21236958
REMARK  10 active torsions:
REMARK  status: ('A' for Active; 'I' for Inactive)
REMARK    1  A    between atoms: C_1  and  C_2
REMARK    2  A    between atoms: C_2  and  O_3
REMARK    3  A    between atoms: O_3  and  C_4
REMARK    4  A    between atoms: C_8  and  C_10
REMARK    5  A    between atoms: C_15  and  C_20
REMARK    6  A    between atoms: C_23  and  O_28
REMARK    7  A    between atoms: C_24  and  O_26
REMARK    8  A    between atoms: O_26  and  C_27
REMARK    9  A    between atoms: O_28  and  C_29
REMARK   10  A    between atoms: C_29  and  C_30
REMARK                            x       y       z     vdW  Elec       q    Type
REMARK                         _______ _______ _______ _____ _____    ______ ____
ROOT
ATOM      1  C   UNL     1      -1.280   1.661   0.017  0.00  0.00    +0.136 C 
ATOM      2  C   UNL     1      -1.456   2.498  -1.221  0.00  0.00    +0.036 C 
ATOM      3  C   UNL     1      -0.510   2.749  -2.143  0.00  0.00    +0.017 C 
ATOM      4  C   UNL     1      -0.825   3.605  -3.358  0.00  0.00    +0.059 C 
ATOM      5  C   UNL     1      -1.861   4.666  -2.992  0.00  0.00    +0.032 C 
ATOM      6  C   UNL     1      -3.123   3.941  -2.510  0.00  0.00    +0.088 C 
ATOM      7  C   UNL     1      -2.752   3.047  -1.364  0.00  0.00    +0.163 C 
ATOM      8  O   UNL     1      -3.595   2.785  -0.528  0.00  0.00    -0.292 OA
ATOM      9  N   UNL     1       0.760   2.273  -2.095  0.00  0.00    -0.316 N 
ATOM     10  C   UNL     1       1.577   2.296  -0.970  0.00  0.00    +0.052 A 
ATOM     11  C   UNL     1       2.770   2.996  -0.937  0.00  0.00    +0.025 A 
ATOM     12  C   UNL     1       3.593   2.882   0.171  0.00  0.00    +0.002 A 
ATOM     13  C   UNL     1       3.224   2.079   1.234  0.00  0.00    +0.002 A 
ATOM     14  C   UNL     1       2.020   1.396   1.212  0.00  0.00    +0.025 A 
ATOM     15  C   UNL     1       1.187   1.521   0.112  0.00  0.00    +0.049 A 
ATOM     16  N   UNL     1      -0.056   0.891   0.063  0.00  0.00    -0.331 N 
ATOM     17  H   UNL     1       1.215   1.828  -2.993  0.00  0.00    +0.152 HD
ATOM     18  H   UNL     1      -0.097  -0.208   0.059  0.00  0.00    +0.147 HD
ENDROOT
BRANCH   1  23
ATOM     19  C   UNL     1      -0.342   4.348   2.503  0.00  0.00    +0.121 A 
ATOM     20  C   UNL     1      -1.383   4.253   3.416  0.00  0.00    +0.045 A 
ATOM     21  C   UNL     1      -2.385   3.322   3.224  0.00  0.00    +0.004 A 
ATOM     22  C   UNL     1      -2.353   2.487   2.122  0.00  0.00    +0.006 A 
ATOM     23  C   UNL     1      -1.314   2.576   1.215  0.00  0.00    -0.019 A 
ATOM     24  C   UNL     1      -0.310   3.506   1.401  0.00  0.00    +0.051 A 
BRANCH  19  25
ATOM     25  O   UNL     1       0.645   5.264   2.689  0.00  0.00    -0.492 OA
BRANCH  25  27
ATOM     26  C   UNL     1       1.738   7.057   3.885  0.00  0.00    +0.048 C 
ATOM     27  C   UNL     1       0.547   6.097   3.846  0.00  0.00    +0.225 C 
ENDBRANCH  25  27
ENDBRANCH  19  25
ENDBRANCH   1  23
BRANCH   5  28
ATOM     28  C   UNL     1      -2.184   5.504  -4.203  0.00  0.00    -0.040 A 
ATOM     29  C   UNL     1      -2.708   4.907  -5.334  0.00  0.00    +0.008 A 
ATOM     30  C   UNL     1      -3.006   5.671  -6.447  0.00  0.00    +0.050 A 
ATOM     31  C   UNL     1      -2.779   7.038  -6.430  0.00  0.00    +0.162 A 
ATOM     32  C   UNL     1      -2.251   7.638  -5.291  0.00  0.00    +0.162 A 
ATOM     33  C   UNL     1      -1.960   6.868  -4.177  0.00  0.00    +0.053 A 
BRANCH  32  34
ATOM     34  O   UNL     1      -2.026   8.980  -5.270  0.00  0.00    -0.491 OA
ATOM     35  C   UNL     1      -1.483   9.527  -4.067  0.00  0.00    +0.277 C 
ENDBRANCH  32  34
BRANCH  31  36
ATOM     36  O   UNL     1      -3.071   7.791  -7.524  0.00  0.00    -0.489 OA
BRANCH  36  37
ATOM     37  C   UNL     1      -3.610   7.107  -8.657  0.00  0.00    +0.226 C 
ATOM     38  C   UNL     1      -3.873   8.111  -9.781  0.00  0.00    +0.048 C 
ENDBRANCH  36  37
ENDBRANCH  31  36
ENDBRANCH   5  28
TORSDOF 7
