REMARK  Name = ZINC66363778
REMARK  3 active torsions:
REMARK  status: ('A' for Active; 'I' for Inactive)
REMARK    1  A    between atoms: C_1  and  O_2
REMARK    2  A    between atoms: O_2  and  C_3
REMARK    3  A    between atoms: C_8  and  N_11
REMARK                            x       y       z     vdW  Elec       q    Type
REMARK                         _______ _______ _______ _____ _____    ______ ____
ROOT
ATOM      1  N   UNL     1      -1.391  -5.554  -2.181  0.00  0.00    -0.296 N 
ATOM      2  C   UNL     1      -2.105  -6.691  -2.053  0.00  0.00    +0.302 C 
ATOM      3  O   UNL     1      -2.713  -6.914  -1.025  0.00  0.00    -0.253 OA
ATOM      4  N   UNL     1      -2.145  -7.579  -3.066  0.00  0.00    -0.285 N 
ATOM      5  C   UNL     1      -2.937  -8.809  -2.903  0.00  0.00    +0.110 C 
ATOM      6  C   UNL     1      -3.800  -9.231  -4.119  0.00  0.00    +0.030 C 
ATOM      7  C   UNL     1      -4.542  -8.095  -4.750  0.00  0.00    +0.071 C 
ATOM      8  S   UNL     1      -3.503  -7.301  -6.032  0.00  0.00    -0.159 S 
ATOM      9  C   UNL     1      -2.294  -6.395  -5.154  0.00  0.00    +0.088 C 
ATOM     10  C   UNL     1      -1.421  -7.293  -4.264  0.00  0.00    +0.120 C 
ATOM     11  H   UNL     1      -0.906  -5.376  -3.002  0.00  0.00    +0.151 HD
ENDROOT
BRANCH   1  17
ATOM     12  C   UNL     1      -1.189  -0.632   0.010  0.00  0.00    +0.403 C 
ATOM     13  O   UNL     1      -2.217   0.016   0.023  0.00  0.00    -0.226 OA
ATOM     14  N   UNL     1      -1.241  -1.978   0.003  0.00  0.00    -0.267 N 
ATOM     15  C   UNL     1      -0.007  -2.775  -0.007  0.00  0.00    +0.113 C 
ATOM     16  C   UNL     1      -0.065  -3.760  -1.179  0.00  0.00    +0.041 C 
ATOM     17  C   UNL     1      -1.348  -4.589  -1.080  0.00  0.00    +0.077 C 
ATOM     18  C   UNL     1      -2.564  -3.663  -1.166  0.00  0.00    +0.041 C 
ATOM     19  C   UNL     1      -2.534  -2.677   0.012  0.00  0.00    +0.113 C 
BRANCH  12  21
ATOM     20  C   UNL     1      -0.017   1.425   0.010  0.00  0.00    +0.282 C 
ATOM     21  O   UNL     1       0.002  -0.004   0.002  0.00  0.00    -0.454 OA
ENDBRANCH  12  21
ENDBRANCH   1  17
TORSDOF 2
