REMARK  Name = ZINC21220972
REMARK  10 active torsions:
REMARK  status: ('A' for Active; 'I' for Inactive)
REMARK    1  A    between atoms: C_1  and  O_2
REMARK    2  A    between atoms: O_2  and  C_3
REMARK    3  A    between atoms: C_6  and  O_39
REMARK    4  A    between atoms: C_7  and  C_9
REMARK    5  A    between atoms: C_14  and  C_24
REMARK    6  A    between atoms: C_26  and  N_33
REMARK    7  A    between atoms: C_27  and  O_32
REMARK    8  A    between atoms: C_28  and  O_30
REMARK    9  A    between atoms: O_30  and  C_31
REMARK   10  A    between atoms: O_39  and  C_40
REMARK                            x       y       z     vdW  Elec       q    Type
REMARK                         _______ _______ _______ _____ _____    ______ ____
ROOT
ATOM      1  C   UNL     1       1.451   5.497  -3.835  0.00  0.00    +0.036 C 
ATOM      2  C   UNL     1       0.035   5.068  -3.455  0.00  0.00    +0.060 C 
ATOM      3  C   UNL     1      -0.007   4.661  -1.991  0.00  0.00    +0.017 C 
ATOM      4  C   UNL     1       1.055   4.081  -1.417  0.00  0.00    +0.036 C 
ATOM      5  C   UNL     1       1.143   3.595   0.010  0.00  0.00    +0.136 C 
ATOM      6  N   UNL     1       0.052   4.031   0.856  0.00  0.00    -0.331 N 
ATOM      7  C   UNL     1      -1.257   3.616   0.615  0.00  0.00    +0.049 A 
ATOM      8  C   UNL     1      -1.939   2.813   1.514  0.00  0.00    +0.025 A 
ATOM      9  C   UNL     1      -3.221   2.389   1.211  0.00  0.00    +0.002 A 
ATOM     10  C   UNL     1      -3.817   2.760   0.019  0.00  0.00    +0.002 A 
ATOM     11  C   UNL     1      -3.144   3.576  -0.874  0.00  0.00    +0.025 A 
ATOM     12  C   UNL     1      -1.870   4.017  -0.563  0.00  0.00    +0.052 A 
ATOM     13  N   UNL     1      -1.182   4.922  -1.363  0.00  0.00    -0.316 N 
ATOM     14  C   UNL     1       2.247   3.878  -2.159  0.00  0.00    +0.163 C 
ATOM     15  O   UNL     1       3.191   3.339  -1.617  0.00  0.00    -0.292 OA
ATOM     16  C   UNL     1       2.382   4.304  -3.590  0.00  0.00    +0.088 C 
ATOM     17  H   UNL     1       0.249   4.701   1.706  0.00  0.00    +0.147 HD
ATOM     18  H   UNL     1      -1.657   5.908  -1.472  0.00  0.00    +0.152 HD
ENDROOT
BRANCH   1  23
ATOM     19  C   UNL     1       1.195   5.327  -7.601  0.00  0.00    +0.121 A 
ATOM     20  C   UNL     1       1.572   6.612  -7.963  0.00  0.00    +0.049 A 
ATOM     21  C   UNL     1       1.908   7.533  -6.991  0.00  0.00    +0.049 A 
ATOM     22  C   UNL     1       1.868   7.173  -5.652  0.00  0.00    +0.124 A 
ATOM     23  C   UNL     1       1.492   5.889  -5.290  0.00  0.00    +0.002 A 
ATOM     24  C   UNL     1       1.161   4.966  -6.263  0.00  0.00    +0.053 A 
BRANCH  19  26
ATOM     25  C   UNL     1       0.927   4.859  -9.918  0.00  0.00    +0.277 C 
ATOM     26  O   UNL     1       0.865   4.420  -8.559  0.00  0.00    -0.495 OA
ENDBRANCH  19  26
BRANCH  22  27
ATOM     27  O   UNL     1       2.199   8.080  -4.694  0.00  0.00    -0.495 OA
ATOM     28  C   UNL     1       2.577   9.385  -5.138  0.00  0.00    +0.277 C 
ENDBRANCH  22  27
ENDBRANCH   1  23
BRANCH   5  29
ATOM     29  C   UNL     1       1.169   2.089   0.002  0.00  0.00    -0.017 A 
ATOM     30  C   UNL     1       0.066   1.382  -0.440  0.00  0.00    +0.042 A 
ATOM     31  C   UNL     1       0.086  -0.000  -0.450  0.00  0.00    +0.171 A 
ATOM     32  C   UNL     1       1.212  -0.680  -0.015  0.00  0.00    +0.189 A 
ATOM     33  C   UNL     1       2.322   0.031   0.430  0.00  0.00    +0.164 A 
ATOM     34  C   UNL     1       2.296   1.416   0.437  0.00  0.00    +0.055 A 
BRANCH  31  35
ATOM     35  N   UNL     1      -1.097  -0.753  -0.924  0.00  0.00    +0.060 N 
ATOM     36  O   UNL     1      -2.087  -0.155  -1.306  0.00  0.00    -0.126 OA
ATOM     37  O   UNL     1      -1.080  -1.971  -0.932  0.00  0.00    -0.126 OA
ENDBRANCH  31  35
BRANCH  33  38
ATOM     38  O   UNL     1       3.430  -0.632   0.857  0.00  0.00    -0.491 OA
ATOM     39  C   UNL     1       4.531   0.163   1.300  0.00  0.00    +0.277 C 
ENDBRANCH  33  38
BRANCH  32  40
ATOM     40  O   UNL     1       1.232  -2.040  -0.024  0.00  0.00    -0.502 OA
ATOM     41  H   UNL     1       2.127  -2.579   0.322  0.00  0.00    +0.292 HD
ENDBRANCH  32  40
ENDBRANCH   5  29
TORSDOF 7
