REMARK  Name = ZINC04523657
REMARK  6 active torsions:
REMARK  status: ('A' for Active; 'I' for Inactive)
REMARK    1  A    between atoms: C_1  and  C_2
REMARK    2  A    between atoms: C_2  and  C_3
REMARK    3  A    between atoms: C_2  and  C_4
REMARK    4  A    between atoms: C_2  and  C_5
REMARK    5  A    between atoms: C_17  and  C_20
REMARK    6  A    between atoms: C_23  and  C_25
REMARK                            x       y       z     vdW  Elec       q    Type
REMARK                         _______ _______ _______ _____ _____    ______ ____
ROOT
ATOM      1  C   UNL     1      -0.735   2.019   1.269  0.00  0.00    -0.000 C 
ATOM      2  C   UNL     1       0.004   1.513   2.512  0.00  0.00    +0.009 C 
ATOM      3  C   UNL     1      -0.552   2.198   3.761  0.00  0.00    +0.037 C 
ATOM      4  C   UNL     1      -2.067   2.030   3.781  0.00  0.00    -0.023 A 
ATOM      5  C   UNL     1      -2.743   1.707   2.655  0.00  0.00    -0.004 A 
ATOM      6  S   UNL     1      -4.444   1.621   3.151  0.00  0.00    -0.078 S 
ATOM      7  C   UNL     1      -4.259   2.003   4.810  0.00  0.00    +0.080 A 
ATOM      8  C   UNL     1      -2.880   2.201   4.974  0.00  0.00    +0.068 A 
ATOM      9  C   UNL     1      -2.399   2.565   6.327  0.00  0.00    +0.248 C 
ATOM     10  O   UNL     1      -1.251   2.922   6.518  0.00  0.00    -0.270 OA
ATOM     11  N   UNL     1      -3.287   2.485   7.340  0.00  0.00    -0.287 N 
ATOM     12  C   UNL     1      -4.622   1.913   7.201  0.00  0.00    +0.227 C 
ATOM     13  N   UNL     1      -5.154   2.116   5.841  0.00  0.00    -0.314 N 
ATOM     14  C   UNL     1      -2.170   1.474   1.292  0.00  0.00    +0.046 C 
ATOM     15  H   UNL     1      -3.023   2.826   8.209  0.00  0.00    +0.151 HD
ATOM     16  H   UNL     1      -6.090   2.320   5.685  0.00  0.00    +0.149 HD
ENDROOT
BRANCH  12  17
ATOM     17  C   UNL     1      -4.557   0.435   7.489  0.00  0.00    +0.144 A 
ATOM     18  C   UNL     1      -3.667  -0.169   8.301  0.00  0.00    +0.049 A 
ATOM     19  C   UNL     1      -3.961  -1.547   8.284  0.00  0.00    +0.050 A 
ATOM     20  C   UNL     1      -5.026  -1.710   7.455  0.00  0.00    +0.138 A 
ATOM     21  O   UNL     1      -5.380  -0.498   6.985  0.00  0.00    -0.456 OA
BRANCH  20  22
ATOM     22  C   UNL     1      -5.685  -2.992   7.132  0.00  0.00    +0.052 A 
ATOM     23  C   UNL     1      -7.072  -3.114   7.232  0.00  0.00    +0.014 A 
ATOM     24  C   UNL     1      -7.681  -4.313   6.928  0.00  0.00    +0.001 A 
ATOM     25  C   UNL     1      -6.920  -5.397   6.523  0.00  0.00    +0.003 A 
ATOM     26  C   UNL     1      -5.546  -5.286   6.421  0.00  0.00    +0.039 A 
ATOM     27  C   UNL     1      -4.923  -4.088   6.718  0.00  0.00    +0.134 A 
ATOM     28  F   UNL     1      -3.580  -3.979   6.612  0.00  0.00    -0.205 F 
ENDBRANCH  20  22
ENDBRANCH  12  17
BRANCH   1  30
ATOM     29  C   UNL     1       0.002  -0.004   0.002  0.00  0.00    +0.011 C 
ATOM     30  C   UNL     1      -0.019   1.526   0.010  0.00  0.00    -0.035 C 
ATOM     31  C   UNL     1       1.417   2.055  -0.000  0.00  0.00    +0.011 C 
ATOM     32  C   UNL     1      -0.759   2.033  -1.229  0.00  0.00    +0.011 C 
ENDBRANCH   1  30
TORSDOF 3
