REMARK  Name = ZINC40826177
REMARK  8 active torsions:
REMARK  status: ('A' for Active; 'I' for Inactive)
REMARK    1  A    between atoms: C_1  and  C_2
REMARK    2  A    between atoms: C_6  and  C_7
REMARK    3  A    between atoms: N_9  and  N_10
REMARK    4  A    between atoms: C_11  and  C_13
REMARK    5  A    between atoms: C_17  and  C_18
REMARK    6  A    between atoms: N_23  and  N_24
REMARK    7  A    between atoms: N_24  and  S_25
REMARK    8  A    between atoms: S_25  and  C_28
REMARK                            x       y       z     vdW  Elec       q    Type
REMARK                         _______ _______ _______ _____ _____    ______ ____
ROOT
ATOM      1  C   UNL     1      -0.018   1.503   0.010  0.00  0.00    +0.048 C 
ATOM      2  C   UNL     1       0.002  -0.004   0.002  0.00  0.00    +0.009 A 
ATOM      3  C   UNL     1       0.008  -0.838  -1.122  0.00  0.00    +0.042 A 
ATOM      4  C   UNL     1       0.026  -2.136  -0.673  0.00  0.00    +0.115 A 
ATOM      5  O   UNL     1       0.034  -2.112   0.658  0.00  0.00    -0.454 OA
ATOM      6  C   UNL     1       0.024  -0.830   1.091  0.00  0.00    +0.194 A 
ATOM      7  C   UNL     1       0.033  -3.325  -1.601  0.00  0.00    +0.075 C 
ATOM      8  C   UNL     1      -0.492  -2.901  -2.975  0.00  0.00    +0.014 C 
ATOM      9  C   UNL     1       0.279  -1.684  -3.496  0.00  0.00    +0.058 C 
ATOM     10  C   UNL     1       0.001  -0.511  -2.567  0.00  0.00    +0.071 C 
ATOM     11  N   UNL     1      -0.227   0.687  -3.008  0.00  0.00    -0.170 NA
ENDROOT
BRANCH   6  12
ATOM     12  C   UNL     1       0.032  -0.400   2.494  0.00  0.00    +0.296 C 
ATOM     13  O   UNL     1       0.018   0.786   2.766  0.00  0.00    -0.265 OA
ATOM     14  N   UNL     1       0.054  -1.318   3.480  0.00  0.00    -0.228 N 
ATOM     15  H   UNL     1       0.065  -2.263   3.263  0.00  0.00    +0.173 HD
BRANCH  14  16
ATOM     16  N   UNL     1       0.061  -0.906   4.820  0.00  0.00    -0.230 N 
ATOM     17  C   UNL     1       0.084  -1.824   5.806  0.00  0.00    +0.263 C 
ATOM     18  O   UNL     1       0.097  -3.009   5.534  0.00  0.00    -0.269 OA
ATOM     19  H   UNL     1       0.050   0.039   5.037  0.00  0.00    +0.173 HD
BRANCH  17  20
ATOM     20  C   UNL     1       0.091  -1.391   7.215  0.00  0.00    +0.079 A 
ATOM     21  C   UNL     1       0.070  -0.011   7.721  0.00  0.00    +0.054 A 
ATOM     22  C   UNL     1       0.086  -0.109   9.059  0.00  0.00    +0.196 A 
ATOM     23  O   UNL     1       0.115  -1.405   9.405  0.00  0.00    -0.467 OA
ATOM     24  C   UNL     1       0.113  -2.188   8.322  0.00  0.00    +0.114 A 
ATOM     25  C   UNL     1       0.134  -3.695   8.324  0.00  0.00    +0.087 C 
ENDBRANCH  17  20
ENDBRANCH  14  16
ENDBRANCH   6  12
BRANCH  11  26
ATOM     26  N   UNL     1      -0.221   0.939  -4.386  0.00  0.00    -0.136 N 
ATOM     27  H   UNL     1      -0.048   0.217  -5.010  0.00  0.00    +0.197 HD
BRANCH  26  28
ATOM     28  S   UNL     1      -0.512   2.469  -4.949  0.00  0.00    +0.086 S 
ATOM     29  O   UNL     1      -0.298   2.432  -6.353  0.00  0.00    -0.149 OA
ATOM     30  O   UNL     1      -1.744   2.885  -4.377  0.00  0.00    -0.149 OA
BRANCH  28  31
ATOM     31  C   UNL     1       0.735   3.517  -4.277  0.00  0.00    +0.110 A 
ATOM     32  C   UNL     1       0.531   4.141  -3.060  0.00  0.00    +0.031 A 
ATOM     33  C   UNL     1       1.508   4.963  -2.532  0.00  0.00    +0.040 A 
ATOM     34  C   UNL     1       2.692   5.161  -3.221  0.00  0.00    +0.124 A 
ATOM     35  C   UNL     1       2.896   4.535  -4.439  0.00  0.00    +0.040 A 
ATOM     36  C   UNL     1       1.919   3.710  -4.963  0.00  0.00    +0.031 A 
ATOM     37  F   UNL     1       3.648   5.965  -2.705  0.00  0.00    -0.205 F 
ENDBRANCH  28  31
ENDBRANCH  26  28
ENDBRANCH  11  26
TORSDOF 6
