REMARK  Name = ZINC22608775
REMARK  4 active torsions:
REMARK  status: ('A' for Active; 'I' for Inactive)
REMARK    1  A    between atoms: C_1  and  C_2
REMARK    2  A    between atoms: C_6  and  C_8
REMARK    3  A    between atoms: C_13  and  C_18
REMARK    4  A    between atoms: C_27  and  C_29
REMARK                            x       y       z     vdW  Elec       q    Type
REMARK                         _______ _______ _______ _____ _____    ______ ____
ROOT
ATOM      1  C   UNL     1       0.054  -2.845   2.489  0.00  0.00    +0.175 C 
ATOM      2  C   UNL     1       1.304  -3.694   2.558  0.00  0.00    +0.041 C 
ATOM      3  C   UNL     1       1.271  -5.034   2.396  0.00  0.00    +0.020 C 
ATOM      4  C   UNL     1       2.539  -5.853   2.453  0.00  0.00    +0.063 C 
ATOM      5  C   UNL     1       3.535  -5.194   3.409  0.00  0.00    +0.068 C 
ATOM      6  C   UNL     1       3.817  -3.774   2.909  0.00  0.00    +0.091 C 
ATOM      7  C   UNL     1       2.518  -3.026   2.802  0.00  0.00    +0.164 C 
ATOM      8  O   UNL     1       2.516  -1.817   2.930  0.00  0.00    -0.292 OA
ATOM      9  N   UNL     1       0.094  -5.709   2.179  0.00  0.00    -0.287 N 
ATOM     10  C   UNL     1      -1.095  -5.039   2.416  0.00  0.00    +0.219 A 
ATOM     11  N   UNL     1      -1.128  -3.693   2.567  0.00  0.00    -0.221 N 
ATOM     12  N   UNL     1      -2.462  -3.357   2.795  0.00  0.00    -0.153 NA
ATOM     13  C   UNL     1      -3.144  -4.475   2.765  0.00  0.00    +0.150 A 
ATOM     14  N   UNL     1      -2.313  -5.489   2.536  0.00  0.00    -0.198 NA
ATOM     15  C   UNL     1      -4.633  -4.595   2.962  0.00  0.00    +0.090 C 
ATOM     16  H   UNL     1       0.096  -6.628   1.869  0.00  0.00    +0.155 HD
ENDROOT
BRANCH   1  22
ATOM     17  C   UNL     1      -0.018   1.503   0.010  0.00  0.00    +0.044 C 
ATOM     18  C   UNL     1       0.002  -0.004   0.002  0.00  0.00    -0.050 A 
ATOM     19  C   UNL     1       0.006  -0.689  -1.199  0.00  0.00    +0.003 A 
ATOM     20  C   UNL     1       0.025  -2.071  -1.207  0.00  0.00    +0.001 A 
ATOM     21  C   UNL     1       0.040  -2.768  -0.013  0.00  0.00    +0.006 A 
ATOM     22  C   UNL     1       0.037  -2.084   1.188  0.00  0.00    -0.018 A 
ATOM     23  C   UNL     1       0.023  -0.702   1.195  0.00  0.00    +0.009 A 
ENDBRANCH   1  22
BRANCH   5  24
ATOM     24  C   UNL     1       4.815  -5.989   3.436  0.00  0.00    +0.109 A 
ATOM     25  C   UNL     1       5.354  -6.577   4.518  0.00  0.00    +0.045 A 
ATOM     26  C   UNL     1       6.545  -7.209   4.092  0.00  0.00    +0.041 A 
ATOM     27  C   UNL     1       6.663  -6.968   2.774  0.00  0.00    +0.195 A 
ATOM     28  O   UNL     1       5.609  -6.234   2.380  0.00  0.00    -0.468 OA
ENDBRANCH   5  24
TORSDOF 2
