REMARK  Name = ZINC00752405
REMARK  6 active torsions:
REMARK  status: ('A' for Active; 'I' for Inactive)
REMARK    1  A    between atoms: C_1  and  S_2
REMARK    2  A    between atoms: S_2  and  C_3
REMARK    3  A    between atoms: C_6  and  C_9
REMARK    4  A    between atoms: C_11  and  C_29
REMARK    5  A    between atoms: C_12  and  N_28
REMARK    6  A    between atoms: C_19  and  C_22
REMARK                            x       y       z     vdW  Elec       q    Type
REMARK                         _______ _______ _______ _____ _____    ______ ____
ROOT
ATOM      1  C   UNL     1       2.486   1.125  -0.040  0.00  0.00    +0.101 C 
ATOM      2  C   UNL     1       3.640   1.986   0.393  0.00  0.00    +0.098 C 
ATOM      3  C   UNL     1       3.526   3.336   0.393  0.00  0.00    +0.198 C 
ATOM      4  O   UNL     1       2.393   3.942   0.006  0.00  0.00    -0.445 OA
ATOM      5  C   UNL     1       1.230   3.263   0.030  0.00  0.00    +0.115 C 
ATOM      6  C   UNL     1       1.203   1.918   0.001  0.00  0.00    +0.046 C 
ATOM      7  C   UNL     1      -0.014   1.210   0.009  0.00  0.00    +0.164 C 
ATOM      8  O   UNL     1       0.002  -0.004   0.002  0.00  0.00    -0.292 OA
ATOM      9  C   UNL     1      -1.335   1.931   0.019  0.00  0.00    +0.088 C 
ATOM     10  C   UNL     1      -1.162   3.299  -0.644  0.00  0.00    +0.034 C 
ATOM     11  C   UNL     1      -0.053   4.059   0.086  0.00  0.00    +0.083 C 
ENDROOT
BRANCH   1  15
ATOM     12  C   UNL     1       3.171  -0.260  -4.025  0.00  0.00    +0.008 A 
ATOM     13  C   UNL     1       3.036  -1.171  -2.985  0.00  0.00    +0.015 A 
ATOM     14  C   UNL     1       2.815  -0.720  -1.699  0.00  0.00    +0.005 A 
ATOM     15  C   UNL     1       2.728   0.637  -1.445  0.00  0.00    -0.034 A 
ATOM     16  C   UNL     1       2.856   1.546  -2.479  0.00  0.00    +0.005 A 
ATOM     17  C   UNL     1       3.083   1.103  -3.767  0.00  0.00    +0.015 A 
BRANCH  12  19
ATOM     18  C   UNL     1       3.557   0.692  -6.650  0.00  0.00    +0.090 C 
ATOM     19  S   UNL     1       3.452  -0.830  -5.668  0.00  0.00    -0.129 S 
ENDBRANCH  12  19
ENDBRANCH   1  15
BRANCH  10  20
ATOM     20  C   UNL     1      -2.451   4.074  -0.554  0.00  0.00    -0.043 A 
ATOM     21  C   UNL     1      -3.005   4.352   0.681  0.00  0.00    +0.004 A 
ATOM     22  C   UNL     1      -4.186   5.067   0.764  0.00  0.00    +0.000 A 
ATOM     23  C   UNL     1      -4.817   5.494  -0.389  0.00  0.00    +0.000 A 
ATOM     24  C   UNL     1      -4.266   5.212  -1.624  0.00  0.00    +0.000 A 
ATOM     25  C   UNL     1      -3.083   4.501  -1.707  0.00  0.00    +0.004 A 
ENDBRANCH  10  20
BRANCH   3  26
ATOM     26  N   UNL     1       4.593   4.100   0.796  0.00  0.00    -0.328 N 
ATOM     27  H   UNL     1       4.523   5.068   0.799  0.00  0.00    +0.145 HD
ATOM     28  H   UNL     1       5.417   3.673   1.077  0.00  0.00    +0.145 HD
ENDBRANCH   3  26
BRANCH   2  29
ATOM     29  C   UNL     1       4.867   1.375   0.809  0.00  0.00    +0.101 C 
ATOM     30  N   UNL     1       5.840   0.890   1.139  0.00  0.00    -0.191 NA
ENDBRANCH   2  29
TORSDOF 5
