REMARK  Name = ZINC08684559
REMARK  13 active torsions:
REMARK  status: ('A' for Active; 'I' for Inactive)
REMARK    1  A    between atoms: C_1  and  C_2
REMARK    2  A    between atoms: C_3  and  N_15
REMARK    3  A    between atoms: N_6  and  C_9
REMARK    4  A    between atoms: N_7  and  C_8
REMARK    5  A    between atoms: N_15  and  C_16
REMARK    6  A    between atoms: C_16  and  N_17
REMARK    7  A    between atoms: N_17  and  C_18
REMARK    8  A    between atoms: C_18  and  C_20
REMARK    9  A    between atoms: C_18  and  N_24
REMARK   10  A    between atoms: C_25  and  C_27
REMARK   11  A    between atoms: C_27  and  C_28
REMARK   12  A    between atoms: C_28  and  C_29
REMARK   13  A    between atoms: C_28  and  C_30
REMARK                            x       y       z     vdW  Elec       q    Type
REMARK                         _______ _______ _______ _____ _____    ______ ____
ROOT
ATOM      1  C   UNL     1       0.041  -0.363  -3.382  0.00  0.00    +0.136 C 
ATOM      2  S   UNL     1       0.164  -2.067  -3.495  0.00  0.00    -0.019 S 
ENDROOT
BRANCH   1   3
ATOM      3  N   UNL     1       0.040   0.234  -2.173  0.00  0.00    -0.291 N 
ATOM      4  H   UNL     1       0.047   1.202  -2.110  0.00  0.00    +0.154 HD
BRANCH   3   7
ATOM      5  C   UNL     1       2.180   0.356   0.014  0.00  0.00    +0.067 C 
ATOM      6  C   UNL     1       0.954  -0.520  -0.018  0.00  0.00    +0.059 A 
ATOM      7  C   UNL     1       0.028  -0.549  -1.001  0.00  0.00    +0.120 A 
ATOM      8  C   UNL     1      -0.958  -1.505  -0.646  0.00  0.00    +0.293 A 
ATOM      9  O   UNL     1      -1.944  -1.797  -1.300  0.00  0.00    -0.264 OA
ATOM     10  N   UNL     1      -0.607  -2.034   0.543  0.00  0.00    -0.216 N 
ATOM     11  N   UNL     1       0.591  -1.429   0.944  0.00  0.00    -0.282 N 
ATOM     12  C   UNL     1       1.328  -1.714   2.178  0.00  0.00    +0.171 C 
BRANCH  10  13
ATOM     13  C   UNL     1      -1.311  -3.015   1.249  0.00  0.00    +0.067 A 
ATOM     14  C   UNL     1      -1.586  -2.838   2.599  0.00  0.00    +0.028 A 
ATOM     15  C   UNL     1      -2.282  -3.809   3.293  0.00  0.00    +0.002 A 
ATOM     16  C   UNL     1      -2.704  -4.955   2.645  0.00  0.00    +0.000 A 
ATOM     17  C   UNL     1      -2.431  -5.134   1.301  0.00  0.00    +0.002 A 
ATOM     18  C   UNL     1      -1.741  -4.165   0.600  0.00  0.00    +0.028 A 
ENDBRANCH  10  13
ENDBRANCH   3   7
ENDBRANCH   1   3
BRANCH   1  19
ATOM     19  N   UNL     1      -0.054   0.382  -4.501  0.00  0.00    -0.305 N 
ATOM     20  H   UNL     1      -0.123   1.347  -4.437  0.00  0.00    +0.150 HD
BRANCH  19  21
ATOM     21  C   UNL     1      -0.052  -0.266  -5.815  0.00  0.00    +0.211 C 
BRANCH  21  22
ATOM     22  C   UNL     1       0.881   0.495  -6.758  0.00  0.00    +0.225 C 
ATOM     23 CL   UNL     1       2.553   0.489  -6.083  0.00  0.00    -0.080 Cl
ATOM     24 CL   UNL     1       0.883  -0.303  -8.375  0.00  0.00    -0.080 Cl
ATOM     25 CL   UNL     1       0.308   2.196  -6.928  0.00  0.00    -0.080 Cl
ENDBRANCH  21  22
BRANCH  21  26
ATOM     26  N   UNL     1      -1.410  -0.262  -6.363  0.00  0.00    -0.294 N 
ATOM     27  C   UNL     1      -2.137  -1.397  -6.372  0.00  0.00    +0.215 C 
ATOM     28  O   UNL     1      -1.667  -2.421  -5.926  0.00  0.00    -0.276 OA
ATOM     29  H   UNL     1      -1.787   0.558  -6.720  0.00  0.00    +0.151 HD
BRANCH  27  30
ATOM     30  C   UNL     1      -3.535  -1.392  -6.936  0.00  0.00    +0.098 C 
BRANCH  30  31
ATOM     31  C   UNL     1      -4.134  -2.795  -6.827  0.00  0.00    -0.008 C 
ATOM     32  C   UNL     1      -4.294  -3.167  -5.351  0.00  0.00    +0.008 C 
ATOM     33  C   UNL     1      -5.502  -2.821  -7.511  0.00  0.00    +0.008 C 
ENDBRANCH  30  31
ENDBRANCH  27  30
ENDBRANCH  21  26
ENDBRANCH  19  21
ENDBRANCH   1  19
TORSDOF 9
