REMARK  Name = ZINC00823582
REMARK  7 active torsions:
REMARK  status: ('A' for Active; 'I' for Inactive)
REMARK    1  A    between atoms: C_1  and  C_2
REMARK    2  A    between atoms: C_3  and  C_18
REMARK    3  A    between atoms: C_4  and  C_10
REMARK    4  A    between atoms: C_15  and  O_16
REMARK    5  A    between atoms: O_16  and  C_17
REMARK    6  A    between atoms: C_18  and  O_20
REMARK    7  A    between atoms: O_20  and  C_21
REMARK                            x       y       z     vdW  Elec       q    Type
REMARK                         _______ _______ _______ _____ _____    ______ ____
ROOT
ATOM      1  C   UNL     1       3.405  -1.182  -0.104  0.00  0.00    +0.061 C 
ATOM      2  C   UNL     1       2.299  -0.160  -0.058  0.00  0.00    +0.021 C 
ATOM      3  C   UNL     1       2.609   1.155  -0.052  0.00  0.00    +0.078 C 
ATOM      4  C   UNL     1       1.466   2.149  -0.006  0.00  0.00    +0.147 C 
ATOM      5  N   UNL     1       0.102   1.595   0.031  0.00  0.00    -0.288 N 
ATOM      6  C   UNL     1      -0.048   0.256   0.020  0.00  0.00    +0.304 C 
ATOM      7  O   UNL     1      -1.170  -0.211   0.050  0.00  0.00    -0.252 OA
ATOM      8  N   UNL     1       0.999  -0.578  -0.022  0.00  0.00    -0.273 N 
ATOM      9  H   UNL     1      -0.671   2.181   0.058  0.00  0.00    +0.151 HD
ATOM     10  H   UNL     1       0.825  -1.532  -0.027  0.00  0.00    +0.156 HD
ENDROOT
BRANCH   4  11
ATOM     11  C   UNL     1       1.650   3.011   1.216  0.00  0.00    +0.019 A 
ATOM     12  C   UNL     1       2.370   2.536   2.296  0.00  0.00    +0.009 A 
ATOM     13  C   UNL     1       2.539   3.326   3.417  0.00  0.00    +0.001 A 
ATOM     14  C   UNL     1       1.990   4.594   3.461  0.00  0.00    +0.004 A 
ATOM     15  C   UNL     1       1.270   5.075   2.384  0.00  0.00    +0.046 A 
ATOM     16  C   UNL     1       1.103   4.285   1.256  0.00  0.00    +0.125 A 
BRANCH  16  17
ATOM     17  O   UNL     1       0.399   4.757   0.193  0.00  0.00    -0.495 OA
ATOM     18  C   UNL     1      -0.045   6.113   0.260  0.00  0.00    +0.277 C 
ENDBRANCH  16  17
ENDBRANCH   4  11
BRANCH   3  19
ATOM     19  C   UNL     1       3.954   1.589  -0.089  0.00  0.00    +0.339 C 
ATOM     20  O   UNL     1       4.858   0.777  -0.025  0.00  0.00    -0.245 OA
BRANCH  19  21
ATOM     21  O   UNL     1       4.236   2.905  -0.195  0.00  0.00    -0.458 OA
BRANCH  21  22
ATOM     22  C   UNL     1       5.612   3.264  -0.339  0.00  0.00    +0.177 C 
ATOM     23  C   UNL     1       6.259   3.332   1.060  0.00  0.00    +0.044 C 
ATOM     24  C   UNL     1       7.750   3.196   0.902  0.00  0.00    +0.004 C 
ATOM     25  C   UNL     1       8.459   4.562   0.824  0.00  0.00    +0.000 C 
ATOM     26  C   UNL     1       7.700   5.580  -0.048  0.00  0.00    +0.000 C 
ATOM     27  C   UNL     1       7.154   4.964  -1.308  0.00  0.00    +0.004 C 
ATOM     28  C   UNL     1       5.696   4.531  -1.049  0.00  0.00    +0.044 C 
ENDBRANCH  21  22
ENDBRANCH  19  21
ENDBRANCH   3  19
TORSDOF 5
