REMARK  Name = ZINC40457547
REMARK  6 active torsions:
REMARK  status: ('A' for Active; 'I' for Inactive)
REMARK    1  A    between atoms: C_1  and  C_2
REMARK    2  A    between atoms: N_4  and  C_5
REMARK    3  A    between atoms: C_14  and  C_17
REMARK    4  A    between atoms: N_19  and  C_20
REMARK    5  A    between atoms: N_19  and  O_21
REMARK    6  A    between atoms: O_21  and  C_22
REMARK                            x       y       z     vdW  Elec       q    Type
REMARK                         _______ _______ _______ _____ _____    ______ ____
ROOT
ATOM      1  C   UNL     1      -1.183  -2.163   0.485  0.00  0.00    +0.036 C 
ATOM      2  C   UNL     1      -0.394  -2.889   1.576  0.00  0.00    +0.029 C 
ATOM      3  C   UNL     1      -0.358  -4.388   1.267  0.00  0.00    -0.008 C 
ATOM      4  C   UNL     1       0.317  -4.613  -0.087  0.00  0.00    +0.007 C 
ATOM      5  C   UNL     1      -0.472  -3.886  -1.178  0.00  0.00    -0.008 C 
ATOM      6  C   UNL     1      -0.508  -2.388  -0.869  0.00  0.00    +0.029 C 
ATOM      7  C   UNL     1      -1.900  -4.433  -1.224  0.00  0.00    +0.020 C 
ATOM      8  C   UNL     1      -2.576  -4.207   0.131  0.00  0.00    +0.052 C 
ATOM      9  C   UNL     1      -1.787  -4.933   1.222  0.00  0.00    +0.020 C 
ATOM     10  C   UNL     1      -2.612  -2.709   0.439  0.00  0.00    +0.042 C 
ENDROOT
BRANCH   1  14
ATOM     11  C   UNL     1      -0.104   1.445   1.174  0.00  0.00    +0.109 C 
ATOM     12  C   UNL     1      -0.068  -0.031   0.870  0.00  0.00    +0.210 C 
ATOM     13  O   UNL     1       0.995  -0.591   0.706  0.00  0.00    -0.276 OA
ATOM     14  N   UNL     1      -1.218  -0.728   0.780  0.00  0.00    -0.310 N 
ATOM     15  H   UNL     1      -2.068  -0.281   0.911  0.00  0.00    +0.149 HD
ENDBRANCH   1  14
BRANCH   8  16
ATOM     16  C   UNL     1      -3.983  -4.745   0.086  0.00  0.00    +0.244 C 
ATOM     17  O   UNL     1      -4.925  -3.990   0.211  0.00  0.00    -0.273 OA
ATOM     18  N   UNL     1      -4.195  -6.064  -0.093  0.00  0.00    -0.184 N 
ATOM     19  C   UNL     1      -3.061  -6.991  -0.117  0.00  0.00    +0.166 C 
BRANCH  18  20
ATOM     20  O   UNL     1      -5.513  -6.553  -0.257  0.00  0.00    -0.281 OA
ATOM     21  C   UNL     1      -5.991  -6.496  -1.603  0.00  0.00    +0.227 C 
ENDBRANCH  18  20
ENDBRANCH   8  16
TORSDOF 3
