REMARK  Name = ZINC39466706
REMARK  3 active torsions:
REMARK  status: ('A' for Active; 'I' for Inactive)
REMARK    1  A    between atoms: C_4  and  C_7
REMARK    2  A    between atoms: C_7  and  P_8
REMARK    3  A    between atoms: C_17  and  O_26
REMARK                            x       y       z     vdW  Elec       q    Type
REMARK                         _______ _______ _______ _____ _____    ______ ____
ROOT
ATOM      1  P   UNL     1       4.260  -1.012   1.674  0.00  0.00    +0.262 P 
ATOM      2  O   UNL     1       4.479   0.271   2.378  0.00  0.00    -0.274 OA
ATOM      3  N   UNL     1       5.640  -1.916   1.680  0.00  0.00    -0.291 NA
ATOM      4  N   UNL     1       5.522  -3.273   1.463  0.00  0.00    +0.397 N 
ATOM      5  C   UNL     1       6.872  -3.832   1.636  0.00  0.00    -0.046 C 
ATOM      6  C   UNL     1       6.873  -5.337   1.401  0.00  0.00    +0.007 C 
ATOM      7  C   UNL     1       6.421  -5.651  -0.000  0.00  0.00    +0.017 C 
ATOM      8  C   UNL     1       5.929  -6.859  -0.275  0.00  0.00    +0.161 C 
ATOM      9  C   UNL     1       5.849  -7.871   0.798  0.00  0.00    +0.148 C 
ATOM     10  C   UNL     1       5.845  -7.482   2.074  0.00  0.00    +0.025 C 
ATOM     11  C   UNL     1       5.921  -6.009   2.394  0.00  0.00    +0.019 C 
ATOM     12  C   UNL     1       4.532  -5.388   2.233  0.00  0.00    -0.002 C 
ATOM     13  C   UNL     1       4.596  -3.869   2.428  0.00  0.00    -0.020 C 
ATOM     14  C   UNL     1       3.170  -3.332   2.244  0.00  0.00    +0.156 C 
ATOM     15  O   UNL     1       3.159  -1.911   2.468  0.00  0.00    -0.319 OA
ATOM     16  F   UNL     1       5.508  -7.154  -1.524  0.00  0.00    -0.202 F 
ATOM     17  H   UNL     1       6.506  -1.507   1.831  0.00  0.00    +0.111 HD
ATOM     18  H   UNL     1       5.189  -3.439   0.525  0.00  0.00    -0.055 HD
ENDROOT
BRANCH   9  19
ATOM     19  O   UNL     1       5.780  -9.192   0.486  0.00  0.00    -0.504 OA
ATOM     20  H   UNL     1       5.789  -9.373  -0.464  0.00  0.00    +0.292 HD
ENDBRANCH   9  19
BRANCH   1  21
ATOM     21  C   UNL     1       3.711  -0.707  -0.038  0.00  0.00    +0.147 C 
BRANCH  21  25
ATOM     22  C   UNL     1      -0.017   1.378   0.010  0.00  0.00    +0.000 A 
ATOM     23  C   UNL     1       1.171   2.086   0.002  0.00  0.00    +0.000 A 
ATOM     24  C   UNL     1       2.377   1.411  -0.013  0.00  0.00    +0.004 A 
ATOM     25  C   UNL     1       2.396   0.029  -0.020  0.00  0.00    -0.037 A 
ATOM     26  C   UNL     1       1.208  -0.679  -0.012  0.00  0.00    +0.004 A 
ATOM     27  C   UNL     1       0.002  -0.004   0.002  0.00  0.00    +0.000 A 
ENDBRANCH  21  25
ENDBRANCH   1  21
TORSDOF 3
