REMARK  Name = ZINC20883730
REMARK  3 active torsions:
REMARK  status: ('A' for Active; 'I' for Inactive)
REMARK    1  A    between atoms: C_8  and  C_26
REMARK    2  A    between atoms: C_14  and  C_19
REMARK    3  A    between atoms: C_30  and  N_32
REMARK                            x       y       z     vdW  Elec       q    Type
REMARK                         _______ _______ _______ _____ _____    ______ ____
ROOT
ATOM      1  C   UNL     1       0.545   4.995  -2.004  0.00  0.00    +0.002 A 
ATOM      2  C   UNL     1       0.449   5.883  -0.948  0.00  0.00    +0.002 A 
ATOM      3  C   UNL     1       1.428   5.913   0.031  0.00  0.00    +0.025 A 
ATOM      4  C   UNL     1       2.501   5.043  -0.057  0.00  0.00    +0.052 A 
ATOM      5  C   UNL     1       2.578   4.125  -1.093  0.00  0.00    +0.049 A 
ATOM      6  C   UNL     1       1.608   4.113  -2.083  0.00  0.00    +0.025 A 
ATOM      7  N   UNL     1       3.604   3.181  -1.067  0.00  0.00    -0.331 N 
ATOM      8  C   UNL     1       3.672   2.183  -0.021  0.00  0.00    +0.136 C 
ATOM      9  C   UNL     1       3.906   2.739   1.363  0.00  0.00    +0.036 C 
ATOM     10  C   UNL     1       3.833   4.034   1.715  0.00  0.00    +0.017 C 
ATOM     11  N   UNL     1       3.542   5.051   0.865  0.00  0.00    -0.316 N 
ATOM     12  C   UNL     1       4.100   4.460   3.149  0.00  0.00    +0.059 C 
ATOM     13  C   UNL     1       3.664   3.357   4.112  0.00  0.00    +0.032 C 
ATOM     14  C   UNL     1       4.466   2.095   3.769  0.00  0.00    +0.088 C 
ATOM     15  C   UNL     1       4.223   1.755   2.329  0.00  0.00    +0.163 C 
ATOM     16  O   UNL     1       4.302   0.593   1.979  0.00  0.00    -0.292 OA
ATOM     17  H   UNL     1       4.369   3.202  -1.857  0.00  0.00    +0.147 HD
ATOM     18  H   UNL     1       4.201   5.927   0.942  0.00  0.00    +0.152 HD
ENDROOT
BRANCH  13  19
ATOM     19  C   UNL     1       3.951   3.775   5.531  0.00  0.00    -0.043 A 
ATOM     20  C   UNL     1       5.248   4.053   5.921  0.00  0.00    +0.005 A 
ATOM     21  C   UNL     1       5.511   4.442   7.221  0.00  0.00    +0.020 A 
ATOM     22  C   UNL     1       4.477   4.543   8.135  0.00  0.00    +0.041 A 
ATOM     23  C   UNL     1       3.180   4.260   7.745  0.00  0.00    +0.020 A 
ATOM     24  C   UNL     1       2.918   3.876   6.444  0.00  0.00    +0.005 A 
ATOM     25 CL   UNL     1       4.807   5.025   9.770  0.00  0.00    -0.084 Cl
ENDBRANCH  13  19
BRANCH   8  26
ATOM     26  C   UNL     1       2.377   1.411  -0.013  0.00  0.00    -0.021 A 
ATOM     27  C   UNL     1       1.186   2.064   0.245  0.00  0.00    +0.007 A 
ATOM     28  C   UNL     1      -0.002   1.357   0.253  0.00  0.00    +0.022 A 
ATOM     29  C   UNL     1       0.002  -0.004   0.002  0.00  0.00    +0.071 A 
ATOM     30  C   UNL     1       1.194  -0.656  -0.256  0.00  0.00    +0.145 A 
ATOM     31  C   UNL     1       2.382   0.052  -0.263  0.00  0.00    +0.040 A 
ATOM     32 CL   UNL     1      -1.489  -0.893   0.011  0.00  0.00    -0.081 Cl
BRANCH  30  33
ATOM     33  N   UNL     1       1.199  -2.112  -0.523  0.00  0.00    +0.058 N 
ATOM     34  O   UNL     1       2.249  -2.686  -0.750  0.00  0.00    -0.126 OA
ATOM     35  O   UNL     1       0.153  -2.736  -0.516  0.00  0.00    -0.126 OA
ENDBRANCH  30  33
ENDBRANCH   8  26
TORSDOF 3
