REMARK  Name = ZINC39669520
REMARK  5 active torsions:
REMARK  status: ('A' for Active; 'I' for Inactive)
REMARK    1  A    between atoms: C_4  and  C_7
REMARK    2  A    between atoms: C_10  and  C_12
REMARK    3  A    between atoms: C_16  and  C_25
REMARK    4  A    between atoms: N_27  and  C_28
REMARK    5  A    between atoms: C_28  and  C_29
REMARK                            x       y       z     vdW  Elec       q    Type
REMARK                         _______ _______ _______ _____ _____    ______ ____
ROOT
ATOM      1  C   UNL     1       7.708  -0.859  -0.311  0.00  0.00    +0.282 C 
ATOM      2  O   UNL     1       8.523  -1.757  -0.418  0.00  0.00    -0.267 OA
ATOM      3  N   UNL     1       8.116   0.425  -0.312  0.00  0.00    -0.294 N 
ATOM      4  C   UNL     1       7.297   1.639  -0.086  0.00  0.00    +0.121 C 
ATOM      5  C   UNL     1       8.196   2.564   0.764  0.00  0.00    +0.100 C 
ATOM      6  C   UNL     1       9.631   2.103   0.461  0.00  0.00    -0.004 C 
ATOM      7  C   UNL     1       9.488   0.942  -0.533  0.00  0.00    +0.115 C 
ATOM      8  C   UNL     1      10.310   1.616   1.738  0.00  0.00    -0.010 C 
ATOM      9  C   UNL     1      11.755   1.217   1.421  0.00  0.00    -0.082 C 
ATOM     10  N   UNL     1      12.474   2.373   0.871  0.00  0.00    +0.379 N 
ATOM     11  C   UNL     1      11.870   2.777  -0.405  0.00  0.00    -0.082 C 
ATOM     12  C   UNL     1      10.431   3.242  -0.166  0.00  0.00    -0.010 C 
ATOM     13  H   UNL     1      12.424   3.140   1.523  0.00  0.00    -0.086 HD
ATOM     14  H   UNL     1      13.440   2.125   0.720  0.00  0.00    -0.086 HD
ENDROOT
BRANCH   1  18
ATOM     15  C   UNL     1       4.105  -0.932  -0.025  0.00  0.00    +0.136 A 
ATOM     16  C   UNL     1       4.356  -2.273   0.039  0.00  0.00    +0.050 A 
ATOM     17  C   UNL     1       5.742  -2.436  -0.059  0.00  0.00    +0.055 A 
ATOM     18  C   UNL     1       6.283  -1.175  -0.180  0.00  0.00    +0.190 A 
ATOM     19  O   UNL     1       5.272  -0.281  -0.163  0.00  0.00    -0.450 OA
BRANCH  15  23
ATOM     20  C   UNL     1       0.268   0.878   0.162  0.00  0.00    +0.000 A 
ATOM     21  C   UNL     1       1.402   1.670   0.127  0.00  0.00    +0.001 A 
ATOM     22  C   UNL     1       2.652   1.089   0.067  0.00  0.00    +0.011 A 
ATOM     23  C   UNL     1       2.770  -0.303   0.041  0.00  0.00    +0.017 A 
ATOM     24  C   UNL     1       1.621  -1.096   0.076  0.00  0.00    +0.011 A 
ATOM     25  C   UNL     1       0.378  -0.501   0.136  0.00  0.00    +0.001 A 
ENDBRANCH  15  23
ENDBRANCH   1  18
BRANCH   5  26
ATOM     26  C   UNL     1       8.006   4.002   0.354  0.00  0.00    +0.218 C 
ATOM     27  O   UNL     1       7.774   4.276  -0.804  0.00  0.00    -0.275 OA
ATOM     28  N   UNL     1       8.094   4.982   1.275  0.00  0.00    -0.315 N 
ATOM     29  H   UNL     1       8.350   4.771   2.186  0.00  0.00    +0.149 HD
BRANCH  28  30
ATOM     30  C   UNL     1       7.803   6.368   0.899  0.00  0.00    +0.109 C 
BRANCH  30  31
ATOM     31  C   UNL     1       8.088   7.289   2.087  0.00  0.00    +0.024 C 
ATOM     32  C   UNL     1       7.894   8.746   1.661  0.00  0.00    +0.008 C 
ATOM     33  C   UNL     1       8.211   9.670   2.839  0.00  0.00    +0.019 C 
ATOM     34  C   UNL     1       7.248   9.371   3.992  0.00  0.00    +0.108 C 
ATOM     35  N   UNL     1       7.324   7.939   4.311  0.00  0.00    -0.299 N 
ATOM     36  C   UNL     1       7.124   6.962   3.231  0.00  0.00    +0.113 C 
ATOM     37  C   UNL     1       7.578   7.517   5.604  0.00  0.00    +0.218 A 
ATOM     38  N   UNL     1       7.747   6.224   5.841  0.00  0.00    -0.223 NA
ATOM     39  C   UNL     1       7.992   5.788   7.066  0.00  0.00    +0.116 A 
ATOM     40  C   UNL     1       8.071   6.701   8.106  0.00  0.00    +0.039 A 
ATOM     41  C   UNL     1       7.889   8.045   7.823  0.00  0.00    +0.116 A 
ATOM     42  N   UNL     1       7.652   8.415   6.575  0.00  0.00    -0.223 NA
ENDBRANCH  30  31
ENDBRANCH  28  30
ENDBRANCH   5  26
TORSDOF 5
