REMARK  Name = ZINC35938562
REMARK  11 active torsions:
REMARK  status: ('A' for Active; 'I' for Inactive)
REMARK    1  A    between atoms: C_1  and  C_2
REMARK    2  A    between atoms: C_2  and  C_3
REMARK    3  A    between atoms: C_3  and  C_4
REMARK    4  A    between atoms: C_4  and  C_5
REMARK    5  A    between atoms: C_5  and  C_7
REMARK    6  A    between atoms: C_5  and  C_9
REMARK    7  A    between atoms: C_7  and  C_8
REMARK    8  A    between atoms: C_18  and  C_20
REMARK    9  A    between atoms: C_20  and  C_21
REMARK   10  A    between atoms: C_21  and  N_22
REMARK   11  A    between atoms: C_30  and  C_32
REMARK                            x       y       z     vdW  Elec       q    Type
REMARK                         _______ _______ _______ _____ _____    ______ ____
ROOT
ATOM      1  C   UNL     1      -2.783  -4.042   0.218  0.00  0.00    +0.219 C 
ATOM      2  O   UNL     1      -1.710  -4.559   0.445  0.00  0.00    -0.275 OA
ATOM      3  N   UNL     1      -3.899  -4.796   0.177  0.00  0.00    -0.300 N 
ATOM      4  C   UNL     1      -3.843  -6.211   0.295  0.00  0.00    +0.109 C 
ATOM      5  C   UNL     1      -3.540  -6.965  -1.042  0.00  0.00    +0.038 C 
ATOM      6  C   UNL     1      -4.296  -6.209  -2.183  0.00  0.00    +0.109 C 
ATOM      7  N   UNL     1      -5.579  -5.717  -1.818  0.00  0.00    -0.300 N 
ATOM      8  C   UNL     1      -5.660  -4.298  -1.386  0.00  0.00    +0.126 C 
ATOM      9  C   UNL     1      -5.243  -4.184   0.013  0.00  0.00    +0.126 C 
ATOM     10  C   UNL     1      -6.673  -6.503  -1.863  0.00  0.00    +0.214 C 
ATOM     11  O   UNL     1      -6.575  -7.658  -2.221  0.00  0.00    -0.276 OA
ENDROOT
BRANCH   1  12
ATOM     12  C   UNL     1      -2.868  -2.556  -0.019  0.00  0.00    +0.075 C 
BRANCH  12  13
ATOM     13  C   UNL     1      -1.615  -2.084  -0.758  0.00  0.00    +0.009 C 
ATOM     14  C   UNL     1      -1.584  -2.704  -2.157  0.00  0.00    +0.004 C 
ENDBRANCH  12  13
BRANCH  12  15
ATOM     15  C   UNL     1      -2.971  -1.831   1.324  0.00  0.00    +0.013 C 
BRANCH  15  16
ATOM     16  C   UNL     1      -3.183  -0.335   1.081  0.00  0.00    +0.000 C 
BRANCH  16  18
ATOM     17  C   UNL     1      -3.498   1.886   2.182  0.00  0.00    +0.004 C 
ATOM     18  C   UNL     1      -3.286   0.390   2.425  0.00  0.00    -0.003 C 
ENDBRANCH  16  18
ENDBRANCH  15  16
ENDBRANCH  12  15
ENDBRANCH   1  12
BRANCH  10  19
ATOM     19  C   UNL     1      -8.017  -5.946  -1.470  0.00  0.00    +0.077 C 
BRANCH  19  20
ATOM     20  C   UNL     1      -9.081  -7.037  -1.609  0.00  0.00    -0.068 C 
BRANCH  20  21
ATOM     21  N   UNL     1     -10.391  -6.494  -1.226  0.00  0.00    +0.388 N 
ATOM     22  C   UNL     1     -10.763  -5.423  -2.160  0.00  0.00    -0.072 C 
ATOM     23  C   UNL     1     -11.953  -4.643  -1.573  0.00  0.00    +0.024 C 
ATOM     24  C   UNL     1     -12.961  -5.643  -1.109  0.00  0.00    -0.010 A 
ATOM     25  C   UNL     1     -12.759  -6.981  -0.947  0.00  0.00    -0.047 A 
ATOM     26  C   UNL     1     -13.850  -7.726  -0.505  0.00  0.00    +0.010 A 
ATOM     27  C   UNL     1     -15.031  -7.114  -0.258  0.00  0.00    +0.045 A 
ATOM     28  S   UNL     1     -14.653  -5.410  -0.646  0.00  0.00    -0.101 S 
ATOM     29  C   UNL     1     -11.385  -7.574  -1.247  0.00  0.00    -0.006 C 
ATOM     30  H   UNL     1     -10.333  -6.115  -0.292  0.00  0.00    -0.080 HD
BRANCH  29  31
ATOM     31  C   UNL     1     -11.039  -8.601  -0.200  0.00  0.00    -0.057 A 
ATOM     32  C   UNL     1     -10.576  -8.196   1.039  0.00  0.00    +0.002 A 
ATOM     33  C   UNL     1     -10.258  -9.138   1.999  0.00  0.00    +0.000 A 
ATOM     34  C   UNL     1     -10.403 -10.485   1.721  0.00  0.00    +0.000 A 
ATOM     35  C   UNL     1     -10.867 -10.889   0.483  0.00  0.00    +0.000 A 
ATOM     36  C   UNL     1     -11.189  -9.947  -0.475  0.00  0.00    +0.002 A 
ENDBRANCH  29  31
ENDBRANCH  20  21
ENDBRANCH  19  20
ENDBRANCH  10  19
TORSDOF 9
