REMARK  Name = ZINC41076170
REMARK  7 active torsions:
REMARK  status: ('A' for Active; 'I' for Inactive)
REMARK    1  A    between atoms: C_1  and  C_2
REMARK    2  A    between atoms: C_2  and  C_3
REMARK    3  A    between atoms: C_4  and  N_18
REMARK    4  A    between atoms: C_5  and  C_14
REMARK    5  A    between atoms: C_7  and  C_8
REMARK    6  A    between atoms: C_14  and  O_16
REMARK    7  A    between atoms: O_16  and  C_17
REMARK                            x       y       z     vdW  Elec       q    Type
REMARK                         _______ _______ _______ _____ _____    ______ ____
ROOT
ATOM      1  C   UNL     1       0.707  -0.490  -1.238  0.00  0.00    -0.008 A 
ATOM      2  C   UNL     1       0.008  -0.721  -2.395  0.00  0.00    +0.050 A 
ATOM      3  C   UNL     1       0.711  -1.171  -3.516  0.00  0.00    +0.118 A 
ATOM      4  S   UNL     1       2.384  -1.262  -2.901  0.00  0.00    -0.077 S 
ATOM      5  C   UNL     1       2.078  -0.707  -1.233  0.00  0.00    +0.060 A 
ENDROOT
BRANCH   5   6
ATOM      6  C   UNL     1       3.034  -0.528  -0.132  0.00  0.00    +0.143 A 
ATOM      7  C   UNL     1       4.377  -0.755  -0.193  0.00  0.00    +0.051 A 
ATOM      8  C   UNL     1       4.897  -0.457   1.080  0.00  0.00    +0.057 A 
ATOM      9  C   UNL     1       3.859  -0.067   1.850  0.00  0.00    +0.171 A 
ATOM     10  O   UNL     1       2.737  -0.105   1.114  0.00  0.00    -0.448 OA
ATOM     11 BR   UNL     1       3.969   0.456   3.664  0.00  0.00    -0.008 Br
ENDBRANCH   5   6
BRANCH   2  12
ATOM     12  N   UNL     1      -1.367  -0.512  -2.451  0.00  0.00    -0.357 N 
ATOM     13  H   UNL     1      -1.843  -0.200  -1.665  0.00  0.00    +0.142 HD
ATOM     14  H   UNL     1      -1.850  -0.679  -3.276  0.00  0.00    +0.142 HD
ENDBRANCH   2  12
BRANCH   1  16
ATOM     15  C   UNL     1      -0.019   1.526   0.010  0.00  0.00    +0.009 C 
ATOM     16  C   UNL     1       0.002  -0.004   0.002  0.00  0.00    +0.035 C 
ENDBRANCH   1  16
BRANCH   3  17
ATOM     17  C   UNL     1       0.223  -1.476  -4.803  0.00  0.00    +0.347 C 
ATOM     18  O   UNL     1      -0.964  -1.355  -5.049  0.00  0.00    -0.244 OA
BRANCH  17  19
ATOM     19  O   UNL     1       1.071  -1.902  -5.764  0.00  0.00    -0.464 OA
ATOM     20  C   UNL     1       0.508  -2.192  -7.045  0.00  0.00    +0.280 C 
ENDBRANCH  17  19
ENDBRANCH   3  17
TORSDOF 5
