REMARK  Name = ZINC41161315
REMARK  2 active torsions:
REMARK  status: ('A' for Active; 'I' for Inactive)
REMARK    1  A    between atoms: C_9  and  C_12
REMARK    2  A    between atoms: C_16  and  C_18
REMARK                            x       y       z     vdW  Elec       q    Type
REMARK                         _______ _______ _______ _____ _____    ______ ____
ROOT
ATOM      1  C   UNL     1       4.898  -2.639  -0.050  0.00  0.00    +0.170 A 
ATOM      2  N   UNL     1       5.429  -3.731  -0.628  0.00  0.00    -0.259 N 
ATOM      3  H   UNL     1       5.046  -4.249  -1.353  0.00  0.00    +0.190 HD
ATOM      4  N   UNL     1       6.648  -3.972   0.027  0.00  0.00    -0.157 NA
ATOM      5  C   UNL     1       6.780  -3.041   0.934  0.00  0.00    +0.154 A 
ATOM      6  N   UNL     1       5.721  -2.232   0.882  0.00  0.00    -0.212 NA
ENDROOT
BRANCH   1  15
ATOM      7  C   UNL     1      -0.017   1.378   0.010  0.00  0.00    +0.004 A 
ATOM      8  C   UNL     1       1.170   2.088   0.002  0.00  0.00    +0.004 A 
ATOM      9  C   UNL     1       2.378   1.418  -0.012  0.00  0.00    +0.049 A 
ATOM     10  C   UNL     1       2.404   0.031  -0.019  0.00  0.00    +0.163 A 
ATOM     11  C   UNL     1       1.212  -0.683  -0.014  0.00  0.00    +0.162 A 
ATOM     12  C   UNL     1       0.002  -0.004   0.002  0.00  0.00    +0.049 A 
ATOM     13  O   UNL     1       1.214  -2.043  -0.029  0.00  0.00    -0.484 OA
ATOM     14  C   UNL     1       2.441  -2.689   0.331  0.00  0.00    +0.281 C 
ATOM     15  C   UNL     1       3.587  -1.993  -0.416  0.00  0.00    +0.277 C 
ATOM     16  O   UNL     1       3.602  -0.615  -0.029  0.00  0.00    -0.474 OA
ENDBRANCH   1  15
BRANCH   5  17
ATOM     17  C   UNL     1       7.942  -2.900   1.883  0.00  0.00    +0.059 C 
ATOM     18  C   UNL     1       9.233  -2.711   1.083  0.00  0.00    +0.011 C 
ATOM     19  C   UNL     1      10.413  -2.569   2.046  0.00  0.00    +0.001 C 
ATOM     20  C   UNL     1      10.526  -3.830   2.905  0.00  0.00    +0.000 C 
ATOM     21  C   UNL     1       9.235  -4.019   3.705  0.00  0.00    +0.001 C 
ATOM     22  C   UNL     1       8.055  -4.162   2.742  0.00  0.00    +0.011 C 
ENDBRANCH   5  17
TORSDOF 2
