REMARK  Name = ZINC39687718
REMARK  6 active torsions:
REMARK  status: ('A' for Active; 'I' for Inactive)
REMARK    1  A    between atoms: C_1  and  C_2
REMARK    2  A    between atoms: C_5  and  C_8
REMARK    3  A    between atoms: C_8  and  C_9
REMARK    4  A    between atoms: C_13  and  C_22
REMARK    5  A    between atoms: N_24  and  C_25
REMARK    6  A    between atoms: C_32  and  C_37
REMARK                            x       y       z     vdW  Elec       q    Type
REMARK                         _______ _______ _______ _____ _____    ______ ____
ROOT
ATOM      1  C   UNL     1       1.551  -4.767  -0.054  0.00  0.00    +0.220 C 
ATOM      2  O   UNL     1       2.477  -3.985  -0.105  0.00  0.00    -0.275 OA
ATOM      3  N   UNL     1       1.788  -6.094  -0.089  0.00  0.00    -0.300 N 
ATOM      4  C   UNL     1       0.796  -7.194  -0.046  0.00  0.00    +0.121 C 
ATOM      5  C   UNL     1       1.334  -8.244  -1.044  0.00  0.00    +0.100 C 
ATOM      6  C   UNL     1       2.845  -7.969  -1.127  0.00  0.00    -0.004 C 
ATOM      7  C   UNL     1       3.098  -6.781  -0.187  0.00  0.00    +0.115 C 
ATOM      8  C   UNL     1       3.631  -9.190  -0.659  0.00  0.00    -0.010 C 
ATOM      9  C   UNL     1       5.130  -8.913  -0.806  0.00  0.00    -0.082 C 
ATOM     10  N   UNL     1       5.439  -8.615  -2.209  0.00  0.00    +0.379 N 
ATOM     11  C   UNL     1       4.752  -7.386  -2.623  0.00  0.00    -0.082 C 
ATOM     12  C   UNL     1       3.237  -7.598  -2.554  0.00  0.00    -0.010 C 
ATOM     13  H   UNL     1       6.436  -8.493  -2.313  0.00  0.00    -0.086 HD
ATOM     14  H   UNL     1       5.134  -9.381  -2.790  0.00  0.00    -0.086 HD
ENDROOT
BRANCH   5  15
ATOM     15  C   UNL     1       1.079  -9.637  -0.529  0.00  0.00    +0.218 C 
ATOM     16  O   UNL     1       1.059  -9.848   0.665  0.00  0.00    -0.275 OA
ATOM     17  N   UNL     1       0.873 -10.649  -1.395  0.00  0.00    -0.312 N 
ATOM     18  H   UNL     1       0.889 -10.480  -2.350  0.00  0.00    +0.149 HD
BRANCH  17  19
ATOM     19  C   UNL     1       0.626 -12.003  -0.894  0.00  0.00    +0.076 C 
ATOM     20  C   UNL     1       1.962 -12.699  -0.624  0.00  0.00    +0.041 C 
ATOM     21  C   UNL     1       1.698 -14.102  -0.068  0.00  0.00    +0.108 C 
ATOM     22  N   UNL     1       0.820 -14.823  -1.000  0.00  0.00    -0.316 N 
ATOM     23  C   UNL     1      -0.450 -14.200  -1.398  0.00  0.00    +0.108 C 
ATOM     24  C   UNL     1      -0.163 -12.796  -1.939  0.00  0.00    +0.041 C 
ATOM     25  C   UNL     1       1.184 -16.069  -1.495  0.00  0.00    +0.102 A 
ATOM     26  C   UNL     1       0.729 -17.222  -0.863  0.00  0.00    -0.012 A 
ATOM     27  C   UNL     1       1.099 -18.456  -1.366  0.00  0.00    +0.008 A 
ATOM     28  C   UNL     1       1.915 -18.496  -2.490  0.00  0.00    +0.018 A 
ATOM     29  C   UNL     1       2.329 -17.313  -3.067  0.00  0.00    +0.084 A 
ATOM     30  N   UNL     1       1.956 -16.149  -2.567  0.00  0.00    -0.349 N 
ATOM     31  C   UNL     1      -0.154 -17.128   0.355  0.00  0.00    +0.047 C 
ATOM     32  H   UNL     1       2.259 -15.332  -2.995  0.00  0.00    +0.167 HD
ENDBRANCH  17  19
ENDBRANCH   5  15
BRANCH   1  33
ATOM     33  C   UNL     1       0.137  -4.256   0.047  0.00  0.00    +0.131 C 
BRANCH  33  38
ATOM     34  C   UNL     1       0.175   1.522   0.128  0.00  0.00    +0.044 C 
ATOM     35  C   UNL     1       0.165   0.015   0.107  0.00  0.00    -0.050 A 
ATOM     36  C   UNL     1       0.082  -0.659  -1.097  0.00  0.00    +0.003 A 
ATOM     37  C   UNL     1       0.073  -2.041  -1.116  0.00  0.00    +0.004 A 
ATOM     38  C   UNL     1       0.148  -2.749   0.068  0.00  0.00    -0.039 A 
ATOM     39  C   UNL     1       0.232  -2.075   1.272  0.00  0.00    +0.004 A 
ATOM     40  C   UNL     1       0.245  -0.693   1.292  0.00  0.00    +0.003 A 
ENDBRANCH  33  38
ENDBRANCH   1  33
TORSDOF 4
