REMARK  Name = ZINC24684894
REMARK  9 active torsions:
REMARK  status: ('A' for Active; 'I' for Inactive)
REMARK    1  A    between atoms: C_1  and  C_2
REMARK    2  A    between atoms: C_4  and  C_24
REMARK    3  A    between atoms: C_5  and  S_9
REMARK    4  A    between atoms: C_6  and  C_8
REMARK    5  A    between atoms: S_9  and  N_12
REMARK    6  A    between atoms: N_12  and  C_13
REMARK    7  A    between atoms: C_13  and  C_14
REMARK    8  A    between atoms: C_18  and  S_20
REMARK    9  A    between atoms: S_20  and  N_23
REMARK                            x       y       z     vdW  Elec       q    Type
REMARK                         _______ _______ _______ _____ _____    ______ ____
ROOT
ATOM      1  N   UNL     1      -3.288   1.019   0.822  0.00  0.00    -0.186 NA
ATOM      2  H   UNL     1      -2.289   1.131   1.268  0.00  0.00    +0.148 HD
ENDROOT
BRANCH   1   3
ATOM      3  S   UNL     1      -4.476   0.249   1.683  0.00  0.00    +0.059 S 
ATOM      4  O   UNL     1      -3.964   0.049   2.993  0.00  0.00    -0.153 OA
ATOM      5  O   UNL     1      -5.681   0.960   1.437  0.00  0.00    -0.153 OA
BRANCH   3  10
ATOM      6  C   UNL     1      -5.176  -5.227  -0.752  0.00  0.00    +0.044 C 
ATOM      7  C   UNL     1      -5.001  -3.859  -0.144  0.00  0.00    -0.050 A 
ATOM      8  C   UNL     1      -5.627  -2.765  -0.712  0.00  0.00    +0.008 A 
ATOM      9  C   UNL     1      -5.466  -1.511  -0.154  0.00  0.00    -0.024 A 
ATOM     10  C   UNL     1      -4.681  -1.350   0.972  0.00  0.00    +0.111 A 
ATOM     11  C   UNL     1      -4.051  -2.443   1.537  0.00  0.00    -0.024 A 
ATOM     12  C   UNL     1      -4.216  -3.699   0.982  0.00  0.00    +0.008 A 
ATOM     13  C   UNL     1      -3.190  -2.268   2.761  0.00  0.00    +0.046 C 
ATOM     14  C   UNL     1      -6.147  -0.318  -0.774  0.00  0.00    +0.046 C 
ENDBRANCH   3  10
ENDBRANCH   1   3
BRANCH   1  15
ATOM     15  C   UNL     1      -3.503   1.348  -0.589  0.00  0.00    +0.141 C 
BRANCH  15  16
ATOM     16  C   UNL     1      -2.464   2.345  -1.036  0.00  0.00    -0.030 A 
ATOM     17  C   UNL     1      -1.263   1.904  -1.560  0.00  0.00    +0.005 A 
ATOM     18  C   UNL     1      -0.313   2.819  -1.974  0.00  0.00    +0.002 A 
ATOM     19  C   UNL     1      -0.562   4.174  -1.860  0.00  0.00    +0.028 A 
ATOM     20  C   UNL     1      -1.761   4.614  -1.331  0.00  0.00    +0.105 A 
ATOM     21  C   UNL     1      -2.711   3.699  -0.916  0.00  0.00    +0.033 A 
BRANCH  20  22
ATOM     22  S   UNL     1      -2.078   6.341  -1.186  0.00  0.00    +0.056 S 
ATOM     23  O   UNL     1      -3.047   6.491  -0.158  0.00  0.00    -0.153 OA
ATOM     24  O   UNL     1      -0.812   6.984  -1.139  0.00  0.00    -0.153 OA
BRANCH  22  25
ATOM     25  N   UNL     1      -2.804   6.826  -2.594  0.00  0.00    -0.204 NA
ATOM     26  H   UNL     1      -3.019   7.904  -2.543  0.00  0.00    +0.144 HD
ATOM     27  H   UNL     1      -3.743   6.270  -2.733  0.00  0.00    +0.144 HD
ENDBRANCH  22  25
ENDBRANCH  20  22
ENDBRANCH  15  16
ENDBRANCH   1  15
TORSDOF 6
