REMARK  Name = ZINC36597697
REMARK  14 active torsions:
REMARK  status: ('A' for Active; 'I' for Inactive)
REMARK    1  A    between atoms: C_1  and  C_2
REMARK    2  A    between atoms: C_2  and  C_3
REMARK    3  A    between atoms: C_3  and  C_4
REMARK    4  A    between atoms: C_4  and  N_5
REMARK    5  A    between atoms: C_6  and  C_8
REMARK    6  A    between atoms: C_8  and  C_10
REMARK    7  A    between atoms: C_8  and  N_20
REMARK    8  A    between atoms: C_13  and  C_16
REMARK    9  A    between atoms: N_20  and  C_21
REMARK   10  A    between atoms: C_21  and  C_22
REMARK   11  A    between atoms: C_25  and  C_27
REMARK   12  A    between atoms: C_28  and  C_30
REMARK   13  A    between atoms: C_34  and  O_37
REMARK   14  A    between atoms: C_35  and  O_36
REMARK                            x       y       z     vdW  Elec       q    Type
REMARK                         _______ _______ _______ _____ _____    ______ ____
ROOT
ATOM      1  N   UNL     1       2.497  -6.767  -2.214  0.00  0.00    -0.275 N 
ATOM      2  C   UNL     1       1.253  -7.212  -2.481  0.00  0.00    +0.252 C 
ATOM      3  O   UNL     1       0.312  -6.816  -1.821  0.00  0.00    -0.270 OA
ENDROOT
BRANCH   2   4
ATOM      4  C   UNL     1       1.034  -8.178  -3.575  0.00  0.00    +0.082 A 
ATOM      5  C   UNL     1       1.142  -7.767  -4.907  0.00  0.00    +0.017 A 
ATOM      6  C   UNL     1       0.936  -8.672  -5.925  0.00  0.00    +0.005 A 
ATOM      7  C   UNL     1       0.623  -9.990  -5.637  0.00  0.00    +0.049 A 
ATOM      8  C   UNL     1       0.512 -10.412  -4.323  0.00  0.00    +0.159 A 
ATOM      9  C   UNL     1       0.722  -9.511  -3.283  0.00  0.00    +0.171 A 
BRANCH   9  10
ATOM     10  O   UNL     1       0.620  -9.921  -1.994  0.00  0.00    -0.503 OA
ATOM     11  H   UNL     1      -0.270  -9.840  -1.624  0.00  0.00    +0.292 HD
ENDBRANCH   9  10
BRANCH   8  12
ATOM     12  O   UNL     1       0.203 -11.707  -4.048  0.00  0.00    -0.503 OA
ATOM     13  H   UNL     1       0.973 -12.285  -3.961  0.00  0.00    +0.292 HD
ENDBRANCH   8  12
ENDBRANCH   2   4
BRANCH   1  14
ATOM     14  C   UNL     1       3.567  -6.949  -3.199  0.00  0.00    +0.193 C 
BRANCH  14  15
ATOM     15  C   UNL     1       3.987  -5.606  -3.739  0.00  0.00    -0.018 A 
ATOM     16  C   UNL     1       3.254  -4.476  -3.427  0.00  0.00    +0.006 A 
ATOM     17  C   UNL     1       3.639  -3.245  -3.922  0.00  0.00    +0.013 A 
ATOM     18  C   UNL     1       4.757  -3.143  -4.729  0.00  0.00    +0.055 A 
ATOM     19  C   UNL     1       5.490  -4.273  -5.040  0.00  0.00    +0.013 A 
ATOM     20  C   UNL     1       5.108  -5.504  -4.541  0.00  0.00    +0.006 A 
BRANCH  18  21
ATOM     21  C   UNL     1       5.176  -1.800  -5.270  0.00  0.00    +0.417 C 
ATOM     22  F   UNL     1       5.968  -1.142  -4.323  0.00  0.00    -0.166 F 
ATOM     23  F   UNL     1       5.911  -1.980  -6.447  0.00  0.00    -0.166 F 
ATOM     24  F   UNL     1       4.040  -1.032  -5.543  0.00  0.00    -0.166 F 
ENDBRANCH  18  21
ENDBRANCH  14  15
BRANCH  14  26
ATOM     25  N   UNL     1       5.439  -8.566  -3.201  0.00  0.00    -0.313 N 
ATOM     26  C   UNL     1       4.747  -7.617  -2.540  0.00  0.00    +0.238 C 
ATOM     27  O   UNL     1       5.073  -7.301  -1.416  0.00  0.00    -0.273 OA
ATOM     28  H   UNL     1       5.178  -8.819  -4.101  0.00  0.00    +0.149 HD
BRANCH  25  29
ATOM     29  C   UNL     1       6.586  -9.215  -2.561  0.00  0.00    +0.104 C 
BRANCH  29  30
ATOM     30  C   UNL     1       7.189 -10.245  -3.519  0.00  0.00    +0.018 C 
BRANCH  30  32
ATOM     31  C   UNL     1       8.990 -11.952  -3.808  0.00  0.00    +0.004 C 
ATOM     32  C   UNL     1       8.387 -10.923  -2.851  0.00  0.00    -0.002 C 
ENDBRANCH  30  32
ENDBRANCH  29  30
ENDBRANCH  25  29
ENDBRANCH  14  26
ENDBRANCH   1  14
BRANCH   1  33
ATOM     33  C   UNL     1       2.780  -6.102  -0.940  0.00  0.00    +0.183 C 
BRANCH  33  34
ATOM     34  C   UNL     1       2.747  -7.116   0.174  0.00  0.00    +0.122 A 
ATOM     35  C   UNL     1       3.737  -7.350   1.054  0.00  0.00    +0.046 A 
ATOM     36  C   UNL     1       3.284  -8.374   1.917  0.00  0.00    +0.045 A 
ATOM     37  C   UNL     1       2.044  -8.704   1.513  0.00  0.00    +0.102 A 
ATOM     38  O   UNL     1       1.722  -7.934   0.461  0.00  0.00    -0.463 OA
ATOM     39  C   UNL     1       1.163  -9.755   2.139  0.00  0.00    +0.086 C 
ENDBRANCH  33  34
ENDBRANCH   1  33
TORSDOF 12
