REMARK  Name = ZINC39970762
REMARK  10 active torsions:
REMARK  status: ('A' for Active; 'I' for Inactive)
REMARK    1  A    between atoms: C_1  and  C_2
REMARK    2  A    between atoms: C_7  and  C_36
REMARK    3  A    between atoms: N_9  and  S_10
REMARK    4  A    between atoms: S_10  and  C_13
REMARK    5  A    between atoms: C_16  and  N_19
REMARK    6  A    between atoms: N_19  and  C_20
REMARK    7  A    between atoms: C_20  and  N_22
REMARK    8  A    between atoms: N_25  and  C_28
REMARK    9  A    between atoms: C_28  and  C_29
REMARK   10  A    between atoms: C_29  and  C_30
REMARK                            x       y       z     vdW  Elec       q    Type
REMARK                         _______ _______ _______ _____ _____    ______ ____
ROOT
ATOM      1  N   UNL     1      -1.912   2.849   6.819  0.00  0.00    -0.297 N 
ATOM      2  H   UNL     1      -2.428   3.658   6.678  0.00  0.00    +0.154 HD
ENDROOT
BRANCH   1   6
ATOM      3  C   UNL     1       0.381   1.277   3.716  0.00  0.00    +0.106 A 
ATOM      4  C   UNL     1      -0.352   0.432   4.528  0.00  0.00    +0.030 A 
ATOM      5  C   UNL     1      -1.113   0.950   5.558  0.00  0.00    +0.025 A 
ATOM      6  C   UNL     1      -1.141   2.321   5.777  0.00  0.00    +0.033 A 
ATOM      7  C   UNL     1      -0.404   3.167   4.959  0.00  0.00    +0.025 A 
ATOM      8  C   UNL     1       0.360   2.642   3.935  0.00  0.00    +0.030 A 
BRANCH   3   9
ATOM      9  S   UNL     1       1.351   0.612   2.404  0.00  0.00    +0.061 S 
ATOM     10  O   UNL     1       1.674   1.699   1.547  0.00  0.00    -0.153 OA
ATOM     11  O   UNL     1       0.669  -0.546   1.941  0.00  0.00    -0.153 OA
BRANCH   9  18
ATOM     12  C   UNL     1       3.496   2.418   2.796  0.00  0.00    +0.026 C 
ATOM     13  C   UNL     1       3.862   1.039   3.348  0.00  0.00    +0.077 C 
ATOM     14  C   UNL     1       5.145   0.541   2.676  0.00  0.00    +0.020 C 
ATOM     15  C   UNL     1       5.430  -0.893   3.129  0.00  0.00    +0.003 C 
ATOM     16  C   UNL     1       4.276  -1.803   2.702  0.00  0.00    +0.020 C 
ATOM     17  C   UNL     1       2.983  -1.331   3.374  0.00  0.00    +0.077 C 
ATOM     18  N   UNL     1       2.777   0.090   3.064  0.00  0.00    -0.171 NA
ATOM     19  C   UNL     1       3.096  -1.515   4.889  0.00  0.00    +0.026 C 
ENDBRANCH   9  18
ENDBRANCH   3   9
ENDBRANCH   1   6
BRANCH   1  20
ATOM     20  C   UNL     1      -1.936   2.233   8.017  0.00  0.00    +0.137 C 
ATOM     21  S   UNL     1      -0.920   0.887   8.309  0.00  0.00    -0.018 S 
BRANCH  20  22
ATOM     22  N   UNL     1      -2.761   2.677   8.986  0.00  0.00    -0.316 N 
ATOM     23  C   UNL     1      -3.733   3.749   8.720  0.00  0.00    +0.088 C 
ATOM     24  C   UNL     1      -5.110   3.290   9.209  0.00  0.00    -0.060 C 
ATOM     25  N   UNL     1      -5.019   2.891  10.620  0.00  0.00    +0.382 N 
ATOM     26  C   UNL     1      -4.142   1.721  10.753  0.00  0.00    -0.060 C 
ATOM     27  C   UNL     1      -2.720   2.099  10.338  0.00  0.00    +0.088 C 
ATOM     28  H   UNL     1      -4.643   3.655  11.160  0.00  0.00    -0.082 HD
BRANCH  25  29
ATOM     29  C   UNL     1      -6.359   2.555  11.119  0.00  0.00    -0.074 C 
BRANCH  29  30
ATOM     30  C   UNL     1      -6.285   2.260  12.618  0.00  0.00    +0.016 C 
BRANCH  30  31
ATOM     31  C   UNL     1      -7.660   1.916  13.131  0.00  0.00    -0.049 A 
ATOM     32  C   UNL     1      -8.494   2.915  13.598  0.00  0.00    +0.003 A 
ATOM     33  C   UNL     1      -9.755   2.599  14.068  0.00  0.00    +0.000 A 
ATOM     34  C   UNL     1     -10.182   1.284  14.070  0.00  0.00    +0.000 A 
ATOM     35  C   UNL     1      -9.349   0.285  13.603  0.00  0.00    +0.000 A 
ATOM     36  C   UNL     1      -8.089   0.602  13.129  0.00  0.00    +0.003 A 
ENDBRANCH  30  31
ENDBRANCH  29  30
ENDBRANCH  25  29
ENDBRANCH  20  22
ENDBRANCH   1  20
TORSDOF 8
