REMARK  Name = ZINC09089303
REMARK  6 active torsions:
REMARK  status: ('A' for Active; 'I' for Inactive)
REMARK    1  A    between atoms: C_3  and  C_6
REMARK    2  A    between atoms: C_12  and  S_16
REMARK    3  A    between atoms: C_13  and  C_14
REMARK    4  A    between atoms: S_16  and  C_17
REMARK    5  A    between atoms: C_17  and  C_18
REMARK    6  A    between atoms: N_20  and  C_21
REMARK                            x       y       z     vdW  Elec       q    Type
REMARK                         _______ _______ _______ _____ _____    ______ ____
ROOT
ATOM      1  C   UNL     1      11.242  -1.054  -0.777  0.00  0.00    +0.106 C 
ATOM      2  C   UNL     1      10.975  -2.312   0.051  0.00  0.00    +0.112 C 
ATOM      3  C   UNL     1       9.594  -2.830  -0.250  0.00  0.00    +0.219 C 
ATOM      4  O   UNL     1       9.384  -4.024  -0.245  0.00  0.00    -0.275 OA
ATOM      5  N   UNL     1       8.590  -1.977  -0.518  0.00  0.00    -0.279 N 
ATOM      6  C   UNL     1       8.806  -0.615  -0.539  0.00  0.00    +0.082 C 
ATOM      7  C   UNL     1      10.068  -0.117  -0.659  0.00  0.00    +0.068 C 
ATOM      8  H   UNL     1       7.581  -2.362  -0.725  0.00  0.00    +0.155 HD
ENDROOT
BRANCH   1  11
ATOM      9  C   UNL     1      12.293  -1.725  -4.245  0.00  0.00    +0.041 A 
ATOM     10  C   UNL     1      12.542  -1.206  -2.954  0.00  0.00    +0.045 A 
ATOM     11  C   UNL     1      11.437  -1.435  -2.222  0.00  0.00    +0.113 A 
ATOM     12  O   UNL     1      10.539  -2.067  -2.996  0.00  0.00    -0.467 OA
ATOM     13  C   UNL     1      11.050  -2.240  -4.226  0.00  0.00    +0.195 A 
ENDBRANCH   1  11
BRANCH   7  14
ATOM     14  C   UNL     1      10.279   1.299  -0.674  0.00  0.00    +0.098 C 
ATOM     15  N   UNL     1      10.446   2.423  -0.686  0.00  0.00    -0.191 NA
ENDBRANCH   7  14
BRANCH   6  16
ATOM     16  S   UNL     1       7.440   0.490  -0.402  0.00  0.00    -0.100 S 
BRANCH  16  17
ATOM     17  C   UNL     1       6.084  -0.702  -0.275  0.00  0.00    +0.171 C 
BRANCH  17  18
ATOM     18  C   UNL     1       4.777   0.036  -0.145  0.00  0.00    +0.227 C 
ATOM     19  O   UNL     1       4.763   1.249  -0.139  0.00  0.00    -0.275 OA
ATOM     20  N   UNL     1       3.622  -0.651  -0.036  0.00  0.00    -0.285 N 
ATOM     21  H   UNL     1       3.641  -1.748   0.045  0.00  0.00    +0.155 HD
BRANCH  20  22
ATOM     22  C   UNL     1       2.399   0.031  -0.027  0.00  0.00    +0.034 A 
ATOM     23  C   UNL     1       2.247   1.194  -0.769  0.00  0.00    +0.026 A 
ATOM     24  C   UNL     1       1.040   1.865  -0.759  0.00  0.00    +0.040 A 
ATOM     25  C   UNL     1      -0.018   1.379  -0.008  0.00  0.00    +0.124 A 
ATOM     26  C   UNL     1       0.133   0.219   0.733  0.00  0.00    +0.040 A 
ATOM     27  C   UNL     1       1.338  -0.455   0.725  0.00  0.00    +0.026 A 
ATOM     28  F   UNL     1      -1.196   2.040   0.005  0.00  0.00    -0.205 F 
ENDBRANCH  20  22
ENDBRANCH  17  18
ENDBRANCH  16  17
ENDBRANCH   6  16
TORSDOF 6
