REMARK  Name = ZINC21530149
REMARK  6 active torsions:
REMARK  status: ('A' for Active; 'I' for Inactive)
REMARK    1  A    between atoms: C_11  and  C_28
REMARK    2  A    between atoms: C_14  and  C_16
REMARK    3  A    between atoms: C_16  and  O_17
REMARK    4  A    between atoms: O_17  and  C_18
REMARK    5  A    between atoms: C_18  and  C_20
REMARK    6  A    between atoms: C_25  and  N_26
REMARK                            x       y       z     vdW  Elec       q    Type
REMARK                         _______ _______ _______ _____ _____    ______ ____
ROOT
ATOM      1  C   UNL     1      -0.041   1.324  -0.006  0.00  0.00    +0.002 A 
ATOM      2  C   UNL     1       1.151   2.026   0.006  0.00  0.00    +0.002 A 
ATOM      3  C   UNL     1       2.357   1.349  -0.004  0.00  0.00    +0.025 A 
ATOM      4  C   UNL     1       2.371  -0.035  -0.032  0.00  0.00    +0.058 A 
ATOM      5  C   UNL     1       1.168  -0.742  -0.062  0.00  0.00    +0.055 A 
ATOM      6  C   UNL     1      -0.036  -0.058  -0.038  0.00  0.00    +0.025 A 
ATOM      7  N   UNL     1       1.198  -2.139  -0.146  0.00  0.00    -0.284 N 
ATOM      8  C   UNL     1       1.980  -2.858   0.687  0.00  0.00    +0.219 C 
ATOM      9  O   UNL     1       2.062  -4.061   0.549  0.00  0.00    -0.275 OA
ATOM     10  C   UNL     1       2.750  -2.177   1.787  0.00  0.00    +0.128 C 
ATOM     11  C   UNL     1       3.965  -1.452   1.207  0.00  0.00    +0.194 C 
ATOM     12  N   UNL     1       3.583  -0.739  -0.012  0.00  0.00    -0.255 N 
ATOM     13  C   UNL     1       4.382  -0.758  -1.097  0.00  0.00    +0.258 C 
ATOM     14  O   UNL     1       5.429  -1.371  -1.069  0.00  0.00    -0.271 OA
ATOM     15  H   UNL     1       0.653  -2.593  -0.808  0.00  0.00    +0.155 HD
ENDROOT
BRANCH  11  16
ATOM     16  C   UNL     1       4.498  -0.451   2.234  0.00  0.00    +0.409 C 
ATOM     17  F   UNL     1       4.872  -1.131   3.398  0.00  0.00    -0.169 F 
ATOM     18  F   UNL     1       5.609   0.213   1.705  0.00  0.00    -0.169 F 
ATOM     19  F   UNL     1       3.499   0.481   2.538  0.00  0.00    -0.169 F 
ENDBRANCH  11  16
BRANCH  13  20
ATOM     20  C   UNL     1       3.975  -0.020  -2.346  0.00  0.00    +0.328 C 
BRANCH  20  21
ATOM     21  O   UNL     1       4.979  -0.190  -3.349  0.00  0.00    -0.452 OA
BRANCH  21  22
ATOM     22  C   UNL     1       4.767   0.412  -4.536  0.00  0.00    +0.341 C 
ATOM     23  O   UNL     1       3.757   1.064  -4.715  0.00  0.00    -0.245 OA
BRANCH  22  24
ATOM     24  C   UNL     1       5.758   0.280  -5.615  0.00  0.00    +0.080 A 
ATOM     25  C   UNL     1       6.977  -0.364  -5.377  0.00  0.00    +0.019 A 
ATOM     26  C   UNL     1       7.900  -0.485  -6.390  0.00  0.00    +0.039 A 
ATOM     27  C   UNL     1       7.629   0.029  -7.652  0.00  0.00    +0.125 A 
ATOM     28  C   UNL     1       6.429   0.668  -7.903  0.00  0.00    +0.061 A 
ATOM     29  C   UNL     1       5.484   0.794  -6.893  0.00  0.00    +0.041 A 
ATOM     30  F   UNL     1       8.543  -0.095  -8.639  0.00  0.00    -0.205 F 
BRANCH  29  31
ATOM     31  N   UNL     1       4.276   1.431  -7.144  0.00  0.00    -0.357 N 
ATOM     32  H   UNL     1       3.653   1.592  -6.419  0.00  0.00    +0.142 HD
ATOM     33  H   UNL     1       4.055   1.714  -8.045  0.00  0.00    +0.142 HD
ENDBRANCH  29  31
ENDBRANCH  22  24
ENDBRANCH  21  22
ENDBRANCH  20  21
ENDBRANCH  13  20
TORSDOF 6
