REMARK  Name = ZINC28693951
REMARK  5 active torsions:
REMARK  status: ('A' for Active; 'I' for Inactive)
REMARK    1  A    between atoms: N_9  and  C_25
REMARK    2  A    between atoms: C_10  and  S_12
REMARK    3  A    between atoms: S_12  and  C_13
REMARK    4  A    between atoms: C_13  and  C_14
REMARK    5  A    between atoms: C_28  and  C_31
REMARK                            x       y       z     vdW  Elec       q    Type
REMARK                         _______ _______ _______ _____ _____    ______ ____
ROOT
ATOM      1  C   UNL     1       2.773 -10.744   0.650  0.00  0.00    +0.001 A 
ATOM      2  C   UNL     1       3.205  -9.877   1.646  0.00  0.00    +0.002 A 
ATOM      3  C   UNL     1       3.531  -8.582   1.358  0.00  0.00    +0.028 A 
ATOM      4  C   UNL     1       3.431  -8.119   0.042  0.00  0.00    +0.079 A 
ATOM      5  C   UNL     1       2.991  -9.004  -0.968  0.00  0.00    +0.065 A 
ATOM      6  C   UNL     1       2.664 -10.321  -0.646  0.00  0.00    +0.015 A 
ATOM      7  C   UNL     1       2.893  -8.495  -2.343  0.00  0.00    +0.267 A 
ATOM      8  O   UNL     1       2.521  -9.209  -3.255  0.00  0.00    -0.267 OA
ATOM      9  N   UNL     1       3.232  -7.202  -2.557  0.00  0.00    -0.255 N 
ATOM     10  C   UNL     1       3.649  -6.412  -1.520  0.00  0.00    +0.177 A 
ATOM     11  N   UNL     1       3.748  -6.846  -0.288  0.00  0.00    -0.223 NA
ENDROOT
BRANCH   9  12
ATOM     12  C   UNL     1       3.156  -6.670  -3.847  0.00  0.00    +0.052 A 
ATOM     13  C   UNL     1       4.259  -6.737  -4.691  0.00  0.00    +0.027 A 
ATOM     14  C   UNL     1       4.186  -6.219  -5.965  0.00  0.00    +0.021 A 
ATOM     15  C   UNL     1       3.005  -5.615  -6.405  0.00  0.00    +0.052 A 
ATOM     16  C   UNL     1       1.901  -5.545  -5.552  0.00  0.00    +0.021 A 
ATOM     17  C   UNL     1       1.979  -6.071  -4.282  0.00  0.00    +0.027 A 
BRANCH  15  18
ATOM     18  C   UNL     1       2.928  -5.069  -7.727  0.00  0.00    +0.099 C 
ATOM     19  N   UNL     1       2.866  -4.636  -8.775  0.00  0.00    -0.191 NA
ENDBRANCH  15  18
ENDBRANCH   9  12
BRANCH  10  20
ATOM     20  S   UNL     1       4.077  -4.738  -1.860  0.00  0.00    -0.079 S 
BRANCH  20  21
ATOM     21  C   UNL     1       4.536  -4.188  -0.198  0.00  0.00    +0.151 C 
BRANCH  21  22
ATOM     22  C   UNL     1       4.951  -2.740  -0.244  0.00  0.00    +0.122 A 
ATOM     23  N   UNL     1       4.010  -1.802  -0.064  0.00  0.00    -0.342 N 
ATOM     24  H   UNL     1       2.965  -2.099   0.112  0.00  0.00    +0.167 HD
ATOM     25  C   UNL     1       4.336  -0.444  -0.096  0.00  0.00    +0.060 A 
ATOM     26  C   UNL     1       3.500   0.660   0.070  0.00  0.00    +0.034 A 
ATOM     27  C   UNL     1       4.007   1.913   0.005  0.00  0.00    +0.048 A 
ATOM     28  S   UNL     1       5.741   1.615  -0.302  0.00  0.00    -0.090 S 
ATOM     29  C   UNL     1       5.687  -0.157  -0.325  0.00  0.00    +0.102 A 
ATOM     30  C   UNL     1       6.625  -1.179  -0.507  0.00  0.00    +0.288 A 
ATOM     31  O   UNL     1       7.801  -0.916  -0.707  0.00  0.00    -0.265 OA
ATOM     32  N   UNL     1       6.208  -2.462  -0.458  0.00  0.00    -0.194 NA
ENDBRANCH  21  22
ENDBRANCH  20  21
ENDBRANCH  10  20
TORSDOF 5
