REMARK  Name = ZINC09453950
REMARK  7 active torsions:
REMARK  status: ('A' for Active; 'I' for Inactive)
REMARK    1  A    between atoms: C_1  and  C_2
REMARK    2  A    between atoms: C_3  and  C_34
REMARK    3  A    between atoms: C_5  and  S_10
REMARK    4  A    between atoms: S_10  and  C_11
REMARK    5  A    between atoms: C_11  and  C_12
REMARK    6  A    between atoms: C_15  and  C_27
REMARK    7  A    between atoms: C_18  and  C_20
REMARK                            x       y       z     vdW  Elec       q    Type
REMARK                         _______ _______ _______ _____ _____    ______ ____
ROOT
ATOM      1  C   UNL     1      -2.168   4.848   0.039  0.00  0.00    +0.246 C 
ATOM      2  O   UNL     1      -3.294   4.396   0.042  0.00  0.00    -0.273 OA
ATOM      3  N   UNL     1      -1.978   6.182   0.045  0.00  0.00    -0.184 N 
ATOM      4  C   UNL     1      -3.041   7.199   0.050  0.00  0.00    +0.137 C 
ATOM      5  C   UNL     1      -2.267   8.532   0.059  0.00  0.00    +0.087 C 
ATOM      6  C   UNL     1      -0.815   8.110   0.050  0.00  0.00    +0.069 C 
ATOM      7  N   UNL     1      -0.741   6.824   0.042  0.00  0.00    -0.181 NA
ENDROOT
BRANCH   6   8
ATOM      8  C   UNL     1       0.338   9.029   0.048  0.00  0.00    -0.002 A 
ATOM      9  C   UNL     1       0.134  10.411   0.050  0.00  0.00    +0.011 A 
ATOM     10  C   UNL     1       1.217  11.265   0.055  0.00  0.00    +0.016 A 
ATOM     11  C   UNL     1       2.504  10.756   0.045  0.00  0.00    +0.018 A 
ATOM     12  C   UNL     1       2.713   9.387   0.037  0.00  0.00    +0.016 A 
ATOM     13  C   UNL     1       1.639   8.522   0.038  0.00  0.00    +0.011 A 
ATOM     14 BR   UNL     1       3.983  11.934   0.043  0.00  0.00    -0.050 Br
ENDBRANCH   6   8
BRANCH   4  15
ATOM     15  C   UNL     1      -3.890   7.085  -1.190  0.00  0.00    -0.025 A 
ATOM     16  C   UNL     1      -3.300   6.795  -2.407  0.00  0.00    +0.008 A 
ATOM     17  C   UNL     1      -4.078   6.684  -3.544  0.00  0.00    +0.038 A 
ATOM     18  C   UNL     1      -5.447   6.874  -3.466  0.00  0.00    +0.123 A 
ATOM     19  C   UNL     1      -6.036   7.169  -2.248  0.00  0.00    +0.038 A 
ATOM     20  C   UNL     1      -5.257   7.275  -1.112  0.00  0.00    +0.008 A 
ATOM     21  F   UNL     1      -6.208   6.771  -4.578  0.00  0.00    -0.205 F 
ENDBRANCH   4  15
BRANCH   1  22
ATOM     22  C   UNL     1      -0.983   3.918   0.028  0.00  0.00    +0.175 C 
BRANCH  22  23
ATOM     23  S   UNL     1      -1.562   2.203   0.021  0.00  0.00    -0.078 S 
BRANCH  23  28
ATOM     24  C   UNL     1       3.712  -0.595  -0.037  0.00  0.00    +0.051 C 
ATOM     25  C   UNL     1       2.372   0.093  -0.020  0.00  0.00    +0.035 A 
ATOM     26  C   UNL     1       2.292   1.456  -0.012  0.00  0.00    +0.049 A 
ATOM     27  N   UNL     1       1.104   2.055   0.003  0.00  0.00    -0.228 NA
ATOM     28  C   UNL     1      -0.016   1.358   0.009  0.00  0.00    +0.170 A 
ATOM     29  N   UNL     1       0.002  -0.004   0.002  0.00  0.00    -0.302 N 
ATOM     30  H   UNL     1      -0.830  -0.502   0.007  0.00  0.00    +0.171 HD
ATOM     31  C   UNL     1       1.183  -0.658  -0.013  0.00  0.00    +0.255 A 
ATOM     32  O   UNL     1       1.218  -1.878  -0.020  0.00  0.00    -0.267 OA
ATOM     33  C   UNL     1       3.551   2.283  -0.019  0.00  0.00    +0.066 C 
ENDBRANCH  23  28
ENDBRANCH  22  23
ENDBRANCH   1  22
TORSDOF 5
