REMARK  Name = ZINC06441852
REMARK  7 active torsions:
REMARK  status: ('A' for Active; 'I' for Inactive)
REMARK    1  A    between atoms: C_1  and  C_2
REMARK    2  A    between atoms: C_7  and  C_15
REMARK    3  A    between atoms: C_13  and  C_14
REMARK    4  A    between atoms: C_15  and  C_17
REMARK    5  A    between atoms: C_15  and  N_27
REMARK    6  A    between atoms: N_21  and  C_22
REMARK    7  A    between atoms: C_35  and  C_37
REMARK                            x       y       z     vdW  Elec       q    Type
REMARK                         _______ _______ _______ _____ _____    ______ ____
ROOT
ATOM      1  C   UNL     1       0.486   2.564   3.921  0.00  0.00    +0.179 C 
ENDROOT
BRANCH   1   8
ATOM      2  C   UNL     1       8.431   2.250   3.297  0.00  0.00    +0.044 C 
ATOM      3  C   UNL     1       6.941   2.467   3.243  0.00  0.00    -0.046 A 
ATOM      4  C   UNL     1       6.412   3.374   2.335  0.00  0.00    +0.004 A 
ATOM      5  C   UNL     1       5.064   3.586   2.270  0.00  0.00    +0.010 A 
ATOM      6  C   UNL     1       4.209   2.884   3.126  0.00  0.00    -0.001 A 
ATOM      7  C   UNL     1       2.760   3.087   3.084  0.00  0.00    +0.021 A 
ATOM      8  C   UNL     1       1.981   2.378   3.938  0.00  0.00    +0.045 A 
ATOM      9  C   UNL     1       2.567   1.471   4.848  0.00  0.00    +0.255 A 
ATOM     10  O   UNL     1       1.849   0.848   5.610  0.00  0.00    -0.268 OA
ATOM     11  N   UNL     1       3.896   1.274   4.890  0.00  0.00    -0.322 N 
ATOM     12  H   UNL     1       4.265   0.641   5.525  0.00  0.00    +0.169 HD
ATOM     13  C   UNL     1       4.742   1.964   4.048  0.00  0.00    +0.052 A 
ATOM     14  C   UNL     1       6.118   1.764   4.096  0.00  0.00    -0.024 A 
ATOM     15  C   UNL     1       6.707   0.784   5.077  0.00  0.00    +0.046 C 
ENDBRANCH   1   8
BRANCH   1  16
ATOM     16  N   UNL     1       0.020   2.915   5.269  0.00  0.00    -0.312 N 
ATOM     17  C   UNL     1       0.617   4.102   5.712  0.00  0.00    +0.034 A 
ATOM     18  C   UNL     1       1.927   4.555   5.564  0.00  0.00    +0.023 A 
ATOM     19  C   UNL     1       2.305   5.771   6.094  0.00  0.00    +0.002 A 
ATOM     20  C   UNL     1       1.388   6.550   6.775  0.00  0.00    +0.000 A 
ATOM     21  C   UNL     1       0.085   6.109   6.923  0.00  0.00    +0.005 A 
ATOM     22  C   UNL     1      -0.298   4.895   6.393  0.00  0.00    -0.025 A 
ATOM     23  C   UNL     1      -1.631   4.173   6.395  0.00  0.00    +0.059 C 
ATOM     24  C   UNL     1      -1.446   3.108   5.289  0.00  0.00    +0.076 C 
ATOM     25  C   UNL     1      -2.159   1.808   5.664  0.00  0.00    +0.028 C 
ENDBRANCH   1  16
BRANCH   1  26
ATOM     26  C   UNL     1      -0.174   1.282   3.479  0.00  0.00    +0.177 A 
ATOM     27  N   UNL     1      -0.325   0.194   4.194  0.00  0.00    -0.111 NA
ATOM     28  N   UNL     1      -0.930  -0.679   3.465  0.00  0.00    -0.023 NA
ATOM     29  N   UNL     1      -1.174  -0.174   2.306  0.00  0.00    -0.044 NA
ATOM     30  N   UNL     1      -0.726   1.035   2.277  0.00  0.00    -0.224 N 
BRANCH  30  31
ATOM     31  C   UNL     1      -0.799   1.963   1.146  0.00  0.00    +0.111 C 
ATOM     32  C   UNL     1      -0.059   1.386  -0.086  0.00  0.00    +0.027 C 
ATOM     33  C   UNL     1      -0.706   2.102  -1.290  0.00  0.00    +0.002 C 
ATOM     34  C   UNL     1      -2.104   2.555  -0.833  0.00  0.00    +0.002 C 
ATOM     35  C   UNL     1      -2.258   2.097   0.633  0.00  0.00    +0.027 C 
ENDBRANCH  30  31
ENDBRANCH   1  26
TORSDOF 4
