REMARK  Name = ZINC23653730
REMARK  8 active torsions:
REMARK  status: ('A' for Active; 'I' for Inactive)
REMARK    1  A    between atoms: C_1  and  C_2
REMARK    2  A    between atoms: C_7  and  C_9
REMARK    3  A    between atoms: C_7  and  C_10
REMARK    4  A    between atoms: N_13  and  C_17
REMARK    5  A    between atoms: C_17  and  C_18
REMARK    6  A    between atoms: N_23  and  C_26
REMARK    7  A    between atoms: C_26  and  C_27
REMARK    8  A    between atoms: C_28  and  C_29
REMARK                            x       y       z     vdW  Elec       q    Type
REMARK                         _______ _______ _______ _____ _____    ______ ____
ROOT
ATOM      1  C   UNL     1      -2.031  -4.134  -3.043  0.00  0.00    +0.213 C 
ENDROOT
BRANCH   1  13
ATOM      2  C   UNL     1      -0.019   1.528   0.010  0.00  0.00    +0.007 C 
ATOM      3  C   UNL     1       0.002  -0.004   0.002  0.00  0.00    -0.011 C 
ATOM      4  C   UNL     1      -1.435  -0.529   0.021  0.00  0.00    +0.038 C 
ATOM      5  C   UNL     1      -1.427  -2.050  -0.036  0.00  0.00    +0.113 C 
ATOM      6  C   UNL     1      -0.575  -2.676   1.049  0.00  0.00    +0.041 C 
ATOM      7  C   UNL     1       0.782  -2.031   1.270  0.00  0.00    -0.032 C 
ATOM      8  C   UNL     1       0.719  -0.508   1.253  0.00  0.00    +0.009 C 
ATOM      9  C   UNL     1       1.296  -2.464   2.661  0.00  0.00    +0.011 C 
ATOM     10  C   UNL     1       1.795  -2.526   0.234  0.00  0.00    +0.011 C 
ATOM     11  C   UNL     1      -1.044  -2.534  -1.413  0.00  0.00    +0.247 C 
ATOM     12  O   UNL     1      -0.058  -2.253  -2.060  0.00  0.00    -0.273 OA
ATOM     13  N   UNL     1      -2.050  -3.344  -1.810  0.00  0.00    -0.215 N 
ATOM     14  C   UNL     1      -3.063  -3.331  -0.937  0.00  0.00    +0.310 C 
ATOM     15  O   UNL     1      -4.088  -3.969  -1.082  0.00  0.00    -0.252 OA
ATOM     16  N   UNL     1      -2.817  -2.537   0.119  0.00  0.00    -0.285 N 
ATOM     17  H   UNL     1      -3.418  -2.318   0.845  0.00  0.00    +0.151 HD
ENDBRANCH   1  13
BRANCH   1  18
ATOM     18  C   UNL     1      -1.431  -5.488  -2.763  0.00  0.00    +0.234 C 
ATOM     19  O   UNL     1      -1.057  -5.765  -1.643  0.00  0.00    -0.274 OA
ATOM     20  N   UNL     1      -1.311  -6.390  -3.757  0.00  0.00    -0.298 N 
ATOM     21  C   UNL     1      -1.754  -6.073  -5.123  0.00  0.00    +0.123 C 
ATOM     22  C   UNL     1      -0.611  -6.394  -6.092  0.00  0.00    +0.103 C 
ATOM     23  N   UNL     1      -0.175  -7.782  -5.887  0.00  0.00    -0.296 NA
ATOM     24  C   UNL     1       0.368  -7.976  -4.536  0.00  0.00    +0.103 C 
ATOM     25  C   UNL     1      -0.729  -7.717  -3.505  0.00  0.00    +0.123 C 
BRANCH  23  26
ATOM     26  C   UNL     1       0.800  -8.184  -6.910  0.00  0.00    +0.111 C 
BRANCH  26  27
ATOM     27  C   UNL     1       1.037  -9.670  -6.821  0.00  0.00    -0.011 C 
ATOM     28  C   UNL     1       0.868 -10.433  -7.891  0.00  0.00    +0.005 C 
BRANCH  28  29
ATOM     29  C   UNL     1       1.100 -11.890  -7.804  0.00  0.00    -0.025 A 
ATOM     30  C   UNL     1       1.493 -12.466  -6.595  0.00  0.00    +0.008 A 
ATOM     31  C   UNL     1       1.708 -13.827  -6.520  0.00  0.00    +0.001 A 
ATOM     32  C   UNL     1       1.537 -14.620  -7.641  0.00  0.00    +0.000 A 
ATOM     33  C   UNL     1       1.148 -14.055  -8.842  0.00  0.00    +0.001 A 
ATOM     34  C   UNL     1       0.923 -12.697  -8.929  0.00  0.00    +0.008 A 
ENDBRANCH  28  29
ENDBRANCH  26  27
ENDBRANCH  23  26
ENDBRANCH   1  18
TORSDOF 5
