REMARK  Name = ZINC12745646
REMARK  13 active torsions:
REMARK  status: ('A' for Active; 'I' for Inactive)
REMARK    1  A    between atoms: C_1  and  C_2
REMARK    2  A    between atoms: C_2  and  C_3
REMARK    3  A    between atoms: C_8  and  N_9
REMARK    4  A    between atoms: C_10  and  C_12
REMARK    5  A    between atoms: C_12  and  N_13
REMARK    6  A    between atoms: N_13  and  C_14
REMARK    7  A    between atoms: N_13  and  S_26
REMARK    8  A    between atoms: C_14  and  C_15
REMARK    9  A    between atoms: N_17  and  C_18
REMARK   10  A    between atoms: C_23  and  C_24
REMARK   11  A    between atoms: C_24  and  C_25
REMARK   12  A    between atoms: S_26  and  C_29
REMARK   13  A    between atoms: C_32  and  C_35
REMARK                            x       y       z     vdW  Elec       q    Type
REMARK                         _______ _______ _______ _____ _____    ______ ____
ROOT
ATOM      1  N   UNL     1      -0.728   1.890  -1.387  0.00  0.00    -0.159 NA
ENDROOT
BRANCH   1   2
ATOM      2  S   UNL     1       0.175   1.487  -0.058  0.00  0.00    +0.062 S 
ATOM      3  O   UNL     1       0.203   0.068  -0.001  0.00  0.00    -0.153 OA
ATOM      4  O   UNL     1       1.359   2.270  -0.119  0.00  0.00    -0.153 OA
BRANCH   2   5
ATOM      5  C   UNL     1      -0.716   2.030   1.362  0.00  0.00    +0.106 A 
ATOM      6  C   UNL     1      -0.505   3.300   1.866  0.00  0.00    +0.029 A 
ATOM      7  C   UNL     1      -1.208   3.728   2.977  0.00  0.00    +0.005 A 
ATOM      8  C   UNL     1      -2.113   2.883   3.590  0.00  0.00    -0.050 A 
ATOM      9  C   UNL     1      -2.320   1.611   3.089  0.00  0.00    +0.005 A 
ATOM     10  C   UNL     1      -1.621   1.185   1.975  0.00  0.00    +0.029 A 
ATOM     11  C   UNL     1      -2.875   3.347   4.804  0.00  0.00    +0.044 C 
ENDBRANCH   2   5
ENDBRANCH   1   2
BRANCH   1  12
ATOM     12  C   UNL     1      -0.446   3.130  -2.114  0.00  0.00    +0.206 C 
BRANCH  12  14
ATOM     13  N   UNL     1       0.867   3.832  -4.089  0.00  0.00    -0.284 N 
ATOM     14  C   UNL     1       0.470   2.836  -3.273  0.00  0.00    +0.233 C 
ATOM     15  O   UNL     1       0.852   1.702  -3.472  0.00  0.00    -0.274 OA
ATOM     16  H   UNL     1       0.500   4.724  -3.980  0.00  0.00    +0.155 HD
BRANCH  13  22
ATOM     17  C   UNL     1       1.855   4.391  -6.221  0.00  0.00    -0.026 A 
ATOM     18  C   UNL     1       2.786   4.141  -7.211  0.00  0.00    +0.005 A 
ATOM     19  C   UNL     1       3.671   3.086  -7.079  0.00  0.00    +0.000 A 
ATOM     20  C   UNL     1       3.627   2.279  -5.957  0.00  0.00    +0.002 A 
ATOM     21  C   UNL     1       2.702   2.527  -4.962  0.00  0.00    +0.023 A 
ATOM     22  C   UNL     1       1.809   3.582  -5.094  0.00  0.00    +0.037 A 
BRANCH  17  24
ATOM     23  C   UNL     1       1.450   6.768  -5.642  0.00  0.00    +0.009 C 
ATOM     24  C   UNL     1       0.891   5.540  -6.365  0.00  0.00    +0.033 C 
ENDBRANCH  17  24
ENDBRANCH  13  22
ENDBRANCH  12  14
ENDBRANCH   1  12
BRANCH   1  25
ATOM     25  C   UNL     1      -1.807   1.007  -1.834  0.00  0.00    +0.206 C 
BRANCH  25  26
ATOM     26  C   UNL     1      -3.115   1.476  -1.250  0.00  0.00    +0.233 C 
ATOM     27  O   UNL     1      -3.142   2.453  -0.531  0.00  0.00    -0.274 OA
ATOM     28  N   UNL     1      -4.254   0.811  -1.527  0.00  0.00    -0.284 N 
ATOM     29  H   UNL     1      -4.223  -0.008  -2.045  0.00  0.00    +0.155 HD
BRANCH  28  30
ATOM     30  C   UNL     1      -5.481   1.303  -1.067  0.00  0.00    +0.037 A 
ATOM     31  C   UNL     1      -5.556   1.947   0.161  0.00  0.00    +0.023 A 
ATOM     32  C   UNL     1      -6.767   2.435   0.610  0.00  0.00    +0.002 A 
ATOM     33  C   UNL     1      -7.906   2.275  -0.158  0.00  0.00    +0.000 A 
ATOM     34  C   UNL     1      -7.835   1.631  -1.379  0.00  0.00    +0.005 A 
ATOM     35  C   UNL     1      -6.626   1.144  -1.836  0.00  0.00    -0.026 A 
BRANCH  35  36
ATOM     36  C   UNL     1      -6.550   0.440  -3.166  0.00  0.00    +0.033 C 
ATOM     37  C   UNL     1      -6.661  -1.071  -2.951  0.00  0.00    +0.009 C 
ENDBRANCH  35  36
ENDBRANCH  28  30
ENDBRANCH  25  26
ENDBRANCH   1  25
TORSDOF 10
