REMARK  Name = ZINC35070786
REMARK  6 active torsions:
REMARK  status: ('A' for Active; 'I' for Inactive)
REMARK    1  A    between atoms: C_1  and  C_2
REMARK    2  A    between atoms: C_5  and  S_8
REMARK    3  A    between atoms: S_8  and  N_11
REMARK    4  A    between atoms: N_14  and  C_17
REMARK    5  A    between atoms: C_17  and  C_19
REMARK    6  A    between atoms: C_17  and  C_20
REMARK                            x       y       z     vdW  Elec       q    Type
REMARK                         _______ _______ _______ _____ _____    ______ ____
ROOT
ATOM      1  N   UNL     1       1.605  -4.680  -0.261  0.00  0.00    -0.174 NA
ATOM      2  C   UNL     1       2.366  -4.856  -1.508  0.00  0.00    +0.125 C 
ATOM      3  C   UNL     1       3.727  -4.170  -1.348  0.00  0.00    +0.102 C 
ATOM      4  N   UNL     1       4.389  -4.679  -0.140  0.00  0.00    -0.290 NA
ATOM      5  C   UNL     1       3.622  -4.348   1.068  0.00  0.00    +0.102 C 
ATOM      6  C   UNL     1       2.259  -5.035   1.008  0.00  0.00    +0.125 C 
ENDROOT
BRANCH   1   7
ATOM      7  S   UNL     1       0.058  -4.092  -0.285  0.00  0.00    +0.061 S 
ATOM      8  O   UNL     1      -0.568  -4.547   0.907  0.00  0.00    -0.153 OA
ATOM      9  O   UNL     1      -0.465  -4.376  -1.576  0.00  0.00    -0.153 OA
BRANCH   7  14
ATOM     10  C   UNL     1       0.421   1.915   0.144  0.00  0.00    +0.044 C 
ATOM     11  C   UNL     1       0.330   0.415   0.037  0.00  0.00    -0.050 A 
ATOM     12  C   UNL     1       0.340  -0.191  -1.205  0.00  0.00    +0.005 A 
ATOM     13  C   UNL     1       0.257  -1.567  -1.304  0.00  0.00    +0.029 A 
ATOM     14  C   UNL     1       0.165  -2.338  -0.160  0.00  0.00    +0.105 A 
ATOM     15  C   UNL     1       0.156  -1.732   1.083  0.00  0.00    +0.029 A 
ATOM     16  C   UNL     1       0.244  -0.356   1.181  0.00  0.00    +0.005 A 
ENDBRANCH   7  14
ENDBRANCH   1   7
BRANCH   4  17
ATOM     17  C   UNL     1       5.766  -4.177  -0.043  0.00  0.00    +0.120 C 
ATOM     18  C   UNL     1       5.771  -2.660  -0.243  0.00  0.00    +0.032 C 
BRANCH  17  19
ATOM     19  C   UNL     1       6.614  -4.827  -1.107  0.00  0.00    +0.128 A 
ATOM     20  N   UNL     1       6.079  -5.768  -1.833  0.00  0.00    -0.194 NA
ATOM     21  C   UNL     1       6.772  -6.395  -2.803  0.00  0.00    +0.281 A 
ATOM     22  O   UNL     1       6.258  -7.274  -3.474  0.00  0.00    -0.265 OA
ATOM     23  C   UNL     1       8.170  -5.989  -3.030  0.00  0.00    +0.065 A 
ATOM     24  C   UNL     1       8.964  -6.581  -4.010  0.00  0.00    +0.017 A 
ATOM     25  C   UNL     1      10.255  -6.163  -4.177  0.00  0.00    +0.021 A 
ATOM     26  C   UNL     1      10.781  -5.156  -3.378  0.00  0.00    +0.043 A 
ATOM     27  C   UNL     1      10.011  -4.557  -2.401  0.00  0.00    +0.046 A 
ATOM     28  C   UNL     1       8.698  -4.968  -2.218  0.00  0.00    +0.054 A 
ATOM     29  N   UNL     1       7.880  -4.401  -1.260  0.00  0.00    -0.341 N 
ATOM     30 CL   UNL     1      12.424  -4.645  -3.609  0.00  0.00    -0.083 Cl
ATOM     31  H   UNL     1       8.223  -3.693  -0.693  0.00  0.00    +0.167 HD
ENDBRANCH  17  19
ENDBRANCH   4  17
TORSDOF 4
