REMARK  Name = ZINC42099518
REMARK  3 active torsions:
REMARK  status: ('A' for Active; 'I' for Inactive)
REMARK    1  A    between atoms: C_1  and  C_2
REMARK    2  A    between atoms: C_2  and  C_4
REMARK    3  A    between atoms: C_2  and  N_12
REMARK                            x       y       z     vdW  Elec       q    Type
REMARK                         _______ _______ _______ _____ _____    ______ ____
ROOT
ATOM      1  N   UNL     1       0.627  -0.499   1.231  0.00  0.00    -0.321 N 
ATOM      2  C   UNL     1      -0.146  -0.716   2.365  0.00  0.00    +0.142 A 
ATOM      3  C   UNL     1       0.463  -1.187   3.543  0.00  0.00    +0.049 A 
ATOM      4  C   UNL     1      -0.285  -1.402   4.659  0.00  0.00    +0.055 A 
ATOM      5  C   UNL     1      -1.667  -1.149   4.616  0.00  0.00    +0.200 A 
ATOM      6  N   UNL     1      -2.651  -1.252   5.500  0.00  0.00    -0.107 NA
ATOM      7  N   UNL     1      -3.765  -0.894   4.968  0.00  0.00    -0.021 NA
ATOM      8  N   UNL     1      -3.593  -0.543   3.738  0.00  0.00    -0.021 NA
ATOM      9  N   UNL     1      -2.230  -0.692   3.456  0.00  0.00    -0.108 N 
ATOM     10  N   UNL     1      -1.438  -0.475   2.328  0.00  0.00    -0.131 NA
ATOM     11  H   UNL     1       1.581  -0.675   1.253  0.00  0.00    +0.148 HD
ENDROOT
BRANCH   1  13
ATOM     12  C   UNL     1      -0.038   1.525   0.031  0.00  0.00    +0.033 C 
ATOM     13  C   UNL     1       0.002  -0.004   0.002  0.00  0.00    +0.102 C 
BRANCH  13  14
ATOM     14  C   UNL     1       0.803  -0.463  -1.189  0.00  0.00    +0.010 A 
ATOM     15  C   UNL     1       2.155  -0.715  -1.057  0.00  0.00    +0.046 A 
ATOM     16  C   UNL     1       2.891  -1.137  -2.151  0.00  0.00    +0.124 A 
ATOM     17  C   UNL     1       2.272  -1.307  -3.378  0.00  0.00    +0.041 A 
ATOM     18  C   UNL     1       0.919  -1.056  -3.510  0.00  0.00    +0.041 A 
ATOM     19  C   UNL     1       0.183  -0.638  -2.414  0.00  0.00    +0.128 A 
ATOM     20  F   UNL     1      -1.141  -0.397  -2.542  0.00  0.00    -0.205 F 
ATOM     21  F   UNL     1       4.213  -1.382  -2.022  0.00  0.00    -0.205 F 
ENDBRANCH  13  14
ENDBRANCH   1  13
TORSDOF 2
