REMARK  Name = ZINC33810157
REMARK  6 active torsions:
REMARK  status: ('A' for Active; 'I' for Inactive)
REMARK    1  A    between atoms: C_1  and  C_2
REMARK    2  A    between atoms: C_2  and  C_3
REMARK    3  A    between atoms: C_3  and  S_4
REMARK    4  A    between atoms: S_4  and  C_5
REMARK    5  A    between atoms: C_12  and  C_22
REMARK    6  A    between atoms: C_25  and  C_27
REMARK                            x       y       z     vdW  Elec       q    Type
REMARK                         _______ _______ _______ _____ _____    ______ ____
ROOT
ATOM      1  C   UNL     1      -4.548   2.497   3.527  0.00  0.00    +0.171 A 
ATOM      2  N   UNL     1      -4.821   3.113   2.343  0.00  0.00    -0.208 NA
ATOM      3  C   UNL     1      -4.197   2.700   1.195  0.00  0.00    +0.135 A 
ATOM      4  C   UNL     1      -3.304   1.676   1.254  0.00  0.00    +0.069 A 
ATOM      5  C   UNL     1      -3.052   1.062   2.499  0.00  0.00    +0.258 A 
ATOM      6  O   UNL     1      -2.257   0.137   2.579  0.00  0.00    -0.267 OA
ATOM      7  N   UNL     1      -3.689   1.501   3.596  0.00  0.00    -0.302 N 
ATOM      8  C   UNL     1      -2.594   1.202   0.020  0.00  0.00    +0.099 C 
ATOM      9  C   UNL     1      -3.305   1.659  -1.228  0.00  0.00    +0.024 C 
ATOM     10  C   UNL     1      -4.193   2.676  -1.188  0.00  0.00    +0.017 C 
ATOM     11  N   UNL     1      -4.474   3.309  -0.008  0.00  0.00    -0.302 N 
ATOM     12  C   UNL     1      -4.894   3.145  -2.439  0.00  0.00    +0.051 C 
ATOM     13  C   UNL     1      -5.078   1.966  -3.397  0.00  0.00    +0.014 C 
ATOM     14  C   UNL     1      -3.698   1.382  -3.719  0.00  0.00    +0.080 C 
ATOM     15  C   UNL     1      -3.019   0.995  -2.434  0.00  0.00    +0.162 C 
ATOM     16  O   UNL     1      -2.207   0.091  -2.438  0.00  0.00    -0.292 OA
ATOM     17  H   UNL     1      -4.925   4.312  -0.026  0.00  0.00    +0.153 HD
ATOM     18  H   UNL     1      -3.485   1.016   4.562  0.00  0.00    +0.171 HD
ENDROOT
BRANCH   8  19
ATOM     19  C   UNL     1      -1.190   1.748   0.017  0.00  0.00    +0.002 A 
ATOM     20  C   UNL     1      -0.013   1.076   0.008  0.00  0.00    +0.012 A 
ATOM     21  C   UNL     1       1.169   1.793   0.001  0.00  0.00    +0.011 A 
ATOM     22  C   UNL     1       1.115   3.148   0.008  0.00  0.00    -0.013 A 
ATOM     23  S   UNL     1      -0.644   3.448   0.027  0.00  0.00    -0.097 S 
ATOM     24  C   UNL     1       2.248   4.142   0.003  0.00  0.00    +0.051 C 
ENDBRANCH   8  19
BRANCH   1  25
ATOM     25  S   UNL     1      -5.361   3.041   4.993  0.00  0.00    -0.088 S 
BRANCH  25  26
ATOM     26  C   UNL     1      -4.635   1.901   6.197  0.00  0.00    +0.077 C 
BRANCH  26  28
ATOM     27  C   UNL     1      -4.593   1.229   8.603  0.00  0.00    +0.004 C 
ATOM     28  C   UNL     1      -5.207   2.193   7.585  0.00  0.00    +0.008 C 
ENDBRANCH  26  28
ENDBRANCH  25  26
ENDBRANCH   1  25
TORSDOF 4
