REMARK  Name = ZINC05885796
REMARK  3 active torsions:
REMARK  status: ('A' for Active; 'I' for Inactive)
REMARK    1  A    between atoms: C_1  and  C_2
REMARK    2  A    between atoms: C_6  and  C_7
REMARK    3  A    between atoms: C_15  and  C_19
REMARK                            x       y       z     vdW  Elec       q    Type
REMARK                         _______ _______ _______ _____ _____    ______ ____
ROOT
ATOM      1  C   UNL     1      -0.008  -0.240   2.480  0.00  0.00    +0.070 C 
ATOM      2  C   UNL     1       1.267  -0.748   3.161  0.00  0.00    +0.109 C 
ATOM      3  C   UNL     1       1.128  -2.188   3.568  0.00  0.00    +0.219 C 
ATOM      4  O   UNL     1       2.084  -2.926   3.452  0.00  0.00    -0.275 OA
ATOM      5  N   UNL     1      -0.026  -2.686   4.059  0.00  0.00    -0.270 N 
ATOM      6  C   UNL     1      -1.165  -1.883   4.002  0.00  0.00    +0.125 A 
ATOM      7  C   UNL     1      -1.195  -0.724   3.274  0.00  0.00    +0.028 A 
ATOM      8  C   UNL     1      -2.460  -0.151   3.425  0.00  0.00    +0.098 A 
ATOM      9  N   UNL     1      -3.176  -0.945   4.200  0.00  0.00    -0.172 NA
ATOM     10  N   UNL     1      -2.379  -2.045   4.564  0.00  0.00    -0.263 N 
ATOM     11  H   UNL     1      -2.654  -2.790   5.122  0.00  0.00    +0.190 HD
ATOM     12  H   UNL     1      -0.063  -3.578   4.439  0.00  0.00    +0.156 HD
ENDROOT
BRANCH   8  13
ATOM     13  C   UNL     1      -2.918   1.125   2.821  0.00  0.00    +0.003 A 
ATOM     14  C   UNL     1      -4.191   1.216   2.262  0.00  0.00    +0.011 A 
ATOM     15  C   UNL     1      -4.613   2.404   1.702  0.00  0.00    +0.020 A 
ATOM     16  C   UNL     1      -3.774   3.505   1.694  0.00  0.00    +0.041 A 
ATOM     17  C   UNL     1      -2.508   3.419   2.248  0.00  0.00    +0.020 A 
ATOM     18  C   UNL     1      -2.079   2.237   2.816  0.00  0.00    +0.011 A 
ATOM     19 CL   UNL     1      -4.310   4.997   0.988  0.00  0.00    -0.084 Cl
ENDBRANCH   8  13
BRANCH   1  25
ATOM     20  C   UNL     1      -0.130   1.405  -0.111  0.00  0.00    +0.044 C 
ATOM     21  C   UNL     1      -0.139  -0.102  -0.098  0.00  0.00    -0.040 A 
ATOM     22  C   UNL     1      -0.197  -0.814  -1.281  0.00  0.00    +0.011 A 
ATOM     23  C   UNL     1      -0.204  -2.168  -1.234  0.00  0.00    +0.046 A 
ATOM     24  S   UNL     1      -0.125  -2.477   0.523  0.00  0.00    -0.101 S 
ATOM     25  C   UNL     1      -0.084  -0.779   1.075  0.00  0.00    +0.001 A 
ENDBRANCH   1  25
TORSDOF 2
