REMARK  Name = ZINC39674198
REMARK  8 active torsions:
REMARK  status: ('A' for Active; 'I' for Inactive)
REMARK    1  A    between atoms: C_1  and  C_2
REMARK    2  A    between atoms: C_4  and  C_9
REMARK    3  A    between atoms: C_5  and  C_8
REMARK    4  A    between atoms: C_9  and  C_11
REMARK    5  A    between atoms: C_9  and  N_12
REMARK    6  A    between atoms: C_13  and  C_15
REMARK    7  A    between atoms: C_26  and  C_28
REMARK    8  A    between atoms: C_31  and  C_34
REMARK                            x       y       z     vdW  Elec       q    Type
REMARK                         _______ _______ _______ _____ _____    ______ ____
ROOT
ATOM      1  C   UNL     1      -2.907  -0.583  -4.466  0.00  0.00    +0.100 C 
ATOM      2  C   UNL     1      -2.106   0.446  -5.295  0.00  0.00    +0.121 C 
ATOM      3  N   UNL     1      -2.595   0.273  -6.683  0.00  0.00    -0.296 N 
ATOM      4  C   UNL     1      -4.054   0.054  -6.534  0.00  0.00    +0.115 C 
ATOM      5  C   UNL     1      -4.186  -0.837  -5.283  0.00  0.00    -0.004 C 
ATOM      6  C   UNL     1      -4.271  -2.306  -5.687  0.00  0.00    -0.010 C 
ATOM      7  C   UNL     1      -5.578  -2.545  -6.449  0.00  0.00    -0.082 C 
ATOM      8  N   UNL     1      -6.716  -2.185  -5.595  0.00  0.00    +0.379 N 
ATOM      9  C   UNL     1      -6.677  -0.750  -5.287  0.00  0.00    -0.082 C 
ATOM     10  C   UNL     1      -5.417  -0.435  -4.477  0.00  0.00    -0.010 C 
ATOM     11  C   UNL     1      -1.877   0.306  -7.823  0.00  0.00    +0.247 C 
ATOM     12  O   UNL     1      -0.665   0.382  -7.775  0.00  0.00    -0.270 OA
ATOM     13  H   UNL     1      -7.577  -2.401  -6.076  0.00  0.00    -0.086 HD
ATOM     14  H   UNL     1      -6.672  -2.713  -4.737  0.00  0.00    -0.086 HD
ENDROOT
BRANCH  11  15
ATOM     15  C   UNL     1      -2.563   0.250  -9.131  0.00  0.00    +0.037 A 
ATOM     16  C   UNL     1      -3.913   0.594  -9.230  0.00  0.00    +0.013 A 
ATOM     17  C   UNL     1      -4.547   0.540 -10.454  0.00  0.00    +0.013 A 
ATOM     18  C   UNL     1      -3.849   0.146 -11.582  0.00  0.00    +0.055 A 
ATOM     19  C   UNL     1      -2.511  -0.196 -11.490  0.00  0.00    +0.013 A 
ATOM     20  C   UNL     1      -1.863  -0.141 -10.274  0.00  0.00    +0.013 A 
BRANCH  18  21
ATOM     21  C   UNL     1      -4.548   0.089 -12.915  0.00  0.00    +0.417 C 
ATOM     22  F   UNL     1      -4.428   1.326 -13.558  0.00  0.00    -0.166 F 
ATOM     23  F   UNL     1      -3.964  -0.906 -13.706  0.00  0.00    -0.166 F 
ATOM     24  F   UNL     1      -5.902  -0.205 -12.720  0.00  0.00    -0.166 F 
ENDBRANCH  18  21
ENDBRANCH  11  15
BRANCH   1  26
ATOM     25  N   UNL     1      -3.500  -0.838  -2.079  0.00  0.00    -0.309 N 
ATOM     26  C   UNL     1      -3.253  -0.013  -3.115  0.00  0.00    +0.219 C 
ATOM     27  O   UNL     1      -3.308   1.189  -2.959  0.00  0.00    -0.275 OA
ATOM     28  H   UNL     1      -3.455  -1.799  -2.203  0.00  0.00    +0.149 HD
BRANCH  25  29
ATOM     29  C   UNL     1      -3.836  -0.284  -0.765  0.00  0.00    +0.100 C 
ATOM     30  C   UNL     1      -2.548   0.044  -0.006  0.00  0.00    +0.033 C 
BRANCH  29  33
ATOM     31  C   UNL     1      -2.996  -2.882   1.057  0.00  0.00    +0.039 C 
ATOM     32  C   UNL     1      -4.304  -2.754   0.274  0.00  0.00    +0.154 C 
ATOM     33  C   UNL     1      -4.636  -1.294   0.017  0.00  0.00    -0.001 C 
ATOM     34  C   UNL     1      -5.800  -1.114   0.644  0.00  0.00    +0.063 C 
ATOM     35  N   UNL     1      -6.208  -2.258   1.238  0.00  0.00    -0.159 NA
ATOM     36  N   UNL     1      -5.444  -3.219   1.084  0.00  0.00    -0.180 NA
ATOM     37  C   UNL     1      -6.557   0.188   0.686  0.00  0.00    +0.067 C 
ENDBRANCH  29  33
ENDBRANCH  25  29
ENDBRANCH   1  26
TORSDOF 5
