REMARK  Name = ZINC16056839
REMARK  9 active torsions:
REMARK  status: ('A' for Active; 'I' for Inactive)
REMARK    1  A    between atoms: C_1  and  C_2
REMARK    2  A    between atoms: C_2  and  C_3
REMARK    3  A    between atoms: C_3  and  N_4
REMARK    4  A    between atoms: C_14  and  S_15
REMARK    5  A    between atoms: S_15  and  C_16
REMARK    6  A    between atoms: C_16  and  C_18
REMARK    7  A    between atoms: C_16  and  C_19
REMARK    8  A    between atoms: C_31  and  C_32
REMARK    9  A    between atoms: C_31  and  C_33
REMARK                            x       y       z     vdW  Elec       q    Type
REMARK                         _______ _______ _______ _____ _____    ______ ____
ROOT
ATOM      1  C   UNL     1       3.898  -3.465  -0.219  0.00  0.00    +0.137 C 
ATOM      2  C   UNL     1       3.270  -3.910  -1.541  0.00  0.00    +0.029 C 
ENDROOT
BRANCH   1   3
ATOM      3  C   UNL     1       5.067  -2.556  -0.500  0.00  0.00    +0.234 C 
ATOM      4  O   UNL     1       5.040  -1.402  -0.129  0.00  0.00    -0.274 OA
ATOM      5  N   UNL     1       6.142  -3.026  -1.163  0.00  0.00    -0.255 N 
ATOM      6  C   UNL     1       7.149  -2.160  -1.617  0.00  0.00    +0.059 A 
ATOM      7  C   UNL     1       6.870  -0.850  -1.951  0.00  0.00    +0.025 A 
ATOM      8  C   UNL     1       7.886  -0.022  -2.394  0.00  0.00    +0.002 A 
ATOM      9  C   UNL     1       9.179  -0.502  -2.498  0.00  0.00    +0.002 A 
ATOM     10  C   UNL     1       9.467  -1.811  -2.159  0.00  0.00    +0.025 A 
ATOM     11  C   UNL     1       8.456  -2.647  -1.712  0.00  0.00    +0.055 A 
ATOM     12  N   UNL     1       8.728  -3.973  -1.359  0.00  0.00    -0.282 N 
ATOM     13  C   UNL     1       7.729  -4.860  -1.195  0.00  0.00    +0.241 C 
ATOM     14  O   UNL     1       7.985  -5.993  -0.845  0.00  0.00    -0.273 OA
ATOM     15  C   UNL     1       6.295  -4.463  -1.439  0.00  0.00    +0.113 C 
ATOM     16  C   UNL     1       5.377  -5.263  -0.513  0.00  0.00    +0.042 C 
ATOM     17  C   UNL     1       5.927  -4.745  -2.897  0.00  0.00    +0.042 C 
ATOM     18  H   UNL     1       9.647  -4.257  -1.231  0.00  0.00    +0.155 HD
ENDBRANCH   1   3
BRANCH   1  19
ATOM     19  S   UNL     1       2.666  -2.577   0.765  0.00  0.00    -0.075 S 
BRANCH  19  30
ATOM     20  N   UNL     1       0.403  -3.607   1.806  0.00  0.00    -0.287 N 
ATOM     21  C   UNL     1      -0.502  -4.579   2.066  0.00  0.00    +0.262 A 
ATOM     22  O   UNL     1      -1.499  -4.352   2.727  0.00  0.00    -0.267 OA
ATOM     23  C   UNL     1      -0.239  -5.915   1.517  0.00  0.00    +0.065 A 
ATOM     24  C   UNL     1      -1.112  -6.982   1.725  0.00  0.00    +0.015 A 
ATOM     25  C   UNL     1      -0.816  -8.208   1.195  0.00  0.00    +0.001 A 
ATOM     26  C   UNL     1       0.343  -8.400   0.454  0.00  0.00    +0.002 A 
ATOM     27  C   UNL     1       1.216  -7.372   0.236  0.00  0.00    +0.028 A 
ATOM     28  C   UNL     1       0.942  -6.107   0.764  0.00  0.00    +0.079 A 
ATOM     29  N   UNL     1       1.776  -5.066   0.573  0.00  0.00    -0.223 NA
ATOM     30  C   UNL     1       1.519  -3.880   1.067  0.00  0.00    +0.173 A 
BRANCH  20  31
ATOM     31  C   UNL     1       0.188  -2.254   2.325  0.00  0.00    +0.127 C 
BRANCH  31  33
ATOM     32  C   UNL     1      -0.825  -0.021   1.842  0.00  0.00    +0.005 C 
ATOM     33  C   UNL     1      -0.600  -1.434   1.300  0.00  0.00    +0.018 C 
ENDBRANCH  31  33
ENDBRANCH  20  31
ENDBRANCH  19  30
ENDBRANCH   1  19
TORSDOF 5
