REMARK  Name = ZINC66695711
REMARK  6 active torsions:
REMARK  status: ('A' for Active; 'I' for Inactive)
REMARK    1  A    between atoms: C_1  and  C_2
REMARK    2  A    between atoms: C_2  and  C_4
REMARK    3  A    between atoms: C_2  and  N_10
REMARK    4  A    between atoms: N_10  and  C_11
REMARK    5  A    between atoms: N_10  and  C_12
REMARK    6  A    between atoms: C_12  and  C_13
REMARK                            x       y       z     vdW  Elec       q    Type
REMARK                         _______ _______ _______ _____ _____    ______ ____
ROOT
ATOM      1  N   UNL     1       0.523  -0.531  -1.139  0.00  0.00    -0.289 NA
ATOM      2  C   UNL     1       0.361  -1.990  -1.201  0.00  0.00    +0.106 C 
ENDROOT
BRANCH   1   4
ATOM      3  C   UNL     1       0.388  -0.294   1.295  0.00  0.00    +0.034 C 
ATOM      4  C   UNL     1      -0.273   0.040  -0.044  0.00  0.00    +0.140 C 
BRANCH   4   5
ATOM      5  C   UNL     1      -0.348   1.537  -0.207  0.00  0.00    +0.237 C 
ATOM      6  O   UNL     1       0.353   2.094  -1.024  0.00  0.00    -0.274 OA
ATOM      7  N   UNL     1      -1.196   2.255   0.556  0.00  0.00    -0.239 N 
ATOM      8  C   UNL     1      -1.264   3.593   0.410  0.00  0.00    +0.303 C 
ATOM      9  O   UNL     1      -0.560   4.152  -0.408  0.00  0.00    -0.253 OA
ATOM     10  N   UNL     1      -2.111   4.312   1.173  0.00  0.00    -0.313 N 
ATOM     11  H   UNL     1      -1.757   1.809   1.209  0.00  0.00    +0.159 HD
ATOM     12  H   UNL     1      -2.672   3.866   1.827  0.00  0.00    +0.146 HD
ATOM     13  H   UNL     1      -2.160   5.275   1.068  0.00  0.00    +0.146 HD
ENDBRANCH   4   5
ENDBRANCH   1   4
BRANCH   1  14
ATOM     14  C   UNL     1       1.939  -0.164  -1.008  0.00  0.00    +0.147 C 
BRANCH  14  15
ATOM     15  C   UNL     1       2.678  -0.554  -2.263  0.00  0.00    +0.093 A 
ATOM     16  N   UNL     1       2.871   0.165  -3.330  0.00  0.00    -0.243 NA
ATOM     17  C   UNL     1       3.555  -0.300  -4.396  0.00  0.00    +0.079 A 
ATOM     18  C   UNL     1       3.858   0.329  -5.621  0.00  0.00    +0.029 A 
ATOM     19  C   UNL     1       4.570  -0.327  -6.578  0.00  0.00    +0.002 A 
ATOM     20  C   UNL     1       5.019  -1.627  -6.388  0.00  0.00    +0.001 A 
ATOM     21  C   UNL     1       4.742  -2.276  -5.199  0.00  0.00    +0.017 A 
ATOM     22  C   UNL     1       4.024  -1.622  -4.227  0.00  0.00    +0.039 A 
ATOM     23  S   UNL     1       3.444  -2.014  -2.598  0.00  0.00    -0.071 S 
ENDBRANCH  14  15
ENDBRANCH   1  14
TORSDOF 4
