REMARK  Name = ZINC09721350
REMARK  3 active torsions:
REMARK  status: ('A' for Active; 'I' for Inactive)
REMARK    1  A    between atoms: C_4  and  C_7
REMARK    2  A    between atoms: C_9  and  C_12
REMARK    3  A    between atoms: C_12  and  N_13
REMARK                            x       y       z     vdW  Elec       q    Type
REMARK                         _______ _______ _______ _____ _____    ______ ____
ROOT
ATOM      1  N   UNL     1       2.271  -2.097  -1.406  0.00  0.00    -0.218 N 
ATOM      2  C   UNL     1       1.404  -2.751  -2.210  0.00  0.00    +0.251 C 
ATOM      3  O   UNL     1       0.278  -3.111  -1.939  0.00  0.00    -0.272 OA
ATOM      4  C   UNL     1       2.134  -2.934  -3.515  0.00  0.00    +0.138 C 
ATOM      5  C   UNL     1       1.389  -2.257  -4.672  0.00  0.00    +0.045 C 
ATOM      6  C   UNL     1       0.579  -3.430  -5.269  0.00  0.00    +0.038 C 
ATOM      7  C   UNL     1       1.354  -4.677  -4.899  0.00  0.00    -0.042 A 
ATOM      8  C   UNL     1       2.250  -4.388  -3.882  0.00  0.00    -0.012 A 
ATOM      9  C   UNL     1       3.064  -5.390  -3.381  0.00  0.00    +0.006 A 
ATOM     10  C   UNL     1       2.989  -6.671  -3.891  0.00  0.00    +0.000 A 
ATOM     11  C   UNL     1       2.096  -6.958  -4.906  0.00  0.00    +0.000 A 
ATOM     12  C   UNL     1       1.281  -5.962  -5.408  0.00  0.00    +0.004 A 
ATOM     13  N   UNL     1       3.445  -2.323  -3.293  0.00  0.00    -0.281 N 
ATOM     14  C   UNL     1       3.434  -1.858  -2.027  0.00  0.00    +0.310 C 
ATOM     15  O   UNL     1       4.373  -1.288  -1.508  0.00  0.00    -0.252 OA
ATOM     16  H   UNL     1       4.175  -2.264  -3.928  0.00  0.00    +0.152 HD
ENDROOT
BRANCH   1  17
ATOM     17  C   UNL     1       1.979  -1.705  -0.025  0.00  0.00    +0.176 C 
BRANCH  17  20
ATOM     18  C   UNL     1      -0.017   1.364   0.009  0.00  0.00    +0.168 A 
ATOM     19  C   UNL     1       0.002  -0.004   0.002  0.00  0.00    +0.077 A 
ATOM     20  C   UNL     1       1.375  -0.324  -0.013  0.00  0.00    +0.102 A 
ATOM     21  N   UNL     1       2.021   0.808  -0.013  0.00  0.00    -0.081 NA
ATOM     22  O   UNL     1       1.270   1.756  -0.001  0.00  0.00    -0.354 OA
BRANCH  18  26
ATOM     23  C   UNL     1      -3.446   3.870   0.040  0.00  0.00    +0.000 A 
ATOM     24  C   UNL     1      -2.182   4.432   0.036  0.00  0.00    +0.001 A 
ATOM     25  C   UNL     1      -1.064   3.624   0.027  0.00  0.00    +0.011 A 
ATOM     26  C   UNL     1      -1.210   2.236   0.020  0.00  0.00    +0.020 A 
ATOM     27  C   UNL     1      -2.488   1.675   0.018  0.00  0.00    +0.011 A 
ATOM     28  C   UNL     1      -3.598   2.494   0.033  0.00  0.00    +0.001 A 
ENDBRANCH  18  26
ENDBRANCH  17  20
ENDBRANCH   1  17
TORSDOF 3
