REMARK  Name = ZINC00209227
REMARK  4 active torsions:
REMARK  status: ('A' for Active; 'I' for Inactive)
REMARK    1  A    between atoms: C_1  and  C_2
REMARK    2  A    between atoms: C_2  and  N_3
REMARK    3  A    between atoms: C_10  and  C_20
REMARK    4  A    between atoms: C_12  and  C_19
REMARK                            x       y       z     vdW  Elec       q    Type
REMARK                         _______ _______ _______ _____ _____    ______ ____
ROOT
ATOM      1  N   UNL     1       0.913  -0.713   0.580  0.00  0.00    -0.289 N 
ATOM      2  C   UNL     1       1.915  -0.042   1.404  0.00  0.00    +0.204 C 
ATOM      3  C   UNL     1       2.800   0.820   0.555  0.00  0.00    +0.235 C 
ATOM      4  O   UNL     1       3.962   0.498   0.426  0.00  0.00    -0.274 OA
ATOM      5  N   UNL     1       2.379   1.919  -0.063  0.00  0.00    -0.283 N 
ATOM      6  C   UNL     1       1.036   2.334  -0.049  0.00  0.00    +0.062 A 
ATOM      7  C   UNL     1       0.691   3.761  -0.013  0.00  0.00    +0.033 A 
ATOM      8  C   UNL     1       1.579   4.865   0.008  0.00  0.00    -0.037 A 
ATOM      9  C   UNL     1       1.057   6.137   0.044  0.00  0.00    +0.027 A 
ATOM     10  C   UNL     1      -0.316   6.331   0.057  0.00  0.00    +0.040 A 
ATOM     11  N   UNL     1      -1.138   5.300   0.036  0.00  0.00    -0.245 NA
ATOM     12  C   UNL     1      -0.685   4.065   0.003  0.00  0.00    +0.111 A 
ATOM     13  S   UNL     1      -1.470   2.473  -0.037  0.00  0.00    -0.062 S 
ATOM     14  C   UNL     1      -0.018   1.448  -0.066  0.00  0.00    +0.098 A 
ATOM     15  C   UNL     1       0.001  -0.003  -0.104  0.00  0.00    +0.256 C 
ATOM     16  O   UNL     1      -0.830  -0.590  -0.771  0.00  0.00    -0.269 OA
ATOM     17  C   UNL     1      -0.873   7.731   0.096  0.00  0.00    +0.065 C 
ATOM     18  C   UNL     1       3.071   4.649  -0.007  0.00  0.00    +0.044 C 
ATOM     19  H   UNL     1       3.026   2.458  -0.545  0.00  0.00    +0.155 HD
ENDROOT
BRANCH   1  21
ATOM     20  C   UNL     1       1.792  -2.628  -0.662  0.00  0.00    +0.024 C 
ATOM     21  C   UNL     1       0.903  -2.176   0.498  0.00  0.00    +0.105 C 
ENDBRANCH   1  21
TORSDOF 1
