REMARK  Name = ZINC66926163
REMARK  5 active torsions:
REMARK  status: ('A' for Active; 'I' for Inactive)
REMARK    1  A    between atoms: C_2  and  C_10
REMARK    2  A    between atoms: C_10  and  N_11
REMARK    3  A    between atoms: C_17  and  N_20
REMARK    4  A    between atoms: C_21  and  C_23
REMARK    5  A    between atoms: C_23  and  C_24
REMARK                            x       y       z     vdW  Elec       q    Type
REMARK                         _______ _______ _______ _____ _____    ______ ____
ROOT
ATOM      1  N   UNL     1       2.657   5.723   0.606  0.00  0.00    -0.294 N 
ATOM      2  C   UNL     1       2.473   4.860   1.625  0.00  0.00    +0.303 C 
ATOM      3  O   UNL     1       1.987   3.765   1.413  0.00  0.00    -0.253 OA
ATOM      4  N   UNL     1       2.827   5.209   2.877  0.00  0.00    -0.286 N 
ATOM      5  C   UNL     1       2.741   4.240   3.978  0.00  0.00    +0.111 C 
ATOM      6  C   UNL     1       4.101   4.169   4.680  0.00  0.00    +0.041 C 
ATOM      7  C   UNL     1       4.520   5.576   5.113  0.00  0.00    +0.076 C 
ATOM      8  C   UNL     1       4.660   6.471   3.880  0.00  0.00    +0.041 C 
ATOM      9  C   UNL     1       3.312   6.566   3.167  0.00  0.00    +0.111 C 
ATOM     10  H   UNL     1       2.976   6.622   0.784  0.00  0.00    +0.151 HD
ENDROOT
BRANCH   7  11
ATOM     11  N   UNL     1       5.805   5.508   5.814  0.00  0.00    -0.312 N 
ATOM     12  C   UNL     1       6.138   6.464   6.704  0.00  0.00    +0.214 C 
ATOM     13  O   UNL     1       5.375   7.380   6.924  0.00  0.00    -0.276 OA
ATOM     14  H   UNL     1       6.415   4.774   5.639  0.00  0.00    +0.149 HD
BRANCH  12  15
ATOM     15  C   UNL     1       7.459   6.394   7.426  0.00  0.00    +0.099 C 
BRANCH  15  16
ATOM     16  C   UNL     1       7.589   7.590   8.370  0.00  0.00    -0.002 C 
ATOM     17  C   UNL     1       7.715   8.895   7.556  0.00  0.00    +0.004 C 
ATOM     18  C   UNL     1       8.719   9.752   8.366  0.00  0.00    +0.000 C 
ATOM     19  C   UNL     1       9.739   8.700   8.869  0.00  0.00    +0.000 C 
ATOM     20  C   UNL     1       8.875   7.466   9.205  0.00  0.00    +0.004 C 
ENDBRANCH  15  16
ENDBRANCH  12  15
ENDBRANCH   7  11
BRANCH   1  21
ATOM     21  C   UNL     1       2.377   5.304  -0.769  0.00  0.00    +0.160 C 
BRANCH  21  23
ATOM     22  C   UNL     1       3.813   6.650  -2.383  0.00  0.00    +0.110 A 
ATOM     23  C   UNL     1       2.662   6.447  -1.710  0.00  0.00    +0.051 A 
ATOM     24  N   UNL     1       1.814   7.439  -2.025  0.00  0.00    -0.346 N 
ATOM     25  C   UNL     1       2.394   8.247  -2.864  0.00  0.00    +0.087 A 
ATOM     26  N   UNL     1       3.643   7.788  -3.114  0.00  0.00    -0.336 N 
ATOM     27  C   UNL     1       4.606   8.429  -4.012  0.00  0.00    +0.123 C 
ATOM     28  C   UNL     1       3.856   9.409  -4.921  0.00  0.00    +0.022 C 
ATOM     29  C   UNL     1       2.969  10.321  -4.069  0.00  0.00    +0.009 C 
ATOM     30  C   UNL     1       1.815   9.498  -3.482  0.00  0.00    +0.072 C 
ATOM     31  H   UNL     1       0.913   7.539  -1.681  0.00  0.00    +0.167 HD
ENDBRANCH  21  23
ENDBRANCH   1  21
TORSDOF 5
