REMARK  Name = ZINC39523451
REMARK  7 active torsions:
REMARK  status: ('A' for Active; 'I' for Inactive)
REMARK    1  A    between atoms: C_1  and  C_2
REMARK    2  A    between atoms: C_2  and  C_3
REMARK    3  A    between atoms: C_2  and  S_4
REMARK    4  A    between atoms: S_4  and  C_7
REMARK    5  A    between atoms: N_13  and  O_14
REMARK    6  A    between atoms: C_18  and  C_21
REMARK    7  A    between atoms: C_26  and  O_27
REMARK                            x       y       z     vdW  Elec       q    Type
REMARK                         _______ _______ _______ _____ _____    ______ ____
ROOT
ATOM      1  C   UNL     1      -1.747  -2.776   0.225  0.00  0.00    +0.225 C 
ATOM      2  C   UNL     1      -3.106  -3.447   0.012  0.00  0.00    +0.044 C 
ATOM      3  C   UNL     1      -2.903  -4.956  -0.155  0.00  0.00    +0.005 C 
ATOM      4  C   UNL     1      -1.958  -5.209  -1.333  0.00  0.00    +0.025 C 
ATOM      5  C   UNL     1      -0.632  -4.486  -1.082  0.00  0.00    +0.049 C 
ATOM      6  N   UNL     1      -0.880  -3.047  -0.929  0.00  0.00    -0.161 NA
ATOM      7  C   UNL     1       0.306  -4.720  -2.267  0.00  0.00    +0.025 C 
ATOM      8  C   UNL     1       1.634  -4.002  -2.017  0.00  0.00    +0.002 C 
ATOM      9  C   UNL     1       2.278  -4.550  -0.742  0.00  0.00    +0.008 C 
ATOM     10  C   UNL     1       1.339  -4.315   0.444  0.00  0.00    +0.024 C 
ATOM     11  C   UNL     1       0.012  -5.033   0.194  0.00  0.00    +0.033 C 
ENDROOT
BRANCH  10  12
ATOM     12  C   UNL     1       1.973  -4.854   1.700  0.00  0.00    -0.003 A 
ATOM     13  C   UNL     1       2.274  -6.199   1.801  0.00  0.00    +0.007 A 
ATOM     14  C   UNL     1       2.855  -6.694   2.954  0.00  0.00    +0.001 A 
ATOM     15  C   UNL     1       3.137  -5.846   4.008  0.00  0.00    +0.004 A 
ATOM     16  C   UNL     1       2.838  -4.500   3.913  0.00  0.00    +0.046 A 
ATOM     17  C   UNL     1       2.260  -4.000   2.755  0.00  0.00    +0.120 A 
BRANCH  17  18
ATOM     18  O   UNL     1       1.970  -2.676   2.656  0.00  0.00    -0.506 OA
ATOM     19  H   UNL     1       1.121  -2.429   3.046  0.00  0.00    +0.292 HD
ENDBRANCH  17  18
ENDBRANCH  10  12
BRANCH   1  20
ATOM     20  S   UNL     1      -1.979  -0.986   0.400  0.00  0.00    -0.011 S 
ATOM     21  O   UNL     1      -3.168  -0.756   1.142  0.00  0.00    -0.173 OA
ATOM     22  O   UNL     1      -1.837  -0.387  -0.881  0.00  0.00    -0.173 OA
BRANCH  20  24
ATOM     23  C   UNL     1      -0.543   1.026   1.572  0.00  0.00    +0.031 C 
ATOM     24  C   UNL     1      -0.562  -0.496   1.421  0.00  0.00    +0.126 C 
ATOM     25  C   UNL     1      -0.681  -1.144   2.802  0.00  0.00    +0.031 C 
ENDBRANCH  20  24
ENDBRANCH   1  20
BRANCH   6  26
ATOM     26  O   UNL     1       0.378  -2.307  -0.824  0.00  0.00    -0.310 OA
ATOM     27  H   UNL     1       0.283  -1.352  -0.939  0.00  0.00    +0.237 HD
ENDBRANCH   6  26
TORSDOF 5
