REMARK  Name = ZINC13096481
REMARK  7 active torsions:
REMARK  status: ('A' for Active; 'I' for Inactive)
REMARK    1  A    between atoms: C_1  and  N_2
REMARK    2  A    between atoms: N_2  and  C_3
REMARK    3  A    between atoms: C_11  and  C_13
REMARK    4  A    between atoms: C_13  and  O_14
REMARK    5  A    between atoms: O_14  and  C_15
REMARK    6  A    between atoms: C_15  and  C_17
REMARK    7  A    between atoms: C_31  and  C_32
REMARK                            x       y       z     vdW  Elec       q    Type
REMARK                         _______ _______ _______ _____ _____    ______ ____
ROOT
ATOM      1  C   UNL     1       1.413  -1.771   0.837  0.00  0.00    +0.073 A 
ATOM      2  C   UNL     1       1.385  -0.337   0.545  0.00  0.00    +0.015 A 
ATOM      3  C   UNL     1       0.200   0.401   0.617  0.00  0.00    +0.011 A 
ATOM      4  C   UNL     1       0.219   1.737   0.341  0.00  0.00    +0.001 A 
ATOM      5  C   UNL     1       1.405   2.375  -0.013  0.00  0.00    +0.002 A 
ATOM      6  C   UNL     1       2.576   1.686  -0.094  0.00  0.00    +0.028 A 
ATOM      7  C   UNL     1       2.595   0.306   0.184  0.00  0.00    +0.072 A 
ATOM      8  N   UNL     1       3.726  -0.395   0.112  0.00  0.00    -0.247 NA
ATOM      9  C   UNL     1       3.778  -1.693   0.370  0.00  0.00    +0.072 A 
ATOM     10  C   UNL     1       2.634  -2.424   0.742  0.00  0.00    -0.007 A 
ATOM     11  C   UNL     1       2.696  -3.895   1.048  0.00  0.00    +0.038 C 
ATOM     12  C   UNL     1       3.912  -4.545   0.394  0.00  0.00    +0.009 C 
ATOM     13  C   UNL     1       5.179  -3.789   0.815  0.00  0.00    +0.037 C 
ATOM     14  C   UNL     1       5.078  -2.386   0.258  0.00  0.00    -0.021 C 
ATOM     15  C   UNL     1       6.140  -1.787  -0.322  0.00  0.00    +0.020 C 
ENDROOT
BRANCH  15  16
ATOM     16  C   UNL     1       7.465  -2.401  -0.232  0.00  0.00    +0.013 A 
ATOM     17  C   UNL     1       8.643  -2.034  -0.864  0.00  0.00    +0.015 A 
ATOM     18  C   UNL     1       9.774  -2.775  -0.618  0.00  0.00    +0.008 A 
ATOM     19  C   UNL     1       9.703  -3.836   0.230  0.00  0.00    +0.046 A 
ATOM     20  S   UNL     1       7.989  -3.814   0.726  0.00  0.00    -0.097 S 
ENDBRANCH  15  16
BRANCH   1  21
ATOM     21  C   UNL     1       0.184  -2.498   1.218  0.00  0.00    +0.341 C 
ATOM     22  O   UNL     1      -0.511  -3.007   0.361  0.00  0.00    -0.245 OA
BRANCH  21  23
ATOM     23  O   UNL     1      -0.165  -2.597   2.515  0.00  0.00    -0.452 OA
BRANCH  23  24
ATOM     24  C   UNL     1      -1.384  -3.326   2.816  0.00  0.00    +0.328 C 
BRANCH  24  27
ATOM     25  C   UNL     1      -3.643  -4.625   3.932  0.00  0.00    +0.132 C 
ATOM     26  N   UNL     1      -2.691  -3.954   4.820  0.00  0.00    -0.297 N 
ATOM     27  C   UNL     1      -1.612  -3.332   4.306  0.00  0.00    +0.253 C 
ATOM     28  O   UNL     1      -0.824  -2.776   5.042  0.00  0.00    -0.272 OA
BRANCH  26  29
ATOM     29  C   UNL     1      -2.912  -3.960   6.269  0.00  0.00    +0.098 C 
ATOM     30  C   UNL     1      -2.970  -5.409   6.779  0.00  0.00    +0.046 C 
ATOM     31  C   UNL     1      -3.516  -5.436   8.227  0.00  0.00    +0.168 C 
ATOM     32  S   UNL     1      -4.584  -3.941   8.285  0.00  0.00    -0.029 S 
ATOM     33  O   UNL     1      -4.058  -3.033   9.244  0.00  0.00    -0.174 OA
ATOM     34  O   UNL     1      -5.943  -4.346   8.377  0.00  0.00    -0.174 OA
ATOM     35  C   UNL     1      -4.270  -3.276   6.595  0.00  0.00    +0.188 C 
ENDBRANCH  26  29
ENDBRANCH  24  27
ENDBRANCH  23  24
ENDBRANCH  21  23
ENDBRANCH   1  21
TORSDOF 6
