REMARK  Name = ZINC01050580
REMARK  5 active torsions:
REMARK  status: ('A' for Active; 'I' for Inactive)
REMARK    1  A    between atoms: C_1  and  C_2
REMARK    2  A    between atoms: C_2  and  O_3
REMARK    3  A    between atoms: O_3  and  C_4
REMARK    4  A    between atoms: C_7  and  C_10
REMARK    5  A    between atoms: C_15  and  C_21
REMARK                            x       y       z     vdW  Elec       q    Type
REMARK                         _______ _______ _______ _____ _____    ______ ____
ROOT
ATOM      1  C   UNL     1      -1.229   1.666   0.017  0.00  0.00    +0.070 C 
ATOM      2  C   UNL     1      -1.236   2.998   0.030  0.00  0.00    +0.110 C 
ATOM      3  N   UNL     1      -0.017   3.736   0.022  0.00  0.00    -0.222 N 
ATOM      4  C   UNL     1       0.059   5.077   0.029  0.00  0.00    +0.238 C 
ATOM      5  O   UNL     1      -0.941   5.766   0.043  0.00  0.00    -0.274 OA
ATOM      6  C   UNL     1       1.439   5.695   0.019  0.00  0.00    +0.138 C 
ATOM      7  S   UNL     1       2.482   4.185   0.001  0.00  0.00    -0.076 S 
ATOM      8  C   UNL     1       1.166   2.985   0.007  0.00  0.00    +0.185 C 
ATOM      9  N   UNL     1       1.185   1.697  -0.000  0.00  0.00    -0.159 NA
ATOM     10  N   UNL     1      -0.011   0.966   0.007  0.00  0.00    -0.234 N 
ATOM     11  C   UNL     1       1.661   6.535  -1.240  0.00  0.00    +0.029 C 
ATOM     12  H   UNL     1       0.002  -0.004   0.002  0.00  0.00    +0.175 HD
ENDROOT
BRANCH   1  16
ATOM     13  C   UNL     1      -4.901  -0.473   0.022  0.00  0.00    +0.121 A 
ATOM     14  C   UNL     1      -3.697  -1.165   0.012  0.00  0.00    +0.046 A 
ATOM     15  C   UNL     1      -2.503  -0.475   0.010  0.00  0.00    +0.013 A 
ATOM     16  C   UNL     1      -2.506   0.922   0.018  0.00  0.00    -0.001 A 
ATOM     17  C   UNL     1      -3.719   1.613   0.034  0.00  0.00    +0.013 A 
ATOM     18  C   UNL     1      -4.908   0.915   0.030  0.00  0.00    +0.046 A 
BRANCH  13  19
ATOM     19  O   UNL     1      -6.075  -1.157   0.024  0.00  0.00    -0.492 OA
BRANCH  19  21
ATOM     20  C   UNL     1      -8.486  -1.320   0.035  0.00  0.00    +0.048 C 
ATOM     21  C   UNL     1      -7.276  -0.383   0.034  0.00  0.00    +0.225 C 
ENDBRANCH  19  21
ENDBRANCH  13  19
ENDBRANCH   1  16
TORSDOF 3
