REMARK  Name = ZINC39686673
REMARK  8 active torsions:
REMARK  status: ('A' for Active; 'I' for Inactive)
REMARK    1  A    between atoms: C_1  and  C_2
REMARK    2  A    between atoms: C_2  and  C_4
REMARK    3  A    between atoms: C_2  and  N_13
REMARK    4  A    between atoms: C_4  and  C_5
REMARK    5  A    between atoms: C_10  and  O_11
REMARK    6  A    between atoms: O_11  and  C_12
REMARK    7  A    between atoms: C_14  and  C_16
REMARK    8  A    between atoms: C_27  and  C_29
REMARK                            x       y       z     vdW  Elec       q    Type
REMARK                         _______ _______ _______ _____ _____    ______ ____
ROOT
ATOM      1  C   UNL     1       2.280  -1.044   2.096  0.00  0.00    +0.100 C 
ATOM      2  C   UNL     1       1.864  -2.524   2.250  0.00  0.00    +0.121 C 
ATOM      3  N   UNL     1       3.115  -3.289   2.039  0.00  0.00    -0.297 N 
ATOM      4  C   UNL     1       4.157  -2.486   2.723  0.00  0.00    +0.115 C 
ATOM      5  C   UNL     1       3.786  -1.023   2.411  0.00  0.00    -0.004 C 
ATOM      6  C   UNL     1       4.572  -0.527   1.202  0.00  0.00    -0.010 C 
ATOM      7  C   UNL     1       6.059  -0.461   1.558  0.00  0.00    -0.082 C 
ATOM      8  N   UNL     1       6.252   0.445   2.697  0.00  0.00    +0.379 N 
ATOM      9  C   UNL     1       5.569  -0.088   3.882  0.00  0.00    -0.082 C 
ATOM     10  C   UNL     1       4.060  -0.139   3.624  0.00  0.00    -0.010 C 
ATOM     11  C   UNL     1       3.271  -4.452   1.377  0.00  0.00    +0.260 C 
ATOM     12  O   UNL     1       4.353  -5.002   1.361  0.00  0.00    -0.271 OA
ATOM     13  H   UNL     1       7.238   0.534   2.891  0.00  0.00    -0.086 HD
ATOM     14  H   UNL     1       5.873   1.352   2.471  0.00  0.00    -0.086 HD
ENDROOT
BRANCH  11  15
ATOM     15  C   UNL     1       2.102  -5.071   0.655  0.00  0.00    +0.296 C 
ATOM     16  C   UNL     1       1.077  -5.585   1.675  0.00  0.00    +0.283 C 
ATOM     17  O   UNL     1      -0.011  -6.177   0.957  0.00  0.00    -0.484 OA
ATOM     18  C   UNL     1       0.314  -7.025  -0.057  0.00  0.00    +0.162 A 
ATOM     19  C   UNL     1      -0.645  -7.899  -0.548  0.00  0.00    +0.049 A 
ATOM     20  C   UNL     1      -0.330  -8.763  -1.580  0.00  0.00    +0.004 A 
ATOM     21  C   UNL     1       0.940  -8.759  -2.125  0.00  0.00    +0.004 A 
ATOM     22  C   UNL     1       1.901  -7.893  -1.639  0.00  0.00    +0.049 A 
ATOM     23  C   UNL     1       1.592  -7.023  -0.603  0.00  0.00    +0.163 A 
ATOM     24  O   UNL     1       2.551  -6.181  -0.130  0.00  0.00    -0.473 OA
ENDBRANCH  11  15
BRANCH   1  26
ATOM     25  N   UNL     1       1.820   0.735   0.442  0.00  0.00    -0.312 N 
ATOM     26  C   UNL     1       2.033  -0.573   0.687  0.00  0.00    +0.218 C 
ATOM     27  O   UNL     1       2.025  -1.370  -0.227  0.00  0.00    -0.275 OA
ATOM     28  H   UNL     1       1.897   1.383   1.160  0.00  0.00    +0.149 HD
BRANCH  25  30
ATOM     29  C   UNL     1       2.750   1.496  -1.688  0.00  0.00    +0.028 C 
ATOM     30  C   UNL     1       1.472   1.180  -0.910  0.00  0.00    +0.074 C 
BRANCH  30  31
ATOM     31  C   UNL     1       0.602   2.436  -0.826  0.00  0.00    +0.060 C 
BRANCH  31  32
ATOM     32  C   UNL     1      -0.709   2.096  -0.164  0.00  0.00    -0.004 A 
ATOM     33  C   UNL     1      -1.796   1.727  -0.932  0.00  0.00    +0.007 A 
ATOM     34  C   UNL     1      -2.999   1.416  -0.325  0.00  0.00    +0.000 A 
ATOM     35  C   UNL     1      -3.116   1.472   1.052  0.00  0.00    +0.004 A 
ATOM     36  C   UNL     1      -2.031   1.839   1.824  0.00  0.00    +0.046 A 
ATOM     37  C   UNL     1      -0.822   2.147   1.218  0.00  0.00    +0.123 A 
BRANCH  37  38
ATOM     38  O   UNL     1       0.248   2.504   1.976  0.00  0.00    -0.495 OA
ATOM     39  C   UNL     1       0.033   2.629   3.383  0.00  0.00    +0.277 C 
ENDBRANCH  37  38
ENDBRANCH  31  32
ENDBRANCH  30  31
ENDBRANCH  25  30
ENDBRANCH   1  26
TORSDOF 6
