REMARK  Name = ZINC42039664
REMARK  4 active torsions:
REMARK  status: ('A' for Active; 'I' for Inactive)
REMARK    1  A    between atoms: C_1  and  C_2
REMARK    2  A    between atoms: C_5  and  C_13
REMARK    3  A    between atoms: N_6  and  C_7
REMARK    4  A    between atoms: C_14  and  N_20
REMARK                            x       y       z     vdW  Elec       q    Type
REMARK                         _______ _______ _______ _____ _____    ______ ____
ROOT
ATOM      1  C   UNL     1       0.098   1.499   0.110  0.00  0.00    +0.088 C 
ATOM      2  C   UNL     1       0.052  -0.005   0.045  0.00  0.00    +0.135 A 
ATOM      3  N   UNL     1      -0.153  -0.727  -1.024  0.00  0.00    -0.134 NA
ATOM      4  N   UNL     1      -0.129  -1.977  -0.726  0.00  0.00    -0.129 NA
ATOM      5  C   UNL     1       0.095  -2.124   0.562  0.00  0.00    +0.173 A 
ATOM      6  N   UNL     1       0.223  -0.865   1.091  0.00  0.00    -0.279 N 
ENDROOT
BRANCH   5   7
ATOM      7  C   UNL     1       0.195  -3.401   1.297  0.00  0.00    +0.075 A 
ATOM      8  C   UNL     1       1.041  -4.418   0.832  0.00  0.00    +0.038 A 
ATOM      9  C   UNL     1       1.129  -5.613   1.531  0.00  0.00    +0.023 A 
ATOM     10  C   UNL     1       0.384  -5.801   2.680  0.00  0.00    +0.005 A 
ATOM     11  C   UNL     1      -0.453  -4.801   3.143  0.00  0.00    +0.039 A 
ATOM     12  C   UNL     1      -0.548  -3.601   2.463  0.00  0.00    +0.136 A 
ATOM     13  F   UNL     1      -1.361  -2.625   2.923  0.00  0.00    -0.205 F 
BRANCH   8  14
ATOM     14  N   UNL     1       1.791  -4.228  -0.327  0.00  0.00    -0.357 N 
ATOM     15  H   UNL     1       1.729  -3.392  -0.814  0.00  0.00    +0.142 HD
ATOM     16  H   UNL     1       2.376  -4.933  -0.647  0.00  0.00    +0.142 HD
ENDBRANCH   8  14
ENDBRANCH   5   7
BRANCH   6  17
ATOM     17  C   UNL     1       0.474  -0.530   2.429  0.00  0.00    +0.050 A 
ATOM     18  C   UNL     1       1.692  -0.855   3.010  0.00  0.00    +0.026 A 
ATOM     19  C   UNL     1       1.937  -0.524   4.329  0.00  0.00    +0.002 A 
ATOM     20  C   UNL     1       0.970   0.131   5.069  0.00  0.00    +0.000 A 
ATOM     21  C   UNL     1      -0.244   0.455   4.493  0.00  0.00    +0.002 A 
ATOM     22  C   UNL     1      -0.493   0.132   3.174  0.00  0.00    +0.026 A 
ENDBRANCH   6  17
TORSDOF 3
