REMARK  Name = ZINC26944941
REMARK  14 active torsions:
REMARK  status: ('A' for Active; 'I' for Inactive)
REMARK    1  A    between atoms: C_1  and  C_2
REMARK    2  A    between atoms: C_2  and  C_3
REMARK    3  A    between atoms: C_2  and  C_4
REMARK    4  A    between atoms: C_2  and  N_28
REMARK    5  A    between atoms: C_4  and  C_5
REMARK    6  A    between atoms: C_8  and  N_11
REMARK    7  A    between atoms: N_11  and  S_12
REMARK    8  A    between atoms: S_12  and  N_15
REMARK    9  A    between atoms: N_18  and  C_21
REMARK   10  A    between atoms: C_21  and  C_22
REMARK   11  A    between atoms: N_28  and  C_29
REMARK   12  A    between atoms: C_29  and  C_30
REMARK   13  A    between atoms: C_30  and  C_32
REMARK   14  A    between atoms: C_30  and  O_38
REMARK                            x       y       z     vdW  Elec       q    Type
REMARK                         _______ _______ _______ _____ _____    ______ ____
ROOT
ATOM      1  C   UNL     1      -5.017   1.559  -3.573  0.00  0.00    -0.049 A 
ATOM      2  C   UNL     1      -5.786   2.706  -3.509  0.00  0.00    +0.005 A 
ATOM      3  C   UNL     1      -6.497   3.125  -4.617  0.00  0.00    +0.025 A 
ATOM      4  C   UNL     1      -6.447   2.386  -5.792  0.00  0.00    +0.049 A 
ATOM      5  C   UNL     1      -5.678   1.231  -5.851  0.00  0.00    +0.025 A 
ATOM      6  C   UNL     1      -4.965   0.821  -4.741  0.00  0.00    +0.005 A 
ENDROOT
BRANCH   4   7
ATOM      7  N   UNL     1      -7.169   2.804  -6.913  0.00  0.00    -0.206 N 
ATOM      8  H   UNL     1      -6.688   2.820  -7.902  0.00  0.00    +0.175 HD
BRANCH   7   9
ATOM      9  S   UNL     1      -8.748   3.276  -6.752  0.00  0.00    +0.112 S 
ATOM     10  O   UNL     1      -8.777   4.254  -5.721  0.00  0.00    -0.138 OA
ATOM     11  O   UNL     1      -9.229   3.538  -8.063  0.00  0.00    -0.138 OA
BRANCH   9  12
ATOM     12  N   UNL     1      -9.595   1.969  -6.189  0.00  0.00    -0.161 NA
ATOM     13  C   UNL     1     -10.114   0.950  -7.114  0.00  0.00    +0.126 C 
ATOM     14  C   UNL     1      -9.665  -0.431  -6.611  0.00  0.00    +0.102 C 
ATOM     15  N   UNL     1     -10.079  -0.595  -5.211  0.00  0.00    -0.296 NA
ATOM     16  C   UNL     1      -9.419   0.388  -4.341  0.00  0.00    +0.102 C 
ATOM     17  C   UNL     1      -9.853   1.800  -4.750  0.00  0.00    +0.126 C 
BRANCH  15  18
ATOM     18  C   UNL     1      -9.825  -1.965  -4.744  0.00  0.00    +0.119 C 
BRANCH  18  19
ATOM     19  C   UNL     1     -10.303  -2.946  -5.784  0.00  0.00    -0.033 A 
ATOM     20  C   UNL     1     -11.599  -3.424  -5.740  0.00  0.00    +0.005 A 
ATOM     21  C   UNL     1     -12.038  -4.320  -6.696  0.00  0.00    +0.000 A 
ATOM     22  C   UNL     1     -11.178  -4.746  -7.691  0.00  0.00    +0.000 A 
ATOM     23  C   UNL     1      -9.880  -4.273  -7.731  0.00  0.00    +0.000 A 
ATOM     24  C   UNL     1      -9.442  -3.373  -6.778  0.00  0.00    +0.005 A 
ENDBRANCH  18  19
ENDBRANCH  15  18
ENDBRANCH   9  12
ENDBRANCH   7   9
ENDBRANCH   4   7
BRANCH   1  25
ATOM     25  C   UNL     1      -4.238   1.109  -2.364  0.00  0.00    +0.022 C 
BRANCH  25  27
ATOM     26  C   UNL     1      -2.964   3.258  -2.384  0.00  0.00    -0.010 C 
ATOM     27  C   UNL     1      -2.842   1.733  -2.395  0.00  0.00    -0.070 C 
ATOM     28  C   UNL     1      -2.113   1.290  -3.666  0.00  0.00    -0.010 C 
BRANCH  27  29
ATOM     29  N   UNL     1      -2.082   1.294  -1.217  0.00  0.00    +0.385 N 
ATOM     30  H   UNL     1      -2.606   1.612  -0.304  0.00  0.00    -0.085 HD
ATOM     31  H   UNL     1      -1.994   0.197  -1.225  0.00  0.00    -0.085 HD
BRANCH  29  32
ATOM     32  C   UNL     1      -0.733   1.875  -1.213  0.00  0.00    -0.045 C 
BRANCH  32  33
ATOM     33  C   UNL     1       0.025   1.395   0.026  0.00  0.00    +0.129 C 
BRANCH  33  34
ATOM     34  C   UNL     1       1.409   1.992   0.029  0.00  0.00    -0.003 A 
ATOM     35  C   UNL     1       2.481   1.282  -0.491  0.00  0.00    +0.009 A 
ATOM     36  C   UNL     1       3.736   1.870  -0.466  0.00  0.00    +0.020 A 
ATOM     37  C   UNL     1       3.877   3.135   0.072  0.00  0.00    +0.111 A 
ATOM     38  N   UNL     1       2.835   3.781   0.558  0.00  0.00    -0.263 NA
ATOM     39  C   UNL     1       1.626   3.255   0.546  0.00  0.00    +0.116 A 
ENDBRANCH  33  34
BRANCH  33  40
ATOM     40  O   UNL     1      -0.674   1.808   1.202  0.00  0.00    -0.389 OA
ATOM     41  H   UNL     1      -0.278   1.553   2.196  0.00  0.00    +0.210 HD
ENDBRANCH  33  40
ENDBRANCH  32  33
ENDBRANCH  29  32
ENDBRANCH  27  29
ENDBRANCH  25  27
ENDBRANCH   1  25
TORSDOF 12
