REMARK  Name = ZINC44963884
REMARK  9 active torsions:
REMARK  status: ('A' for Active; 'I' for Inactive)
REMARK    1  A    between atoms: C_1  and  C_2
REMARK    2  A    between atoms: C_17  and  C_39
REMARK    3  A    between atoms: C_19  and  O_37
REMARK    4  A    between atoms: C_22  and  C_36
REMARK    5  A    between atoms: C_23  and  C_24
REMARK    6  A    between atoms: C_23  and  O_28
REMARK    7  A    between atoms: C_24  and  C_26
REMARK    8  A    between atoms: O_28  and  C_29
REMARK    9  A    between atoms: C_29  and  C_31
REMARK                            x       y       z     vdW  Elec       q    Type
REMARK                         _______ _______ _______ _____ _____    ______ ____
ROOT
ATOM      1  C   UNL     1       0.492   1.469  -0.061  0.00  0.00    +0.012 C 
ATOM      2  C   UNL     1       0.106   0.046   0.340  0.00  0.00    +0.038 C 
ATOM      3  C   UNL     1      -1.397  -0.014   0.717  0.00  0.00    +0.012 C 
ATOM      4  C   UNL     1      -1.440  -1.085   1.816  0.00  0.00    +0.005 C 
ATOM      5  C   UNL     1      -2.692  -1.131   2.638  0.00  0.00    +0.018 C 
ATOM      6  C   UNL     1      -3.953  -1.443   1.831  0.00  0.00    +0.010 C 
ATOM      7  C   UNL     1      -4.208  -0.346   0.805  0.00  0.00    +0.032 C 
ATOM      8  C   UNL     1      -4.004   1.020   1.395  0.00  0.00    -0.055 C 
ATOM      9  C   UNL     1      -4.361   2.075   0.627  0.00  0.00    +0.051 C 
ATOM     10  C   UNL     1      -4.138   3.423   1.206  0.00  0.00    +0.179 C 
ATOM     11  O   UNL     1      -4.894   4.356   0.996  0.00  0.00    -0.288 OA
ATOM     12  C   UNL     1      -2.926   3.561   2.055  0.00  0.00    +0.047 C 
ATOM     13  C   UNL     1      -2.603   2.498   2.821  0.00  0.00    -0.011 C 
ATOM     14  C   UNL     1      -3.467   1.278   2.759  0.00  0.00    +0.029 C 
ATOM     15  C   UNL     1      -2.935   0.088   3.510  0.00  0.00    +0.086 C 
ATOM     16  C   UNL     1      -1.699   0.410   4.342  0.00  0.00    +0.137 C 
ATOM     17  C   UNL     1      -0.434   0.480   3.509  0.00  0.00    +0.044 C 
ATOM     18  C   UNL     1      -0.189  -0.765   2.662  0.00  0.00    +0.021 C 
ATOM     19  C   UNL     1       0.878  -0.386   1.598  0.00  0.00    +0.180 C 
ATOM     20  C   UNL     1       0.263  -1.968   3.493  0.00  0.00    +0.016 C 
ATOM     21 CL   UNL     1      -4.237  -0.380   4.691  0.00  0.00    -0.114 Cl
ATOM     22  C   UNL     1      -4.711   1.665   3.579  0.00  0.00    +0.022 C 
ENDROOT
BRANCH  19  23
ATOM     23  C   UNL     1       1.742  -1.583   1.289  0.00  0.00    +0.192 C 
ATOM     24  O   UNL     1       1.232  -2.646   1.028  0.00  0.00    -0.292 OA
BRANCH  23  25
ATOM     25  C   UNL     1       3.244  -1.452   1.306  0.00  0.00    +0.187 C 
ATOM     26 CL   UNL     1       3.988  -3.001   0.761  0.00  0.00    -0.117 Cl
ENDBRANCH  23  25
ENDBRANCH  19  23
BRANCH  16  27
ATOM     27  O   UNL     1      -1.557  -0.563   5.384  0.00  0.00    -0.390 OA
ATOM     28  H   UNL     1      -0.789  -0.420   5.954  0.00  0.00    +0.210 HD
ENDBRANCH  16  27
BRANCH  19  29
ATOM     29  O   UNL     1       1.691   0.689   2.071  0.00  0.00    -0.444 OA
BRANCH  29  30
ATOM     30  C   UNL     1       2.417   0.462   3.186  0.00  0.00    +0.376 C 
ATOM     31  O   UNL     1       2.434  -0.646   3.686  0.00  0.00    -0.241 OA
BRANCH  30  32
ATOM     32  C   UNL     1       3.185   1.552   3.793  0.00  0.00    +0.211 A 
ATOM     33  C   UNL     1       3.963   1.459   4.912  0.00  0.00    +0.056 A 
ATOM     34  C   UNL     1       4.508   2.733   5.131  0.00  0.00    +0.042 A 
ATOM     35  C   UNL     1       4.046   3.538   4.148  0.00  0.00    +0.196 A 
ATOM     36  O   UNL     1       3.254   2.821   3.341  0.00  0.00    -0.456 OA
ENDBRANCH  30  32
ENDBRANCH  29  30
ENDBRANCH  19  29
TORSDOF 6
