REMARK  Name = ZINC31039990
REMARK  11 active torsions:
REMARK  status: ('A' for Active; 'I' for Inactive)
REMARK    1  A    between atoms: C_1  and  N_2
REMARK    2  A    between atoms: N_2  and  C_3
REMARK    3  A    between atoms: N_2  and  C_20
REMARK    4  A    between atoms: C_3  and  C_4
REMARK    5  A    between atoms: C_4  and  C_5
REMARK    6  A    between atoms: N_7  and  C_8
REMARK    7  A    between atoms: C_9  and  C_17
REMARK    8  A    between atoms: C_20  and  C_21
REMARK    9  A    between atoms: N_23  and  C_24
REMARK   10  A    between atoms: C_29  and  S_30
REMARK   11  A    between atoms: S_30  and  C_31
REMARK                            x       y       z     vdW  Elec       q    Type
REMARK                         _______ _______ _______ _____ _____    ______ ____
ROOT
ATOM      1  C   UNL     1      -0.142  -0.111  -2.443  0.00  0.00    +0.077 C 
ENDROOT
BRANCH   1   2
ATOM      2  C   UNL     1       0.557  -0.607  -3.683  0.00  0.00    +0.216 C 
ATOM      3  O   UNL     1       1.601  -1.217  -3.588  0.00  0.00    -0.276 OA
ATOM      4  N   UNL     1       0.022  -0.372  -4.897  0.00  0.00    -0.279 N 
ATOM      5  H   UNL     1      -0.813   0.116  -4.973  0.00  0.00    +0.155 HD
BRANCH   4   6
ATOM      6  C   UNL     1       0.664  -0.828  -6.038  0.00  0.00    +0.084 A 
ATOM      7  C   UNL     1       0.268  -0.676  -7.357  0.00  0.00    +0.068 A 
ATOM      8  C   UNL     1       1.125  -1.253  -8.379  0.00  0.00    -0.023 A 
ATOM      9  C   UNL     1       2.221  -1.876  -7.893  0.00  0.00    -0.004 A 
ATOM     10  S   UNL     1       2.105  -1.685  -6.139  0.00  0.00    -0.077 S 
ATOM     11  C   UNL     1       3.288  -2.566  -8.685  0.00  0.00    +0.043 C 
ATOM     12  C   UNL     1       2.763  -2.788 -10.111  0.00  0.00    +0.005 C 
ATOM     13  C   UNL     1       2.152  -1.481 -10.624  0.00  0.00    +0.005 C 
ATOM     14  C   UNL     1       0.852  -1.184  -9.874  0.00  0.00    +0.037 C 
BRANCH   7  15
ATOM     15  C   UNL     1      -0.964   0.036  -7.708  0.00  0.00    +0.244 C 
ATOM     16  O   UNL     1      -0.937   1.236  -7.911  0.00  0.00    -0.270 OA
ATOM     17  N   UNL     1      -2.128  -0.637  -7.804  0.00  0.00    -0.325 N 
ATOM     18  H   UNL     1      -2.150  -1.593  -7.642  0.00  0.00    +0.145 HD
ATOM     19  H   UNL     1      -2.943  -0.166  -8.036  0.00  0.00    +0.145 HD
ENDBRANCH   7  15
ENDBRANCH   4   6
ENDBRANCH   1   2
BRANCH   1  20
ATOM     20  C   UNL     1       0.669  -0.507  -1.208  0.00  0.00    -0.069 C 
BRANCH  20  22
ATOM     21  C   UNL     1      -0.026   1.445   0.001  0.00  0.00    -0.096 C 
ATOM     22  N   UNL     1      -0.011  -0.024   0.001  0.00  0.00    +0.384 N 
ATOM     23  H   UNL     1      -0.959  -0.370   0.014  0.00  0.00    -0.082 HD
BRANCH  22  24
ATOM     24  C   UNL     1       0.702  -0.506   1.191  0.00  0.00    +0.018 C 
BRANCH  24  25
ATOM     25  C   UNL     1      -0.063  -0.115   2.429  0.00  0.00    +0.201 C 
ATOM     26  O   UNL     1      -1.101   0.505   2.329  0.00  0.00    -0.278 OA
ATOM     27  N   UNL     1       0.406  -0.453   3.646  0.00  0.00    -0.286 N 
ATOM     28  H   UNL     1       1.200  -1.004   3.724  0.00  0.00    +0.155 HD
BRANCH  27  29
ATOM     29  C   UNL     1      -0.255  -0.009   4.800  0.00  0.00    +0.047 A 
ATOM     30  C   UNL     1      -1.636   0.116   4.806  0.00  0.00    +0.024 A 
ATOM     31  C   UNL     1      -2.286   0.554   5.944  0.00  0.00    +0.002 A 
ATOM     32  C   UNL     1      -1.563   0.868   7.081  0.00  0.00    +0.001 A 
ATOM     33  C   UNL     1      -0.186   0.746   7.085  0.00  0.00    +0.016 A 
ATOM     34  C   UNL     1       0.474   0.302   5.948  0.00  0.00    +0.029 A 
BRANCH  34  35
ATOM     35  S   UNL     1       2.229   0.139   5.952  0.00  0.00    -0.127 S 
ATOM     36  C   UNL     1       2.713   0.646   7.624  0.00  0.00    +0.090 C 
ENDBRANCH  34  35
ENDBRANCH  27  29
ENDBRANCH  24  25
ENDBRANCH  22  24
ENDBRANCH  20  22
ENDBRANCH   1  20
TORSDOF 9
