REMARK  Name = ZINC40859295
REMARK  8 active torsions:
REMARK  status: ('A' for Active; 'I' for Inactive)
REMARK    1  A    between atoms: C_1  and  C_2
REMARK    2  A    between atoms: C_2  and  O_3
REMARK    3  A    between atoms: O_3  and  C_4
REMARK    4  A    between atoms: C_4  and  C_6
REMARK    5  A    between atoms: C_7  and  C_23
REMARK    6  A    between atoms: N_11  and  C_12
REMARK    7  A    between atoms: C_12  and  N_14
REMARK    8  A    between atoms: C_15  and  C_17
REMARK                            x       y       z     vdW  Elec       q    Type
REMARK                         _______ _______ _______ _____ _____    ______ ____
ROOT
ATOM      1  C   UNL     1       1.513  -2.373   2.458  0.00  0.00    +0.118 A 
ATOM      2  C   UNL     1       1.732  -3.674   2.784  0.00  0.00    +0.036 A 
ATOM      3  N   UNL     1       2.401  -3.913   3.926  0.00  0.00    -0.339 N 
ATOM      4  C   UNL     1       2.820  -2.859   4.686  0.00  0.00    +0.163 A 
ATOM      5  S   UNL     1       2.292  -1.520   3.817  0.00  0.00    -0.046 S 
ATOM      6  N   UNL     1       3.488  -2.884   5.835  0.00  0.00    -0.169 NA
ATOM      7  C   UNL     1       1.246  -4.799   1.906  0.00  0.00    +0.065 C 
ATOM      8  H   UNL     1       2.585  -4.824   4.206  0.00  0.00    +0.167 HD
ENDROOT
BRANCH   1   9
ATOM      9  C   UNL     1       0.823  -1.816   1.292  0.00  0.00    +0.348 C 
ATOM     10  O   UNL     1       0.347  -2.559   0.455  0.00  0.00    -0.244 OA
BRANCH   9  11
ATOM     11  O   UNL     1       0.715  -0.479   1.146  0.00  0.00    -0.461 OA
BRANCH  11  13
ATOM     12  C   UNL     1       0.007   1.524  -0.007  0.00  0.00    +0.048 C 
ATOM     13  C   UNL     1       0.029  -0.006  -0.015  0.00  0.00    +0.229 C 
ENDBRANCH  11  13
ENDBRANCH   9  11
ENDBRANCH   1   9
BRANCH   6  14
ATOM     14  C   UNL     1       3.906  -1.743   6.390  0.00  0.00    +0.163 C 
ATOM     15  S   UNL     1       3.465  -0.242   5.696  0.00  0.00    -0.016 S 
BRANCH  14  16
ATOM     16  N   UNL     1       4.675  -1.774   7.496  0.00  0.00    -0.266 N 
ATOM     17  C   UNL     1       5.096  -0.623   8.056  0.00  0.00    +0.222 C 
ATOM     18  O   UNL     1       4.784   0.440   7.565  0.00  0.00    -0.275 OA
ATOM     19  H   UNL     1       4.925  -2.625   7.889  0.00  0.00    +0.157 HD
BRANCH  17  20
ATOM     20  C   UNL     1       5.956  -0.658   9.294  0.00  0.00    +0.075 C 
ATOM     21  C   UNL     1       5.199  -1.362  10.421  0.00  0.00    +0.013 C 
ATOM     22  C   UNL     1       6.072  -1.397  11.677  0.00  0.00    +0.001 C 
ATOM     23  C   UNL     1       6.409   0.033  12.105  0.00  0.00    +0.000 C 
ATOM     24  C   UNL     1       7.166   0.737  10.977  0.00  0.00    +0.001 C 
ATOM     25  C   UNL     1       6.293   0.772   9.721  0.00  0.00    +0.013 C 
ENDBRANCH  17  20
ENDBRANCH  14  16
ENDBRANCH   6  14
TORSDOF 6
