REMARK  Name = ZINC35779121
REMARK  14 active torsions:
REMARK  status: ('A' for Active; 'I' for Inactive)
REMARK    1  A    between atoms: C_1  and  C_2
REMARK    2  A    between atoms: C_2  and  C_3
REMARK    3  A    between atoms: C_3  and  N_4
REMARK    4  A    between atoms: N_4  and  C_5
REMARK    5  A    between atoms: N_4  and  C_15
REMARK    6  A    between atoms: C_5  and  C_6
REMARK    7  A    between atoms: C_6  and  C_8
REMARK    8  A    between atoms: C_6  and  O_14
REMARK    9  A    between atoms: C_15  and  C_16
REMARK   10  A    between atoms: C_26  and  C_28
REMARK   11  A    between atoms: C_28  and  O_29
REMARK   12  A    between atoms: O_29  and  C_30
REMARK   13  A    between atoms: C_33  and  O_36
REMARK   14  A    between atoms: O_36  and  C_37
REMARK                            x       y       z     vdW  Elec       q    Type
REMARK                         _______ _______ _______ _____ _____    ______ ____
ROOT
ATOM      1  C   UNL     1       0.189  -2.004   3.669  0.00  0.00    +0.200 C 
ATOM      2  O   UNL     1      -0.736  -1.269   3.393  0.00  0.00    -0.278 OA
ATOM      3  N   UNL     1       0.399  -2.371   4.949  0.00  0.00    -0.292 N 
ATOM      4  C   UNL     1       1.520  -3.257   5.296  0.00  0.00    +0.113 C 
ATOM      5  C   UNL     1       2.499  -2.471   6.182  0.00  0.00    +0.061 C 
ATOM      6  C   UNL     1       1.716  -1.691   7.187  0.00  0.00    -0.004 A 
ATOM      7  C   UNL     1       0.388  -1.395   7.165  0.00  0.00    -0.014 A 
ATOM      8  C   UNL     1      -0.102  -0.638   8.228  0.00  0.00    +0.013 A 
ATOM      9  C   UNL     1       0.732  -0.242   9.217  0.00  0.00    +0.046 A 
ATOM     10  S   UNL     1       2.290  -0.934   8.684  0.00  0.00    -0.101 S 
ATOM     11  C   UNL     1      -0.485  -1.886   6.017  0.00  0.00    +0.144 C 
ENDROOT
BRANCH   1  12
ATOM     12  C   UNL     1       1.102  -2.508   2.581  0.00  0.00    +0.019 C 
BRANCH  12  13
ATOM     13  N   UNL     1       0.665  -1.969   1.286  0.00  0.00    +0.387 N 
ATOM     14  H   UNL     1      -0.306  -2.201   1.136  0.00  0.00    -0.081 HD
BRANCH  13  15
ATOM     15  C   UNL     1       0.826  -0.509   1.284  0.00  0.00    -0.078 C 
BRANCH  15  17
ATOM     16  C   UNL     1       0.279   1.595   0.052  0.00  0.00    +0.002 C 
ATOM     17  C   UNL     1       0.234   0.067  -0.005  0.00  0.00    -0.022 C 
ENDBRANCH  15  17
ENDBRANCH  13  15
BRANCH  13  18
ATOM     18  C   UNL     1       1.479  -2.554   0.213  0.00  0.00    -0.042 C 
BRANCH  18  19
ATOM     19  C   UNL     1       1.198  -4.055   0.119  0.00  0.00    +0.128 C 
BRANCH  19  20
ATOM     20  C   UNL     1       2.038  -4.655  -0.979  0.00  0.00    -0.021 A 
ATOM     21  C   UNL     1       1.645  -4.529  -2.298  0.00  0.00    +0.006 A 
ATOM     22  C   UNL     1       2.415  -5.080  -3.305  0.00  0.00    +0.000 A 
ATOM     23  C   UNL     1       3.579  -5.756  -2.993  0.00  0.00    +0.000 A 
ATOM     24  C   UNL     1       3.974  -5.882  -1.674  0.00  0.00    +0.000 A 
ATOM     25  C   UNL     1       3.205  -5.328  -0.667  0.00  0.00    +0.006 A 
ENDBRANCH  19  20
BRANCH  19  26
ATOM     26  O   UNL     1      -0.185  -4.263  -0.172  0.00  0.00    -0.389 OA
ATOM     27  H   UNL     1      -0.460  -3.928  -1.036  0.00  0.00    +0.210 HD
ENDBRANCH  19  26
ENDBRANCH  18  19
ENDBRANCH  13  18
ENDBRANCH  12  13
ENDBRANCH   1  12
BRANCH  11  28
ATOM     28  C   UNL     1      -1.382  -3.025   6.505  0.00  0.00    +0.256 C 
BRANCH  28  29
ATOM     29  O   UNL     1      -0.577  -4.037   7.115  0.00  0.00    -0.490 OA
BRANCH  29  30
ATOM     30  C   UNL     1      -1.224  -5.128   7.605  0.00  0.00    +0.121 A 
ATOM     31  C   UNL     1      -2.604  -5.223   7.495  0.00  0.00    +0.049 A 
ATOM     32  C   UNL     1      -3.261  -6.332   7.993  0.00  0.00    +0.049 A 
ATOM     33  C   UNL     1      -2.541  -7.349   8.603  0.00  0.00    +0.120 A 
ATOM     34  C   UNL     1      -1.162  -7.254   8.711  0.00  0.00    +0.049 A 
ATOM     35  C   UNL     1      -0.504  -6.147   8.210  0.00  0.00    +0.049 A 
BRANCH  33  36
ATOM     36  O   UNL     1      -3.188  -8.440   9.094  0.00  0.00    -0.495 OA
ATOM     37  C   UNL     1      -2.385  -9.449   9.708  0.00  0.00    +0.277 C 
ENDBRANCH  33  36
ENDBRANCH  29  30
ENDBRANCH  28  29
ENDBRANCH  11  28
TORSDOF 12
