REMARK  Name = ZINC23158092
REMARK  6 active torsions:
REMARK  status: ('A' for Active; 'I' for Inactive)
REMARK    1  A    between atoms: C_1  and  C_2
REMARK    2  A    between atoms: C_8  and  C_10
REMARK    3  A    between atoms: C_10  and  C_12
REMARK    4  A    between atoms: C_10  and  N_17
REMARK    5  A    between atoms: C_19  and  C_26
REMARK    6  A    between atoms: C_22  and  C_25
REMARK                            x       y       z     vdW  Elec       q    Type
REMARK                         _______ _______ _______ _____ _____    ______ ____
ROOT
ATOM      1  C   UNL     1       1.351   1.579   2.566  0.00  0.00    +0.042 C 
ENDROOT
BRANCH   1   9
ATOM      2  C   UNL     1       2.709   2.268  -4.736  0.00  0.00    +0.090 C 
ATOM      3  C   UNL     1       2.582   2.193  -3.236  0.00  0.00    +0.150 A 
ATOM      4  N   UNL     1       3.498   2.607  -2.364  0.00  0.00    -0.205 NA
ATOM      5  C   UNL     1       3.066   2.395  -1.151  0.00  0.00    +0.199 A 
ATOM      6  N   UNL     1       1.830   1.825  -1.200  0.00  0.00    -0.170 N 
ATOM      7  N   UNL     1       1.556   1.712  -2.587  0.00  0.00    -0.147 NA
ATOM      8  C   UNL     1       1.224   1.533  -0.001  0.00  0.00    +0.282 A 
ATOM      9  C   UNL     1       1.835   1.809   1.157  0.00  0.00    +0.053 A 
ATOM     10  S   UNL     1       3.374   2.520   0.595  0.00  0.00    -0.050 S 
ATOM     11  O   UNL     1      -0.011   0.963   0.007  0.00  0.00    -0.265 OA
ENDBRANCH   1   9
BRANCH   1  12
ATOM     12  N   UNL     1       2.437   0.997   3.367  0.00  0.00    +0.390 N 
ATOM     13  C   UNL     1       2.944  -0.235   2.750  0.00  0.00    -0.074 C 
ATOM     14  C   UNL     1       4.164  -0.732   3.529  0.00  0.00    -0.031 C 
ATOM     15  C   UNL     1       3.763  -0.995   4.983  0.00  0.00    +0.003 C 
ATOM     16  C   UNL     1       3.193   0.292   5.587  0.00  0.00    -0.031 C 
ATOM     17  C   UNL     1       2.001   0.759   4.749  0.00  0.00    -0.074 C 
ATOM     18  C   UNL     1       2.734   0.022   7.022  0.00  0.00    +0.005 C 
ATOM     19  C   UNL     1       5.264   0.330   3.486  0.00  0.00    +0.005 C 
ATOM     20  H   UNL     1       3.263   1.722   3.396  0.00  0.00    -0.080 HD
ENDBRANCH   1  12
BRANCH   1  21
ATOM     21  C   UNL     1       0.928   2.892   3.172  0.00  0.00    +0.096 A 
ATOM     22  C   UNL     1      -0.337   3.338   3.277  0.00  0.00    +0.043 A 
ATOM     23  C   UNL     1      -0.274   4.603   3.906  0.00  0.00    +0.041 A 
ATOM     24  C   UNL     1       1.026   4.857   4.141  0.00  0.00    +0.195 A 
ATOM     25  O   UNL     1       1.749   3.818   3.694  0.00  0.00    -0.469 OA
ENDBRANCH   1  21
TORSDOF 3
