REMARK  Name = ZINC08835412
REMARK  5 active torsions:
REMARK  status: ('A' for Active; 'I' for Inactive)
REMARK    1  A    between atoms: C_3  and  N_27
REMARK    2  A    between atoms: C_4  and  N_24
REMARK    3  A    between atoms: C_6  and  C_7
REMARK    4  A    between atoms: N_9  and  C_10
REMARK    5  A    between atoms: C_10  and  N_12
REMARK                            x       y       z     vdW  Elec       q    Type
REMARK                         _______ _______ _______ _____ _____    ______ ____
ROOT
ATOM      1  C   UNL     1       2.405   3.944  -0.019  0.00  0.00    +0.250 C 
ATOM      2  O   UNL     1       2.382   5.154  -0.132  0.00  0.00    -0.270 OA
ATOM      3  N   UNL     1       3.584   3.300   0.088  0.00  0.00    -0.262 N 
ATOM      4  H   UNL     1       3.606   2.205   0.190  0.00  0.00    +0.157 HD
ENDROOT
BRANCH   1  10
ATOM      5  C   UNL     1       1.169   1.789   0.127  0.00  0.00    +0.015 A 
ATOM      6  C   UNL     1      -0.012   1.082   0.144  0.00  0.00    +0.026 A 
ATOM      7  C   UNL     1      -1.226   1.754   0.027  0.00  0.00    +0.060 A 
ATOM      8  C   UNL     1      -1.248   3.140  -0.096  0.00  0.00    +0.148 A 
ATOM      9  C   UNL     1      -0.080   3.848  -0.113  0.00  0.00    +0.047 A 
ATOM     10  C   UNL     1       1.144   3.181  -0.002  0.00  0.00    +0.039 A 
BRANCH   7  11
ATOM     11  N   UNL     1      -2.418   1.039   0.038  0.00  0.00    -0.328 N 
ATOM     12  C   UNL     1      -2.401  -0.041  -0.982  0.00  0.00    +0.105 C 
ATOM     13  C   UNL     1      -3.502  -1.013  -0.488  0.00  0.00    +0.020 C 
ATOM     14  C   UNL     1      -3.339  -0.968   1.048  0.00  0.00    +0.020 C 
ATOM     15  C   UNL     1      -2.619   0.362   1.338  0.00  0.00    +0.105 C 
ENDBRANCH   7  11
BRANCH   8  16
ATOM     16  N   UNL     1      -2.542   3.850  -0.213  0.00  0.00    +0.058 N 
ATOM     17  O   UNL     1      -2.570   5.067  -0.227  0.00  0.00    -0.126 OA
ATOM     18  O   UNL     1      -3.579   3.216  -0.297  0.00  0.00    -0.126 OA
ENDBRANCH   8  16
ENDBRANCH   1  10
BRANCH   3  19
ATOM     19  C   UNL     1       4.737   3.998   0.072  0.00  0.00    +0.163 C 
ATOM     20  S   UNL     1       4.704   5.702  -0.086  0.00  0.00    -0.016 S 
BRANCH  19  21
ATOM     21  N   UNL     1       5.916   3.353   0.179  0.00  0.00    -0.169 NA
ATOM     22  C   UNL     1       7.101   4.070   0.163  0.00  0.00    +0.163 A 
ATOM     23  N   UNL     1       8.333   3.626   0.254  0.00  0.00    -0.334 N 
ATOM     24  C   UNL     1       9.405   4.448   0.223  0.00  0.00    +0.075 A 
ATOM     25  C   UNL     1       9.117   5.825   0.084  0.00  0.00    +0.040 A 
ATOM     26  S   UNL     1       7.342   5.834   0.003  0.00  0.00    -0.052 S 
ATOM     27  C   UNL     1      10.095   6.786   0.035  0.00  0.00    +0.019 A 
ATOM     28  C   UNL     1      11.424   6.413   0.124  0.00  0.00    +0.022 A 
ATOM     29  C   UNL     1      11.745   5.070   0.261  0.00  0.00    +0.061 A 
ATOM     30  C   UNL     1      10.773   4.102   0.310  0.00  0.00    +0.084 A 
ATOM     31 CL   UNL     1      11.229   2.436   0.482  0.00  0.00    -0.080 Cl
ATOM     32 CL   UNL     1      13.414   4.604   0.373  0.00  0.00    -0.082 Cl
ATOM     33  H   UNL     1       8.523   2.548   0.361  0.00  0.00    +0.168 HD
ENDBRANCH  19  21
ENDBRANCH   3  19
TORSDOF 5
