REMARK  Name = ZINC60211233
REMARK  8 active torsions:
REMARK  status: ('A' for Active; 'I' for Inactive)
REMARK    1  A    between atoms: C_1  and  C_2
REMARK    2  A    between atoms: C_2  and  O_3
REMARK    3  A    between atoms: O_3  and  C_4
REMARK    4  A    between atoms: C_5  and  O_25
REMARK    5  A    between atoms: C_7  and  C_11
REMARK    6  A    between atoms: C_11  and  N_13
REMARK    7  A    between atoms: N_22  and  C_23
REMARK    8  A    between atoms: O_25  and  C_26
REMARK                            x       y       z     vdW  Elec       q    Type
REMARK                         _______ _______ _______ _____ _____    ______ ____
ROOT
ATOM      1  C   UNL     1      -2.011  -6.069  -0.006  0.00  0.00    +0.270 C 
ATOM      2  O   UNL     1      -2.096  -6.670  -1.064  0.00  0.00    -0.268 OA
ENDROOT
BRANCH   1   3
ATOM      3  N   UNL     1      -2.070  -6.739   1.150  0.00  0.00    -0.142 NA
ATOM      4  C   UNL     1      -2.325  -8.042   1.150  0.00  0.00    +0.201 A 
ATOM      5  N   UNL     1      -2.429  -8.825   0.043  0.00  0.00    -0.326 N 
ATOM      6  C   UNL     1      -2.701 -10.127   0.453  0.00  0.00    +0.067 A 
ATOM      7  C   UNL     1      -2.903 -11.313  -0.237  0.00  0.00    +0.047 A 
ATOM      8  C   UNL     1      -3.161 -12.479   0.458  0.00  0.00    +0.043 A 
ATOM      9  C   UNL     1      -3.220 -12.467   1.843  0.00  0.00    +0.022 A 
ATOM     10  C   UNL     1      -3.020 -11.291   2.538  0.00  0.00    +0.029 A 
ATOM     11  C   UNL     1      -2.760 -10.115   1.848  0.00  0.00    +0.068 A 
ATOM     12  N   UNL     1      -2.518  -8.808   2.258  0.00  0.00    -0.315 N 
ATOM     13  C   UNL     1      -2.479  -8.336   3.645  0.00  0.00    +0.152 C 
ATOM     14 CL   UNL     1      -3.413 -13.963  -0.405  0.00  0.00    -0.083 Cl
ATOM     15  H   UNL     1      -2.331  -8.527  -0.875  0.00  0.00    +0.169 HD
ENDBRANCH   1   3
BRANCH   1  19
ATOM     16  C   UNL     1      -1.528  -1.843   0.011  0.00  0.00    +0.176 A 
ATOM     17  C   UNL     1      -1.624  -2.526  -1.200  0.00  0.00    +0.163 A 
ATOM     18  C   UNL     1      -1.781  -3.899  -1.208  0.00  0.00    +0.062 A 
ATOM     19  C   UNL     1      -1.843  -4.599  -0.002  0.00  0.00    +0.044 A 
ATOM     20  C   UNL     1      -1.745  -3.911   1.208  0.00  0.00    +0.032 A 
ATOM     21  C   UNL     1      -1.583  -2.541   1.211  0.00  0.00    +0.064 A 
ATOM     22 BR   UNL     1      -1.444  -1.610   2.851  0.00  0.00    -0.046 Br
BRANCH  17  23
ATOM     23  O   UNL     1      -1.565  -1.841  -2.373  0.00  0.00    -0.491 OA
ATOM     24  C   UNL     1      -1.671  -2.605  -3.576  0.00  0.00    +0.277 C 
ENDBRANCH  17  23
BRANCH  16  25
ATOM     25  O   UNL     1      -1.373  -0.494   0.018  0.00  0.00    -0.487 OA
BRANCH  25  27
ATOM     26  C   UNL     1      -0.061   1.536   0.008  0.00  0.00    +0.048 C 
ATOM     27  C   UNL     1      -0.034   0.006  -0.004  0.00  0.00    +0.226 C 
ENDBRANCH  25  27
ENDBRANCH  16  25
ENDBRANCH   1  19
TORSDOF 5
