REMARK  Name = ZINC50588257
REMARK  9 active torsions:
REMARK  status: ('A' for Active; 'I' for Inactive)
REMARK    1  A    between atoms: C_1  and  C_2
REMARK    2  A    between atoms: C_4  and  O_23
REMARK    3  A    between atoms: C_7  and  N_8
REMARK    4  A    between atoms: C_9  and  C_11
REMARK    5  A    between atoms: N_13  and  N_14
REMARK    6  A    between atoms: N_14  and  C_15
REMARK    7  A    between atoms: O_23  and  C_24
REMARK    8  A    between atoms: C_24  and  C_25
REMARK    9  A    between atoms: C_24  and  C_26
REMARK                            x       y       z     vdW  Elec       q    Type
REMARK                         _______ _______ _______ _____ _____    ______ ____
ROOT
ATOM      1  N   UNL     1       0.821   0.997   2.238  0.00  0.00    -0.277 N 
ATOM      2  C   UNL     1       0.690   0.568   3.509  0.00  0.00    +0.305 C 
ATOM      3  O   UNL     1       0.480  -0.606   3.736  0.00  0.00    -0.265 OA
ATOM      4  H   UNL     1       1.042   1.924   2.059  0.00  0.00    +0.155 HD
ENDROOT
BRANCH   1  11
ATOM      5  C   UNL     1      -0.158   2.026  -0.226  0.00  0.00    +0.046 C 
ATOM      6  C   UNL     1       0.161   0.564  -0.044  0.00  0.00    -0.026 A 
ATOM      7  C   UNL     1      -0.014  -0.317  -1.092  0.00  0.00    +0.050 A 
ATOM      8  C   UNL     1       0.279  -1.662  -0.925  0.00  0.00    +0.121 A 
ATOM      9  C   UNL     1       0.750  -2.124   0.296  0.00  0.00    +0.047 A 
ATOM     10  C   UNL     1       0.926  -1.245   1.345  0.00  0.00    +0.027 A 
ATOM     11  C   UNL     1       0.637   0.104   1.177  0.00  0.00    +0.037 A 
BRANCH   8  12
ATOM     12  O   UNL     1       0.105  -2.529  -1.958  0.00  0.00    -0.489 OA
BRANCH  12  13
ATOM     13  C   UNL     1       0.313  -3.916  -1.683  0.00  0.00    +0.167 C 
ATOM     14  C   UNL     1      -0.487  -4.759  -2.678  0.00  0.00    +0.051 C 
ATOM     15  C   UNL     1       1.801  -4.245  -1.817  0.00  0.00    +0.051 C 
ENDBRANCH  12  13
ENDBRANCH   8  12
ENDBRANCH   1  11
BRANCH   2  16
ATOM     16  C   UNL     1       0.803   1.538   4.639  0.00  0.00    +0.315 C 
ATOM     17  O   UNL     1       1.013   2.712   4.413  0.00  0.00    -0.264 OA
ATOM     18  N   UNL     1       0.672   1.110   5.911  0.00  0.00    -0.229 N 
ATOM     19  H   UNL     1       0.505   0.172   6.091  0.00  0.00    +0.173 HD
BRANCH  18  20
ATOM     20  N   UNL     1       0.779   2.020   6.971  0.00  0.00    -0.263 N 
ATOM     21  H   UNL     1       0.947   2.958   6.790  0.00  0.00    +0.170 HD
BRANCH  20  22
ATOM     22  C   UNL     1       0.643   1.575   8.289  0.00  0.00    +0.063 A 
ATOM     23  C   UNL     1       0.409   0.232   8.550  0.00  0.00    +0.027 A 
ATOM     24  C   UNL     1       0.275  -0.205   9.854  0.00  0.00    +0.022 A 
ATOM     25  C   UNL     1       0.375   0.696  10.900  0.00  0.00    +0.042 A 
ATOM     26  C   UNL     1       0.608   2.035  10.644  0.00  0.00    +0.042 A 
ATOM     27  C   UNL     1       0.748   2.477   9.342  0.00  0.00    +0.065 A 
ATOM     28 CL   UNL     1       1.048   4.156   9.021  0.00  0.00    -0.082 Cl
ATOM     29 CL   UNL     1       0.207   0.143  12.537  0.00  0.00    -0.083 Cl
ENDBRANCH  20  22
ENDBRANCH  18  20
ENDBRANCH   2  16
TORSDOF 6
