REMARK  Name = ZINC12372797
REMARK  7 active torsions:
REMARK  status: ('A' for Active; 'I' for Inactive)
REMARK    1  A    between atoms: C_4  and  C_7
REMARK    2  A    between atoms: C_7  and  N_8
REMARK    3  A    between atoms: C_12  and  C_15
REMARK    4  A    between atoms: C_12  and  O_23
REMARK    5  A    between atoms: C_15  and  N_57
REMARK    6  A    between atoms: C_16  and  N_57
REMARK    7  A    between atoms: C_19  and  O_22
REMARK                            x       y       z     vdW  Elec       q    Type
REMARK                         _______ _______ _______ _____ _____    ______ ____
ROOT
ATOM      1  N   UNL     1       0.274   2.379   3.519  0.00  0.00    -0.299 N 
ATOM      2  C   UNL     1      -0.198   3.757   3.590  0.00  0.00    +0.108 C 
ATOM      3  C   UNL     1      -1.324   3.989   2.582  0.00  0.00    +0.022 C 
ATOM      4  C   UNL     1      -0.864   3.487   1.207  0.00  0.00    +0.044 C 
ATOM      5  C   UNL     1      -0.730   1.964   1.269  0.00  0.00    +0.127 C 
ATOM      6  C   UNL     1       0.064   1.569   2.481  0.00  0.00    +0.245 C 
ATOM      7  O   UNL     1       0.540   0.454   2.518  0.00  0.00    -0.273 OA
ENDROOT
BRANCH   5   8
ATOM      8  O   UNL     1      -2.031   1.377   1.342  0.00  0.00    -0.381 OA
ATOM      9  H   UNL     1      -2.025   0.410   1.381  0.00  0.00    +0.211 HD
ENDBRANCH   5   8
BRANCH   1  10
ATOM     10  C   UNL     1       1.026   1.852   4.661  0.00  0.00    +0.111 C 
BRANCH  10  14
ATOM     11  C   UNL     1       5.281   1.161   4.287  0.00  0.00    +0.000 C 
ATOM     12  C   UNL     1       4.782   1.950   5.499  0.00  0.00    +0.000 C 
ATOM     13  C   UNL     1       3.290   1.681   5.703  0.00  0.00    +0.005 C 
ATOM     14  C   UNL     1       2.518   2.120   4.457  0.00  0.00    +0.006 C 
ATOM     15  C   UNL     1       3.017   1.331   3.244  0.00  0.00    +0.005 C 
ATOM     16  C   UNL     1       4.509   1.599   3.041  0.00  0.00    +0.000 C 
ENDBRANCH  10  14
ENDBRANCH   1  10
BRANCH   5  17
ATOM     17  C   UNL     1      -0.018   1.465   0.010  0.00  0.00    -0.037 C 
BRANCH  17  18
ATOM     18  N   UNL     1      -0.782   1.889  -1.178  0.00  0.00    +0.383 N 
ATOM     19  H   UNL     1      -0.918   2.906  -1.148  0.00  0.00    -0.085 HD
ATOM     20  H   UNL     1      -1.697   1.422  -1.177  0.00  0.00    -0.085 HD
BRANCH  18  21
ATOM     21  C   UNL     1      -0.054   1.531  -2.410  0.00  0.00    -0.072 C 
ATOM     22  C   UNL     1       0.956   2.630  -2.744  0.00  0.00    -0.013 C 
ATOM     23  C   UNL     1       1.704   2.263  -4.027  0.00  0.00    +0.030 C 
ATOM     24  C   UNL     1       0.705   2.121  -5.178  0.00  0.00    +0.114 C 
ATOM     25  C   UNL     1      -0.305   1.021  -4.843  0.00  0.00    +0.030 C 
ATOM     26  C   UNL     1      -1.053   1.389  -3.560  0.00  0.00    -0.013 C 
BRANCH  24  27
ATOM     27  O   UNL     1       1.403   1.777  -6.376  0.00  0.00    -0.392 OA
ATOM     28  H   UNL     1       2.062   2.431  -6.649  0.00  0.00    +0.210 HD
ENDBRANCH  24  27
ENDBRANCH  18  21
ENDBRANCH  17  18
ENDBRANCH   5  17
TORSDOF 7
