REMARK  Name = ZINC36310440
REMARK  7 active torsions:
REMARK  status: ('A' for Active; 'I' for Inactive)
REMARK    1  A    between atoms: C_1  and  C_2
REMARK    2  A    between atoms: C_2  and  C_4
REMARK    3  A    between atoms: C_2  and  N_10
REMARK    4  A    between atoms: C_11  and  C_13
REMARK    5  A    between atoms: C_13  and  C_15
REMARK    6  A    between atoms: C_13  and  N_20
REMARK    7  A    between atoms: N_28  and  C_29
REMARK                            x       y       z     vdW  Elec       q    Type
REMARK                         _______ _______ _______ _____ _____    ______ ____
ROOT
ATOM      1  C   UNL     1      -4.759  -0.494  -1.767  0.00  0.00    +0.146 C 
ENDROOT
BRANCH   1   2
ATOM      2  N   UNL     1      -4.920  -1.165  -3.065  0.00  0.00    -0.288 NA
ATOM      3  C   UNL     1      -5.589  -0.285  -4.032  0.00  0.00    +0.104 C 
ATOM      4  C   UNL     1      -5.899  -1.077  -5.307  0.00  0.00    +0.124 C 
ATOM      5  N   UNL     1      -4.654  -1.696  -5.787  0.00  0.00    -0.283 N 
ATOM      6  C   UNL     1      -3.856  -2.481  -4.834  0.00  0.00    +0.124 C 
ATOM      7  C   UNL     1      -3.626  -1.635  -3.578  0.00  0.00    +0.104 C 
ATOM      8  C   UNL     1      -4.257  -1.548  -7.066  0.00  0.00    +0.307 C 
ATOM      9  O   UNL     1      -4.874  -0.815  -7.814  0.00  0.00    -0.252 OA
ATOM     10  N   UNL     1      -3.174  -2.213  -7.517  0.00  0.00    -0.269 N 
ATOM     11  H   UNL     1      -2.730  -2.859  -6.946  0.00  0.00    +0.156 HD
BRANCH  10  12
ATOM     12  C   UNL     1      -2.692  -1.973  -8.808  0.00  0.00    +0.035 A 
ATOM     13  C   UNL     1      -2.824  -0.712  -9.376  0.00  0.00    +0.023 A 
ATOM     14  C   UNL     1      -2.347  -0.478 -10.651  0.00  0.00    +0.002 A 
ATOM     15  C   UNL     1      -1.739  -1.496 -11.361  0.00  0.00    +0.000 A 
ATOM     16  C   UNL     1      -1.606  -2.753 -10.799  0.00  0.00    +0.002 A 
ATOM     17  C   UNL     1      -2.076  -2.992  -9.522  0.00  0.00    +0.023 A 
ENDBRANCH  10  12
ENDBRANCH   1   2
BRANCH   1  18
ATOM     18  C   UNL     1      -6.121   0.005  -1.279  0.00  0.00    +0.015 C 
ATOM     19  C   UNL     1      -5.997   0.560   0.154  0.00  0.00    +0.005 C 
ATOM     20  C   UNL     1      -7.317   0.133   0.843  0.00  0.00    +0.000 C 
ATOM     21  C   UNL     1      -7.565  -1.280   0.259  0.00  0.00    +0.000 C 
ATOM     22  C   UNL     1      -7.118  -1.165  -1.213  0.00  0.00    +0.005 C 
ENDBRANCH   1  18
BRANCH   1  24
ATOM     23  N   UNL     1      -3.259   1.234  -0.828  0.00  0.00    -0.307 N 
ATOM     24  C   UNL     1      -3.821   0.675  -1.919  0.00  0.00    +0.231 C 
ATOM     25  O   UNL     1      -3.571   1.113  -3.022  0.00  0.00    -0.274 OA
ATOM     26  H   UNL     1      -3.507   0.925   0.057  0.00  0.00    +0.149 HD
BRANCH  23  28
ATOM     27  C   UNL     1      -2.998   3.649  -1.115  0.00  0.00    +0.033 C 
ATOM     28  C   UNL     1      -2.274   2.308  -0.980  0.00  0.00    +0.100 C 
BRANCH  28  29
ATOM     29  C   UNL     1      -1.376   2.341   0.229  0.00  0.00    -0.027 A 
ATOM     30  C   UNL     1      -1.906   2.135   1.489  0.00  0.00    +0.005 A 
ATOM     31  C   UNL     1      -1.082   2.165   2.599  0.00  0.00    +0.000 A 
ATOM     32  C   UNL     1       0.272   2.401   2.448  0.00  0.00    +0.000 A 
ATOM     33  C   UNL     1       0.802   2.605   1.188  0.00  0.00    +0.000 A 
ATOM     34  C   UNL     1      -0.021   2.571   0.078  0.00  0.00    +0.005 A 
ENDBRANCH  28  29
ENDBRANCH  23  28
ENDBRANCH   1  24
TORSDOF 6
