REMARK  Name = ZINC09338643
REMARK  7 active torsions:
REMARK  status: ('A' for Active; 'I' for Inactive)
REMARK    1  A    between atoms: C_1  and  C_2
REMARK    2  A    between atoms: C_2  and  C_4
REMARK    3  A    between atoms: C_2  and  N_64
REMARK    4  A    between atoms: C_7  and  S_15
REMARK    5  A    between atoms: N_8  and  C_9
REMARK    6  A    between atoms: S_15  and  C_16
REMARK    7  A    between atoms: C_16  and  C_17
REMARK                            x       y       z     vdW  Elec       q    Type
REMARK                         _______ _______ _______ _____ _____    ______ ____
ROOT
ATOM      1  C   UNL     1       0.880   0.067   4.622  0.00  0.00    +0.125 A 
ATOM      2  N   UNL     1       1.713  -0.196   3.655  0.00  0.00    -0.135 NA
ATOM      3  N   UNL     1       1.216   0.177   2.529  0.00  0.00    -0.122 NA
ATOM      4  C   UNL     1       0.032   0.711   2.718  0.00  0.00    +0.196 A 
ATOM      5  N   UNL     1      -0.223   0.655   4.061  0.00  0.00    -0.275 N 
ENDROOT
BRANCH   5   6
ATOM      6  C   UNL     1      -1.373   1.105   4.726  0.00  0.00    +0.050 A 
ATOM      7  C   UNL     1      -1.288   2.155   5.630  0.00  0.00    +0.026 A 
ATOM      8  C   UNL     1      -2.423   2.600   6.278  0.00  0.00    +0.002 A 
ATOM      9  C   UNL     1      -3.642   1.994   6.036  0.00  0.00    +0.000 A 
ATOM     10  C   UNL     1      -3.729   0.944   5.140  0.00  0.00    +0.002 A 
ATOM     11  C   UNL     1      -2.598   0.498   4.484  0.00  0.00    +0.026 A 
ENDBRANCH   5   6
BRANCH   1  13
ATOM     12  C   UNL     1       2.083   0.787   6.667  0.00  0.00    -0.005 C 
ATOM     13  C   UNL     1       1.091  -0.222   6.086  0.00  0.00    -0.002 C 
BRANCH  13  19
ATOM     14  C   UNL     1       0.747  -2.571   5.608  0.00  0.00    -0.078 C 
ATOM     15  C   UNL     1       1.405  -3.951   5.665  0.00  0.00    -0.019 C 
ATOM     16  C   UNL     1       1.658  -4.330   7.127  0.00  0.00    -0.004 C 
ATOM     17  C   UNL     1       2.536  -3.259   7.779  0.00  0.00    -0.019 C 
ATOM     18  C   UNL     1       1.846  -1.899   7.661  0.00  0.00    -0.078 C 
ATOM     19  N   UNL     1       1.653  -1.581   6.230  0.00  0.00    +0.386 N 
ATOM     20  H   UNL     1       2.563  -1.618   5.755  0.00  0.00    -0.081 HD
ENDBRANCH  13  19
ENDBRANCH   1  13
BRANCH   4  21
ATOM     21  S   UNL     1      -1.032   1.369   1.477  0.00  0.00    -0.081 S 
BRANCH  21  22
ATOM     22  C   UNL     1      -0.013   1.086   0.008  0.00  0.00    +0.113 C 
BRANCH  22  23
ATOM     23  C   UNL     1      -0.741   1.585  -1.212  0.00  0.00    -0.019 A 
ATOM     24  C   UNL     1      -1.661   0.752  -1.788  0.00  0.00    +0.097 A 
ATOM     25  C   UNL     1      -2.509   1.239  -2.800  0.00  0.00    +0.338 A 
ATOM     26  O   UNL     1      -3.306   0.491  -3.335  0.00  0.00    -0.245 OA
ATOM     27  O   UNL     1      -2.442   2.525  -3.177  0.00  0.00    -0.422 OA
ATOM     28  C   UNL     1      -1.470   3.335  -2.708  0.00  0.00    +0.140 A 
ATOM     29  C   UNL     1      -0.526   2.856  -1.782  0.00  0.00    +0.029 A 
ATOM     30  C   UNL     1       0.646   3.692  -1.526  0.00  0.00    -0.007 A 
ATOM     31  C   UNL     1       1.832   3.226  -0.958  0.00  0.00    +0.009 A 
ATOM     32  C   UNL     1       2.827   4.098  -0.614  0.00  0.00    +0.001 A 
ATOM     33  C   UNL     1       2.683   5.465  -0.822  0.00  0.00    +0.001 A 
ATOM     34  C   UNL     1       1.573   5.952  -1.444  0.00  0.00    +0.008 A 
ATOM     35  C   UNL     1       0.576   5.066  -1.882  0.00  0.00    -0.017 A 
ATOM     36  C   UNL     1      -0.490   5.528  -2.677  0.00  0.00    +0.012 A 
ATOM     37  C   UNL     1      -1.453   4.677  -3.102  0.00  0.00    +0.047 A 
ENDBRANCH  22  23
ENDBRANCH  21  22
ENDBRANCH   4  21
TORSDOF 6
