REMARK  Name = ZINC18256351
REMARK  3 active torsions:
REMARK  status: ('A' for Active; 'I' for Inactive)
REMARK    1  A    between atoms: C_4  and  C_7
REMARK    2  A    between atoms: C_8  and  N_13
REMARK    3  A    between atoms: N_14  and  C_15
REMARK                            x       y       z     vdW  Elec       q    Type
REMARK                         _______ _______ _______ _____ _____    ______ ____
ROOT
ATOM      1  C   UNL     1       3.696  -0.685  -0.037  0.00  0.00    +0.108 A 
ATOM      2  C   UNL     1       3.880  -1.905   0.631  0.00  0.00    +0.152 A 
ATOM      3  S   UNL     1       5.590  -2.240   0.239  0.00  0.00    -0.031 S 
ATOM      4  C   UNL     1       5.895  -0.871  -0.689  0.00  0.00    +0.158 A 
ATOM      5  N   UNL     1       4.748  -0.223  -0.687  0.00  0.00    -0.223 NA
ATOM      6  N   UNL     1       7.072  -0.512  -1.313  0.00  0.00    -0.337 N 
ATOM      7  H   UNL     1       7.853  -1.084  -1.241  0.00  0.00    +0.144 HD
ATOM      8  H   UNL     1       7.120   0.311  -1.823  0.00  0.00    +0.144 HD
ENDROOT
BRANCH   1  12
ATOM      9  C   UNL     1      -0.017   1.379   0.010  0.00  0.00    +0.000 A 
ATOM     10  C   UNL     1       1.169   2.093   0.002  0.00  0.00    +0.001 A 
ATOM     11  C   UNL     1       2.377   1.429  -0.013  0.00  0.00    +0.010 A 
ATOM     12  C   UNL     1       2.403   0.034  -0.021  0.00  0.00    +0.003 A 
ATOM     13  C   UNL     1       1.204  -0.680  -0.013  0.00  0.00    +0.010 A 
ATOM     14  C   UNL     1       0.002  -0.004   0.002  0.00  0.00    +0.001 A 
ENDBRANCH   1  12
BRANCH   2  15
ATOM     15  N   UNL     1       3.011  -2.621   1.364  0.00  0.00    -0.140 NA
ATOM     16  N   UNL     1       3.384  -3.732   1.902  0.00  0.00    -0.149 NA
BRANCH  16  17
ATOM     17  C   UNL     1       2.501  -4.461   2.646  0.00  0.00    +0.086 A 
ATOM     18  C   UNL     1       1.190  -4.008   2.822  0.00  0.00    +0.031 A 
ATOM     19  C   UNL     1       0.303  -4.748   3.575  0.00  0.00    +0.022 A 
ATOM     20  C   UNL     1       0.709  -5.939   4.156  0.00  0.00    +0.041 A 
ATOM     21  C   UNL     1       2.006  -6.393   3.986  0.00  0.00    +0.022 A 
ATOM     22  C   UNL     1       2.901  -5.666   3.231  0.00  0.00    +0.031 A 
ATOM     23 CL   UNL     1      -0.414  -6.864   5.103  0.00  0.00    -0.084 Cl
ENDBRANCH  16  17
ENDBRANCH   2  15
TORSDOF 3
