REMARK  Name = ZINC04322589
REMARK  4 active torsions:
REMARK  status: ('A' for Active; 'I' for Inactive)
REMARK    1  A    between atoms: C_3  and  C_8
REMARK    2  A    between atoms: C_8  and  O_10
REMARK    3  A    between atoms: O_10  and  N_11
REMARK    4  A    between atoms: C_12  and  C_13
REMARK                            x       y       z     vdW  Elec       q    Type
REMARK                         _______ _______ _______ _____ _____    ______ ____
ROOT
ATOM      1  N   UNL     1       5.965   2.348  -0.043  0.00  0.00    -0.059 NA
ATOM      2  C   UNL     1       7.161   1.833  -0.057  0.00  0.00    +0.166 C 
ATOM      3  N   UNL     1       7.321   0.459  -0.066  0.00  0.00    -0.340 N 
ATOM      4  H   UNL     1       6.543  -0.120  -0.061  0.00  0.00    +0.144 HD
ATOM      5  H   UNL     1       8.212   0.075  -0.076  0.00  0.00    +0.144 HD
ENDROOT
BRANCH   2   6
ATOM      6  C   UNL     1       8.347   2.716  -0.065  0.00  0.00    +0.054 A 
ATOM      7  C   UNL     1       8.894   3.146  -1.275  0.00  0.00    +0.053 A 
ATOM      8  C   UNL     1      10.002   3.971  -1.274  0.00  0.00    +0.021 A 
ATOM      9  C   UNL     1      10.570   4.371  -0.078  0.00  0.00    +0.003 A 
ATOM     10  C   UNL     1      10.033   3.949   1.125  0.00  0.00    +0.021 A 
ATOM     11  C   UNL     1       8.921   3.129   1.139  0.00  0.00    +0.053 A 
ATOM     12 CL   UNL     1       8.244   2.607   2.650  0.00  0.00    -0.083 Cl
ATOM     13 CL   UNL     1       8.184   2.644  -2.777  0.00  0.00    -0.083 Cl
ENDBRANCH   2   6
BRANCH   1  14
ATOM     14  O   UNL     1       4.829   1.502  -0.036  0.00  0.00    -0.310 OA
BRANCH  14  15
ATOM     15  C   UNL     1       3.656   2.162  -0.022  0.00  0.00    +0.366 C 
ATOM     16  O   UNL     1       3.642   3.377  -0.015  0.00  0.00    -0.243 OA
BRANCH  15  19
ATOM     17  C   UNL     1      -0.017   1.379   0.010  0.00  0.00    +0.002 A 
ATOM     18  C   UNL     1       1.167   2.088   0.002  0.00  0.00    +0.015 A 
ATOM     19  C   UNL     1       2.385   1.408  -0.013  0.00  0.00    +0.063 A 
ATOM     20  C   UNL     1       2.398   0.012  -0.021  0.00  0.00    +0.035 A 
ATOM     21  C   UNL     1       1.207  -0.686  -0.013  0.00  0.00    +0.042 A 
ATOM     22  C   UNL     1       0.002  -0.004   0.002  0.00  0.00    +0.020 A 
ATOM     23 CL   UNL     1       1.220  -2.422  -0.022  0.00  0.00    -0.084 Cl
ENDBRANCH  15  19
ENDBRANCH  14  15
ENDBRANCH   1  14
TORSDOF 4
