REMARK  Name = ZINC39637136
REMARK  8 active torsions:
REMARK  status: ('A' for Active; 'I' for Inactive)
REMARK    1  A    between atoms: C_1  and  C_2
REMARK    2  A    between atoms: C_7  and  N_12
REMARK    3  A    between atoms: C_9  and  C_11
REMARK    4  A    between atoms: C_13  and  C_15
REMARK    5  A    between atoms: C_26  and  C_28
REMARK    6  A    between atoms: C_33  and  O_34
REMARK    7  A    between atoms: O_34  and  C_35
REMARK    8  A    between atoms: C_35  and  C_37
REMARK                            x       y       z     vdW  Elec       q    Type
REMARK                         _______ _______ _______ _____ _____    ______ ____
ROOT
ATOM      1  C   UNL     1       1.846  -4.326   4.583  0.00  0.00    +0.100 C 
ATOM      2  C   UNL     1       3.306  -4.448   4.092  0.00  0.00    +0.121 C 
ATOM      3  N   UNL     1       3.789  -5.725   4.667  0.00  0.00    -0.296 N 
ATOM      4  C   UNL     1       2.632  -6.645   4.546  0.00  0.00    +0.115 C 
ATOM      5  C   UNL     1       1.407  -5.770   4.878  0.00  0.00    -0.004 C 
ATOM      6  C   UNL     1       0.228  -6.156   3.991  0.00  0.00    -0.010 C 
ATOM      7  C   UNL     1      -0.228  -7.574   4.344  0.00  0.00    -0.082 C 
ATOM      8  N   UNL     1      -0.616  -7.628   5.759  0.00  0.00    +0.379 N 
ATOM      9  C   UNL     1       0.547  -7.346   6.608  0.00  0.00    -0.082 C 
ATOM     10  C   UNL     1       1.036  -5.918   6.351  0.00  0.00    -0.010 C 
ATOM     11  C   UNL     1       5.005  -5.992   5.184  0.00  0.00    +0.250 C 
ATOM     12  O   UNL     1       5.283  -7.122   5.534  0.00  0.00    -0.270 OA
ATOM     13  H   UNL     1      -1.334  -6.941   5.936  0.00  0.00    -0.086 HD
ATOM     14  H   UNL     1      -0.974  -8.547   5.974  0.00  0.00    -0.086 HD
ENDROOT
BRANCH  11  15
ATOM     15  C   UNL     1       5.999  -4.910   5.326  0.00  0.00    +0.079 A 
ATOM     16  C   UNL     1       6.069  -3.891   4.374  0.00  0.00    +0.017 A 
ATOM     17  C   UNL     1       6.999  -2.884   4.512  0.00  0.00    +0.001 A 
ATOM     18  C   UNL     1       7.867  -2.877   5.592  0.00  0.00    +0.004 A 
ATOM     19  C   UNL     1       7.809  -3.879   6.541  0.00  0.00    +0.047 A 
ATOM     20  C   UNL     1       6.875  -4.897   6.420  0.00  0.00    +0.144 A 
BRANCH  20  21
ATOM     21  O   UNL     1       6.813  -5.880   7.354  0.00  0.00    -0.425 OA
BRANCH  21  22
ATOM     22  C   UNL     1       5.963  -5.721   8.381  0.00  0.00    +0.309 C 
ATOM     23  O   UNL     1       5.217  -4.771   8.406  0.00  0.00    -0.251 OA
ATOM     24  C   UNL     1       5.939  -6.727   9.503  0.00  0.00    +0.136 C 
ENDBRANCH  21  22
ENDBRANCH  20  21
ENDBRANCH  11  15
BRANCH   1  26
ATOM     25  N   UNL     1      -0.141  -3.053   3.840  0.00  0.00    -0.312 N 
ATOM     26  C   UNL     1       0.980  -3.724   3.507  0.00  0.00    +0.218 C 
ATOM     27  O   UNL     1       1.291  -3.843   2.340  0.00  0.00    -0.275 OA
ATOM     28  H   UNL     1      -0.390  -2.958   4.773  0.00  0.00    +0.149 HD
BRANCH  25  34
ATOM     29  C   UNL     1      -4.731  -1.587   2.733  0.00  0.00    +0.008 C 
ATOM     30  C   UNL     1      -3.296  -1.722   2.217  0.00  0.00    -0.009 C 
ATOM     31  C   UNL     1      -2.757  -0.340   1.842  0.00  0.00    +0.003 C 
ATOM     32  C   UNL     1      -1.323  -0.475   1.326  0.00  0.00    +0.002 C 
ATOM     33  C   UNL     1      -0.444  -1.087   2.418  0.00  0.00    +0.022 C 
ATOM     34  C   UNL     1      -0.983  -2.468   2.794  0.00  0.00    +0.076 C 
ATOM     35  C   UNL     1      -2.417  -2.333   3.310  0.00  0.00    +0.009 C 
ATOM     36  C   UNL     1      -2.956  -3.715   3.685  0.00  0.00    +0.009 C 
ENDBRANCH  25  34
ENDBRANCH   1  26
TORSDOF 5
