REMARK  Name = ZINC06196843
REMARK  10 active torsions:
REMARK  status: ('A' for Active; 'I' for Inactive)
REMARK    1  A    between atoms: C_1  and  C_2
REMARK    2  A    between atoms: C_2  and  O_3
REMARK    3  A    between atoms: O_3  and  C_4
REMARK    4  A    between atoms: C_11  and  C_16
REMARK    5  A    between atoms: C_16  and  C_18
REMARK    6  A    between atoms: C_16  and  N_75
REMARK    7  A    between atoms: N_22  and  C_23
REMARK    8  A    between atoms: C_23  and  C_24
REMARK    9  A    between atoms: C_32  and  C_35
REMARK   10  A    between atoms: C_35  and  C_36
REMARK                            x       y       z     vdW  Elec       q    Type
REMARK                         _______ _______ _______ _____ _____    ______ ____
ROOT
ATOM      1  C   UNL     1      -2.538   1.093   0.020  0.00  0.00    +0.039 C 
ENDROOT
BRANCH   1   9
ATOM      2  C   UNL     1       2.787   3.495  -2.056  0.00  0.00    +0.121 A 
ATOM      3  C   UNL     1       3.097   4.197  -0.894  0.00  0.00    +0.047 A 
ATOM      4  C   UNL     1       2.257   4.157   0.196  0.00  0.00    +0.030 A 
ATOM      5  C   UNL     1       1.086   3.408   0.144  0.00  0.00    +0.049 A 
ATOM      6  C   UNL     1       0.768   2.697  -1.029  0.00  0.00    +0.002 A 
ATOM      7  C   UNL     1       1.629   2.747  -2.130  0.00  0.00    +0.055 A 
ATOM      8  C   UNL     1      -0.468   1.913  -1.071  0.00  0.00    +0.017 A 
ATOM      9  C   UNL     1      -1.262   1.895   0.028  0.00  0.00    +0.011 A 
ATOM     10  C   UNL     1      -0.901   2.631   1.177  0.00  0.00    +0.251 A 
ATOM     11  O   UNL     1      -1.633   2.606   2.152  0.00  0.00    -0.268 OA
ATOM     12  N   UNL     1       0.231   3.354   1.226  0.00  0.00    -0.322 N 
ATOM     13  H   UNL     1       0.458   3.859   2.059  0.00  0.00    +0.169 HD
BRANCH   2  14
ATOM     14  O   UNL     1       3.628   3.547  -3.123  0.00  0.00    -0.492 OA
BRANCH  14  16
ATOM     15  C   UNL     1       5.624   4.277  -4.274  0.00  0.00    +0.048 C 
ATOM     16  C   UNL     1       4.808   4.340  -2.981  0.00  0.00    +0.225 C 
ENDBRANCH  14  16
ENDBRANCH   2  14
ENDBRANCH   1   9
BRANCH   1  22
ATOM     17  C   UNL     1      -1.302  -0.787   0.912  0.00  0.00    -0.077 C 
ATOM     18  C   UNL     1      -1.196  -1.741   2.104  0.00  0.00    -0.015 C 
ATOM     19  C   UNL     1      -2.465  -2.594   2.184  0.00  0.00    -0.010 C 
ATOM     20  C   UNL     1      -3.683  -1.673   2.304  0.00  0.00    -0.015 C 
ATOM     21  C   UNL     1      -3.716  -0.721   1.106  0.00  0.00    -0.077 C 
ATOM     22  N   UNL     1      -2.479   0.087   1.100  0.00  0.00    +0.389 N 
ATOM     23  H   UNL     1      -2.393   0.572   2.002  0.00  0.00    -0.080 HD
BRANCH  19  24
ATOM     24  C   UNL     1      -2.393  -3.508   3.409  0.00  0.00    +0.038 C 
BRANCH  24  25
ATOM     25  C   UNL     1      -1.268  -4.495   3.233  0.00  0.00    -0.047 A 
ATOM     26  C   UNL     1      -1.508  -5.716   2.630  0.00  0.00    +0.003 A 
ATOM     27  C   UNL     1      -0.476  -6.620   2.465  0.00  0.00    +0.000 A 
ATOM     28  C   UNL     1       0.795  -6.307   2.911  0.00  0.00    +0.000 A 
ATOM     29  C   UNL     1       1.034  -5.088   3.517  0.00  0.00    +0.000 A 
ATOM     30  C   UNL     1       0.002  -4.183   3.679  0.00  0.00    +0.003 A 
ENDBRANCH  24  25
ENDBRANCH  19  24
ENDBRANCH   1  22
BRANCH   1  31
ATOM     31  C   UNL     1      -2.701   0.423  -1.320  0.00  0.00    +0.143 A 
ATOM     32  N   UNL     1      -2.045  -0.625  -1.756  0.00  0.00    -0.115 NA
ATOM     33  N   UNL     1      -2.467  -0.894  -2.943  0.00  0.00    -0.023 NA
ATOM     34  N   UNL     1      -3.376  -0.045  -3.275  0.00  0.00    -0.044 NA
ATOM     35  N   UNL     1      -3.552   0.780  -2.299  0.00  0.00    -0.228 N 
BRANCH  35  36
ATOM     36  C   UNL     1      -4.499   1.897  -2.264  0.00  0.00    +0.178 C 
BRANCH  36  37
ATOM     37  C   UNL     1      -3.822   3.156  -2.810  0.00  0.00    +0.140 C 
ATOM     38  C   UNL     1      -4.823   4.339  -2.833  0.00  0.00    +0.035 C 
ATOM     39  C   UNL     1      -3.852   5.549  -2.768  0.00  0.00    +0.031 C 
ATOM     40  C   UNL     1      -2.712   5.006  -1.880  0.00  0.00    +0.160 C 
ATOM     41  O   UNL     1      -2.766   3.576  -1.931  0.00  0.00    -0.375 OA
ENDBRANCH  36  37
ENDBRANCH  35  36
ENDBRANCH   1  31
TORSDOF 9
