REMARK  Name = ZINC01880536
REMARK  7 active torsions:
REMARK  status: ('A' for Active; 'I' for Inactive)
REMARK    1  A    between atoms: C_4  and  C_7
REMARK    2  A    between atoms: C_8  and  C_18
REMARK    3  A    between atoms: N_20  and  N_21
REMARK    4  A    between atoms: C_22  and  C_23
REMARK    5  A    between atoms: C_28  and  O_29
REMARK    6  A    between atoms: O_29  and  C_30
REMARK    7  A    between atoms: C_30  and  C_32
REMARK                            x       y       z     vdW  Elec       q    Type
REMARK                         _______ _______ _______ _____ _____    ______ ____
ROOT
ATOM      1  C   UNL     1       5.127   1.257  -1.193  0.00  0.00    +0.286 C 
ATOM      2  O   UNL     1       4.268   2.104  -1.347  0.00  0.00    -0.267 OA
ATOM      3  N   UNL     1       6.105   1.114  -2.109  0.00  0.00    -0.202 N 
ATOM      4  H   UNL     1       6.751   0.395  -2.022  0.00  0.00    +0.178 HD
ENDROOT
BRANCH   1   6
ATOM      5  C   UNL     1       4.147   0.419   1.007  0.00  0.00    +0.109 A 
ATOM      6  C   UNL     1       5.099   0.387  -0.005  0.00  0.00    +0.177 A 
ATOM      7  N   UNL     1       5.989  -0.575   0.288  0.00  0.00    -0.124 NA
ATOM      8  N   UNL     1       5.673  -1.145   1.397  0.00  0.00    -0.058 NA
ATOM      9  N   UNL     1       4.510  -0.547   1.902  0.00  0.00    -0.187 N 
ATOM     10  C   UNL     1       3.848  -0.878   3.088  0.00  0.00    +0.241 A 
ATOM     11  C   UNL     1       4.258  -1.917   4.038  0.00  0.00    +0.206 A 
ATOM     12  N   UNL     1       3.401  -1.935   5.021  0.00  0.00    -0.032 NA
ATOM     13  O   UNL     1       2.425  -0.941   4.764  0.00  0.00    -0.239 OA
ATOM     14  N   UNL     1       2.765  -0.312   3.541  0.00  0.00    -0.027 NA
ATOM     15  N   UNL     1       5.370  -2.742   3.913  0.00  0.00    -0.337 N 
ATOM     16  H   UNL     1       5.954  -2.656   3.143  0.00  0.00    +0.144 HD
ATOM     17  H   UNL     1       5.562  -3.404   4.595  0.00  0.00    +0.144 HD
BRANCH   5  21
ATOM     18  C   UNL     1       0.796   3.014   1.275  0.00  0.00    +0.000 A 
ATOM     19  C   UNL     1       2.070   3.543   1.166  0.00  0.00    +0.001 A 
ATOM     20  C   UNL     1       3.163   2.706   1.079  0.00  0.00    +0.010 A 
ATOM     21  C   UNL     1       2.981   1.322   1.101  0.00  0.00    +0.003 A 
ATOM     22  C   UNL     1       1.693   0.794   1.210  0.00  0.00    +0.010 A 
ATOM     23  C   UNL     1       0.609   1.643   1.296  0.00  0.00    +0.001 A 
ENDBRANCH   5  21
ENDBRANCH   1   6
BRANCH   3  24
ATOM     24  N   UNL     1       6.190   2.005  -3.188  0.00  0.00    -0.187 NA
ATOM     25  C   UNL     1       7.189   1.931  -4.013  0.00  0.00    +0.142 C 
BRANCH  25  26
ATOM     26  C   UNL     1       7.311   2.906  -5.112  0.00  0.00    +0.038 A 
ATOM     27  C   UNL     1       8.444   2.907  -5.927  0.00  0.00    +0.028 A 
ATOM     28  C   UNL     1       8.552   3.823  -6.954  0.00  0.00    +0.019 A 
ATOM     29  C   UNL     1       7.539   4.742  -7.179  0.00  0.00    +0.019 A 
ATOM     30  C   UNL     1       6.413   4.750  -6.378  0.00  0.00    +0.048 A 
ATOM     31  C   UNL     1       6.287   3.834  -5.346  0.00  0.00    +0.141 A 
ATOM     32 BR   UNL     1      10.087   3.824  -8.058  0.00  0.00    -0.050 Br
BRANCH  31  33
ATOM     33  O   UNL     1       5.178   3.839  -4.562  0.00  0.00    -0.422 OA
BRANCH  33  34
ATOM     34  C   UNL     1       4.176   2.995  -4.878  0.00  0.00    +0.344 C 
ATOM     35  O   UNL     1       4.289   2.248  -5.830  0.00  0.00    -0.245 OA
BRANCH  34  36
ATOM     36  C   UNL     1       2.942   2.977  -4.067  0.00  0.00    +0.059 A 
ATOM     37  C   UNL     1       2.755   3.919  -3.054  0.00  0.00    +0.015 A 
ATOM     38  C   UNL     1       1.600   3.896  -2.300  0.00  0.00    +0.001 A 
ATOM     39  C   UNL     1       0.627   2.943  -2.547  0.00  0.00    +0.000 A 
ATOM     40  C   UNL     1       0.806   2.007  -3.550  0.00  0.00    +0.001 A 
ATOM     41  C   UNL     1       1.954   2.022  -4.315  0.00  0.00    +0.015 A 
ENDBRANCH  34  36
ENDBRANCH  33  34
ENDBRANCH  31  33
ENDBRANCH  25  26
ENDBRANCH   3  24
TORSDOF 7
