REMARK  Name = ZINC40038373
REMARK  8 active torsions:
REMARK  status: ('A' for Active; 'I' for Inactive)
REMARK    1  A    between atoms: C_1  and  C_2
REMARK    2  A    between atoms: C_4  and  C_33
REMARK    3  A    between atoms: C_6  and  C_32
REMARK    4  A    between atoms: C_7  and  C_11
REMARK    5  A    between atoms: N_13  and  C_14
REMARK    6  A    between atoms: C_15  and  C_22
REMARK    7  A    between atoms: N_24  and  C_25
REMARK    8  A    between atoms: C_25  and  C_26
REMARK                            x       y       z     vdW  Elec       q    Type
REMARK                         _______ _______ _______ _____ _____    ______ ____
ROOT
ATOM      1  C   UNL     1       0.542  -6.590   4.575  0.00  0.00    +0.085 A 
ATOM      2  C   UNL     1       0.487  -6.721   5.950  0.00  0.00    +0.069 A 
ATOM      3  C   UNL     1       0.554  -8.075   6.498  0.00  0.00    -0.023 A 
ATOM      4  C   UNL     1       0.664  -9.039   5.566  0.00  0.00    -0.004 A 
ATOM      5  S   UNL     1       0.668  -8.168   4.019  0.00  0.00    -0.077 S 
ATOM      6  C   UNL     1       0.733 -10.410   6.182  0.00  0.00    +0.043 C 
ATOM      7  C   UNL     1       1.082 -10.154   7.665  0.00  0.00    +0.010 C 
ATOM      8  C   UNL     1       0.530  -8.730   7.877  0.00  0.00    +0.037 C 
ENDROOT
BRANCH   1  11
ATOM      9  C   UNL     1       0.559  -5.485   2.482  0.00  0.00    +0.284 C 
ATOM     10  O   UNL     1       0.652  -6.562   1.924  0.00  0.00    -0.266 OA
ATOM     11  N   UNL     1       0.498  -5.425   3.827  0.00  0.00    -0.273 N 
ATOM     12  H   UNL     1       0.424  -4.566   4.272  0.00  0.00    +0.156 HD
BRANCH   9  19
ATOM     13  C   UNL     1       0.206   1.492   0.014  0.00  0.00    +0.044 C 
ATOM     14  C   UNL     1       0.304  -0.012   0.013  0.00  0.00    -0.047 A 
ATOM     15  C   UNL     1       0.400  -0.693  -1.193  0.00  0.00    +0.007 A 
ATOM     16  C   UNL     1       0.490  -2.056  -1.213  0.00  0.00    -0.039 A 
ATOM     17  C   UNL     1       0.487  -2.768  -0.011  0.00  0.00    +0.027 A 
ATOM     18  C   UNL     1       0.565  -4.187   0.333  0.00  0.00    +0.008 A 
ATOM     19  C   UNL     1       0.512  -4.249   1.689  0.00  0.00    +0.194 A 
ATOM     20  O   UNL     1       0.409  -3.003   2.198  0.00  0.00    -0.450 OA
ATOM     21  C   UNL     1       0.390  -2.083   1.214  0.00  0.00    +0.137 A 
ATOM     22  C   UNL     1       0.304  -0.695   1.210  0.00  0.00    +0.050 A 
ATOM     23  C   UNL     1       0.681  -5.346  -0.623  0.00  0.00    +0.048 C 
ATOM     24  C   UNL     1       0.593  -2.789  -2.526  0.00  0.00    +0.044 C 
ENDBRANCH   9  19
ENDBRANCH   1  11
BRANCH   2  25
ATOM     25  C   UNL     1       0.368  -5.550   6.824  0.00  0.00    +0.247 C 
ATOM     26  O   UNL     1      -0.733  -5.135   7.138  0.00  0.00    -0.270 OA
ATOM     27  N   UNL     1       1.476  -4.933   7.279  0.00  0.00    -0.309 N 
ATOM     28  H   UNL     1       2.353  -5.264   7.029  0.00  0.00    +0.149 HD
BRANCH  27  29
ATOM     29  C   UNL     1       1.356  -3.762   8.152  0.00  0.00    +0.136 C 
BRANCH  29  30
ATOM     30  C   UNL     1       2.752  -3.258   8.522  0.00  0.00    +0.135 C 
ATOM     31  C   UNL     1       2.639  -2.100   9.538  0.00  0.00    +0.035 C 
ATOM     32  C   UNL     1       3.751  -1.129   9.057  0.00  0.00    +0.031 C 
ATOM     33  C   UNL     1       3.691  -1.349   7.524  0.00  0.00    +0.160 C 
ATOM     34  O   UNL     1       3.410  -2.749   7.356  0.00  0.00    -0.375 OA
ENDBRANCH  29  30
ENDBRANCH  27  29
ENDBRANCH   2  25
TORSDOF 5
