REMARK  Name = ZINC38181655
REMARK  10 active torsions:
REMARK  status: ('A' for Active; 'I' for Inactive)
REMARK    1  A    between atoms: C_1  and  C_2
REMARK    2  A    between atoms: C_5  and  C_8
REMARK    3  A    between atoms: C_8  and  N_9
REMARK    4  A    between atoms: C_13  and  C_14
REMARK    5  A    between atoms: C_15  and  C_34
REMARK    6  A    between atoms: C_16  and  C_32
REMARK    7  A    between atoms: N_19  and  C_31
REMARK    8  A    between atoms: C_20  and  N_21
REMARK    9  A    between atoms: C_23  and  C_30
REMARK   10  A    between atoms: C_26  and  C_29
REMARK                            x       y       z     vdW  Elec       q    Type
REMARK                         _______ _______ _______ _____ _____    ______ ____
ROOT
ATOM      1  C   UNL     1       6.454  -7.021  -1.727  0.00  0.00    +0.019 A 
ATOM      2  C   UNL     1       7.035  -6.940  -0.450  0.00  0.00    -0.017 A 
ATOM      3  C   UNL     1       8.256  -6.287  -0.307  0.00  0.00    +0.120 A 
ATOM      4  C   UNL     1       8.882  -5.722  -1.447  0.00  0.00    +0.270 A 
ATOM      5  O   UNL     1       9.951  -5.150  -1.328  0.00  0.00    -0.266 OA
ATOM      6  N   UNL     1       8.305  -5.813  -2.659  0.00  0.00    -0.298 N 
ATOM      7  C   UNL     1       7.117  -6.449  -2.825  0.00  0.00    +0.112 A 
ATOM      8  C   UNL     1       8.973  -5.220  -3.820  0.00  0.00    +0.154 C 
ATOM      9  C   UNL     1       6.347  -7.549   0.744  0.00  0.00    +0.046 C 
ENDROOT
BRANCH   1  14
ATOM     10  N   UNL     1       1.785  -7.038  -0.683  0.00  0.00    -0.251 N 
ATOM     11  C   UNL     1       2.722  -7.734  -1.303  0.00  0.00    +0.259 C 
ATOM     12  O   UNL     1       2.467  -8.805  -1.824  0.00  0.00    -0.269 OA
ATOM     13  C   UNL     1       4.043  -7.191  -1.345  0.00  0.00    +0.077 C 
ATOM     14  C   UNL     1       5.170  -7.700  -1.912  0.00  0.00    +0.032 C 
ATOM     15  S   UNL     1       3.811  -5.662  -0.450  0.00  0.00    -0.061 S 
ATOM     16  C   UNL     1       2.067  -5.847  -0.111  0.00  0.00    +0.121 C 
ATOM     17  S   UNL     1       1.018  -4.785   0.729  0.00  0.00    -0.027 S 
BRANCH  10  18
ATOM     18  C   UNL     1       0.419  -7.564  -0.620  0.00  0.00    +0.150 C 
BRANCH  18  23
ATOM     19  C   UNL     1      -2.568  -5.727  -5.214  0.00  0.00    +0.044 C 
ATOM     20  C   UNL     1      -1.789  -6.206  -4.016  0.00  0.00    -0.050 A 
ATOM     21  C   UNL     1      -1.086  -7.395  -4.079  0.00  0.00    +0.003 A 
ATOM     22  C   UNL     1      -0.371  -7.834  -2.980  0.00  0.00    +0.005 A 
ATOM     23  C   UNL     1      -0.359  -7.084  -1.818  0.00  0.00    -0.030 A 
ATOM     24  C   UNL     1      -1.062  -5.895  -1.756  0.00  0.00    +0.005 A 
ATOM     25  C   UNL     1      -1.773  -5.454  -2.856  0.00  0.00    +0.003 A 
ENDBRANCH  18  23
ENDBRANCH  10  18
ENDBRANCH   1  14
BRANCH   7  26
ATOM     26  N   UNL     1       6.561  -6.529  -4.069  0.00  0.00    -0.311 N 
ATOM     27  C   UNL     1       6.133  -7.822  -4.625  0.00  0.00    +0.137 C 
ATOM     28  C   UNL     1       4.694  -7.678  -5.133  0.00  0.00    +0.133 C 
ATOM     29  O   UNL     1       4.615  -6.552  -6.011  0.00  0.00    -0.371 OA
ATOM     30  C   UNL     1       4.920  -5.302  -5.387  0.00  0.00    +0.133 C 
ATOM     31  C   UNL     1       6.365  -5.324  -4.890  0.00  0.00    +0.137 C 
ATOM     32  C   UNL     1       3.978  -5.079  -4.202  0.00  0.00    +0.039 C 
ATOM     33  C   UNL     1       4.289  -8.945  -5.889  0.00  0.00    +0.039 C 
ENDBRANCH   7  26
BRANCH   3  34
ATOM     34  C   UNL     1       8.874  -6.187   0.981  0.00  0.00    +0.105 C 
ATOM     35  N   UNL     1       9.365  -6.108   2.002  0.00  0.00    -0.191 NA
ENDBRANCH   3  34
TORSDOF 5
