REMARK  Name = ZINC46079353
REMARK  10 active torsions:
REMARK  status: ('A' for Active; 'I' for Inactive)
REMARK    1  A    between atoms: C_1  and  C_2
REMARK    2  A    between atoms: C_2  and  C_3
REMARK    3  A    between atoms: N_5  and  C_6
REMARK    4  A    between atoms: C_8  and  C_27
REMARK    5  A    between atoms: N_10  and  C_13
REMARK    6  A    between atoms: C_13  and  C_15
REMARK    7  A    between atoms: C_13  and  C_16
REMARK    8  A    between atoms: N_18  and  C_19
REMARK    9  A    between atoms: C_22  and  C_26
REMARK   10  A    between atoms: C_24  and  C_25
REMARK                            x       y       z     vdW  Elec       q    Type
REMARK                         _______ _______ _______ _____ _____    ______ ____
ROOT
ATOM      1  C   UNL     1       1.494  -2.401   2.455  0.00  0.00    +0.102 A 
ATOM      2  C   UNL     1       1.966  -1.565   3.425  0.00  0.00    +0.059 A 
ATOM      3  C   UNL     1       2.577  -2.106   4.575  0.00  0.00    +0.093 A 
ATOM      4  N   UNL     1       2.694  -3.407   4.719  0.00  0.00    -0.167 NA
ATOM      5  N   UNL     1       2.217  -4.283   3.737  0.00  0.00    -0.216 N 
ATOM      6  C   UNL     1       1.623  -3.802   2.627  0.00  0.00    +0.289 A 
ATOM      7  O   UNL     1       1.203  -4.567   1.774  0.00  0.00    -0.264 OA
ENDROOT
BRANCH   3   8
ATOM      8  C   UNL     1       3.090  -1.199   5.631  0.00  0.00    +0.002 A 
ATOM      9  C   UNL     1       2.965   0.181   5.489  0.00  0.00    +0.011 A 
ATOM     10  C   UNL     1       3.445   1.020   6.474  0.00  0.00    +0.020 A 
ATOM     11  C   UNL     1       4.050   0.493   7.602  0.00  0.00    +0.041 A 
ATOM     12  C   UNL     1       4.177  -0.878   7.748  0.00  0.00    +0.020 A 
ATOM     13  C   UNL     1       3.695  -1.726   6.771  0.00  0.00    +0.011 A 
ATOM     14 CL   UNL     1       4.652   1.553   8.838  0.00  0.00    -0.084 Cl
ENDBRANCH   3   8
BRANCH   1  17
ATOM     15  C   UNL     1       1.382  -2.178   0.090  0.00  0.00    +0.217 C 
ATOM     16  O   UNL     1       2.404  -2.823  -0.008  0.00  0.00    -0.275 OA
ATOM     17  N   UNL     1       0.887  -1.882   1.309  0.00  0.00    -0.281 N 
ATOM     18  H   UNL     1       0.108  -1.308   1.390  0.00  0.00    +0.155 HD
BRANCH  15  20
ATOM     19  C   UNL     1       1.431  -2.174  -2.389  0.00  0.00    +0.013 C 
ATOM     20  C   UNL     1       0.665  -1.707  -1.149  0.00  0.00    +0.093 C 
ENDBRANCH  15  20
ENDBRANCH   1  17
BRANCH   5  21
ATOM     21  C   UNL     1       2.360  -5.729   3.920  0.00  0.00    +0.194 C 
ATOM     22  C   UNL     1       1.622  -6.158   5.190  0.00  0.00    +0.043 C 
BRANCH  21  23
ATOM     23  C   UNL     1       3.820  -6.079   4.044  0.00  0.00    +0.242 C 
ATOM     24  O   UNL     1       4.660  -5.205   3.986  0.00  0.00    -0.273 OA
ATOM     25  N   UNL     1       4.194  -7.362   4.220  0.00  0.00    -0.284 N 
ATOM     26  H   UNL     1       3.529  -8.068   4.197  0.00  0.00    +0.155 HD
BRANCH  25  27
ATOM     27  C   UNL     1       5.540  -7.675   4.436  0.00  0.00    +0.036 A 
ATOM     28  C   UNL     1       6.536  -6.923   3.826  0.00  0.00    +0.024 A 
ATOM     29  C   UNL     1       7.864  -7.235   4.042  0.00  0.00    +0.005 A 
ATOM     30  C   UNL     1       8.202  -8.296   4.863  0.00  0.00    -0.050 A 
ATOM     31  C   UNL     1       7.213  -9.046   5.471  0.00  0.00    +0.008 A 
ATOM     32  C   UNL     1       5.883  -8.735   5.265  0.00  0.00    -0.029 A 
ATOM     33  C   UNL     1       4.806  -9.549   5.934  0.00  0.00    +0.045 C 
ATOM     34  C   UNL     1       9.652  -8.634   5.095  0.00  0.00    +0.044 C 
ENDBRANCH  25  27
ENDBRANCH  21  23
ENDBRANCH   5  21
TORSDOF 6
