REMARK  Name = ZINC35938567
REMARK  9 active torsions:
REMARK  status: ('A' for Active; 'I' for Inactive)
REMARK    1  A    between atoms: C_1  and  C_2
REMARK    2  A    between atoms: C_2  and  C_3
REMARK    3  A    between atoms: C_2  and  C_4
REMARK    4  A    between atoms: C_2  and  C_5
REMARK    5  A    between atoms: C_8  and  C_11
REMARK    6  A    between atoms: C_20  and  C_22
REMARK    7  A    between atoms: C_22  and  C_23
REMARK    8  A    between atoms: C_23  and  N_24
REMARK    9  A    between atoms: C_32  and  C_34
REMARK                            x       y       z     vdW  Elec       q    Type
REMARK                         _______ _______ _______ _____ _____    ______ ____
ROOT
ATOM      1  C   UNL     1       2.696  -1.860  -4.732  0.00  0.00    +0.247 C 
ATOM      2  O   UNL     1       2.140  -2.640  -5.481  0.00  0.00    -0.270 OA
ATOM      3  N   UNL     1       3.947  -1.440  -5.005  0.00  0.00    -0.296 N 
ATOM      4  C   UNL     1       4.600  -1.789  -6.218  0.00  0.00    +0.109 C 
ATOM      5  C   UNL     1       5.301  -3.187  -6.201  0.00  0.00    +0.038 C 
ATOM      6  C   UNL     1       5.929  -3.374  -4.781  0.00  0.00    +0.109 C 
ATOM      7  N   UNL     1       6.490  -2.194  -4.221  0.00  0.00    -0.300 N 
ATOM      8  C   UNL     1       5.634  -1.416  -3.289  0.00  0.00    +0.126 C 
ATOM      9  C   UNL     1       4.702  -0.585  -4.053  0.00  0.00    +0.127 C 
ATOM     10  C   UNL     1       7.743  -1.798  -4.523  0.00  0.00    +0.214 C 
ATOM     11  O   UNL     1       8.418  -2.454  -5.288  0.00  0.00    -0.276 OA
ENDROOT
BRANCH   1  15
ATOM     12  C   UNL     1       0.694  -0.460  -1.258  0.00  0.00    -0.042 A 
ATOM     13  C   UNL     1       1.951  -1.026  -1.147  0.00  0.00    +0.005 A 
ATOM     14  C   UNL     1       2.607  -1.483  -2.272  0.00  0.00    +0.013 A 
ATOM     15  C   UNL     1       1.999  -1.373  -3.523  0.00  0.00    +0.037 A 
ATOM     16  C   UNL     1       0.730  -0.801  -3.628  0.00  0.00    +0.013 A 
ATOM     17  C   UNL     1       0.083  -0.353  -2.495  0.00  0.00    +0.005 A 
BRANCH  12  19
ATOM     18  C   UNL     1      -1.334  -0.721   0.145  0.00  0.00    +0.015 C 
ATOM     19  C   UNL     1      -0.017   0.037  -0.025  0.00  0.00    -0.013 C 
ATOM     20  C   UNL     1      -0.304   1.533  -0.170  0.00  0.00    +0.015 C 
ATOM     21  C   UNL     1       0.868  -0.196   1.202  0.00  0.00    +0.015 C 
ENDBRANCH  12  19
ENDBRANCH   1  15
BRANCH  10  22
ATOM     22  C   UNL     1       8.304  -0.541  -3.910  0.00  0.00    +0.077 C 
BRANCH  22  23
ATOM     23  C   UNL     1       9.732  -0.322  -4.414  0.00  0.00    -0.068 C 
BRANCH  23  24
ATOM     24  N   UNL     1      10.279   0.904  -3.817  0.00  0.00    +0.388 N 
ATOM     25  C   UNL     1       9.491   2.057  -4.273  0.00  0.00    -0.072 C 
ATOM     26  C   UNL     1       9.845   3.276  -3.403  0.00  0.00    +0.024 C 
ATOM     27  C   UNL     1      11.334   3.349  -3.314  0.00  0.00    -0.010 A 
ATOM     28  C   UNL     1      12.215   2.370  -3.668  0.00  0.00    -0.047 A 
ATOM     29  C   UNL     1      13.566   2.662  -3.503  0.00  0.00    +0.010 A 
ATOM     30  C   UNL     1      13.945   3.864  -3.010  0.00  0.00    +0.045 A 
ATOM     31  S   UNL     1      12.370   4.667  -2.747  0.00  0.00    -0.101 S 
ATOM     32  C   UNL     1      11.686   1.045  -4.208  0.00  0.00    -0.006 C 
ATOM     33  H   UNL     1      10.219   0.839  -2.812  0.00  0.00    -0.080 HD
BRANCH  32  34
ATOM     34  C   UNL     1      12.488  -0.092  -3.630  0.00  0.00    -0.057 A 
ATOM     35  C   UNL     1      12.227  -0.541  -2.349  0.00  0.00    +0.002 A 
ATOM     36  C   UNL     1      12.963  -1.584  -1.819  0.00  0.00    +0.000 A 
ATOM     37  C   UNL     1      13.960  -2.179  -2.570  0.00  0.00    +0.000 A 
ATOM     38  C   UNL     1      14.220  -1.730  -3.851  0.00  0.00    +0.000 A 
ATOM     39  C   UNL     1      13.482  -0.690  -4.383  0.00  0.00    +0.002 A 
ENDBRANCH  32  34
ENDBRANCH  23  24
ENDBRANCH  22  23
ENDBRANCH  10  22
TORSDOF 6
