REMARK  Name = ZINC13683035
REMARK  5 active torsions:
REMARK  status: ('A' for Active; 'I' for Inactive)
REMARK    1  A    between atoms: C_8  and  C_11
REMARK    2  A    between atoms: C_19  and  C_21
REMARK    3  A    between atoms: C_21  and  C_22
REMARK    4  A    between atoms: C_22  and  C_23
REMARK    5  A    between atoms: C_23  and  C_24
REMARK                            x       y       z     vdW  Elec       q    Type
REMARK                         _______ _______ _______ _____ _____    ______ ____
ROOT
ATOM      1  C   UNL     1      -1.195   3.336  -7.130  0.00  0.00    +0.263 C 
ATOM      2  O   UNL     1      -0.272   3.587  -7.882  0.00  0.00    -0.268 OA
ATOM      3  N   UNL     1      -1.056   2.383  -6.187  0.00  0.00    -0.293 N 
ATOM      4  C   UNL     1       0.171   1.577  -6.113  0.00  0.00    +0.127 C 
ATOM      5  C   UNL     1      -0.212   0.094  -6.179  0.00  0.00    +0.126 C 
ATOM      6  N   UNL     1      -1.285  -0.158  -5.207  0.00  0.00    -0.298 N 
ATOM      7  C   UNL     1      -2.514   0.644  -5.284  0.00  0.00    +0.126 C 
ATOM      8  C   UNL     1      -2.128   2.131  -5.214  0.00  0.00    +0.127 C 
ATOM      9  C   UNL     1      -1.146  -1.111  -4.264  0.00  0.00    +0.216 C 
ATOM     10  O   UNL     1      -0.129  -1.770  -4.213  0.00  0.00    -0.276 OA
ENDROOT
BRANCH   1  18
ATOM     11  C   UNL     1      -6.338   6.281  -8.267  0.00  0.00    +0.001 A 
ATOM     12  C   UNL     1      -6.388   6.392  -6.883  0.00  0.00    +0.002 A 
ATOM     13  C   UNL     1      -5.391   5.854  -6.099  0.00  0.00    +0.026 A 
ATOM     14  C   UNL     1      -4.322   5.193  -6.697  0.00  0.00    +0.047 A 
ATOM     15  C   UNL     1      -4.274   5.082  -8.100  0.00  0.00    +0.000 A 
ATOM     16  C   UNL     1      -5.301   5.637  -8.875  0.00  0.00    +0.010 A 
ATOM     17  C   UNL     1      -3.089   4.375  -8.418  0.00  0.00    +0.040 A 
ATOM     18  C   UNL     1      -2.463   4.071  -7.251  0.00  0.00    +0.103 A 
ATOM     19  N   UNL     1      -3.204   4.568  -6.197  0.00  0.00    -0.351 N 
ATOM     20  H   UNL     1      -2.974   4.489  -5.258  0.00  0.00    +0.166 HD
ENDBRANCH   1  18
BRANCH   9  21
ATOM     21  C   UNL     1      -2.254  -1.358  -3.273  0.00  0.00    +0.096 C 
BRANCH  21  22
ATOM     22  C   UNL     1      -1.845  -2.483  -2.320  0.00  0.00    +0.014 C 
BRANCH  22  23
ATOM     23  C   UNL     1      -2.970  -2.734  -1.314  0.00  0.00    +0.038 C 
BRANCH  23  24
ATOM     24  C   UNL     1      -2.567  -3.842  -0.376  0.00  0.00    -0.022 A 
ATOM     25  C   UNL     1      -2.876  -5.143  -0.497  0.00  0.00    +0.087 A 
ATOM     26  N   UNL     1      -2.334  -5.849   0.542  0.00  0.00    -0.360 N 
ATOM     27  H   UNL     1      -2.420  -6.807   0.670  0.00  0.00    +0.165 HD
ATOM     28  C   UNL     1      -1.654  -4.997   1.384  0.00  0.00    +0.047 A 
ATOM     29  C   UNL     1      -1.770  -3.703   0.846  0.00  0.00    +0.003 A 
ATOM     30  C   UNL     1      -1.171  -2.622   1.495  0.00  0.00    +0.010 A 
ATOM     31  C   UNL     1      -0.473  -2.828   2.652  0.00  0.00    +0.001 A 
ATOM     32  C   UNL     1      -0.356  -4.103   3.187  0.00  0.00    +0.002 A 
ATOM     33  C   UNL     1      -0.940  -5.184   2.562  0.00  0.00    +0.026 A 
ENDBRANCH  23  24
ENDBRANCH  22  23
ENDBRANCH  21  22
ENDBRANCH   9  21
TORSDOF 5
