REMARK  Name = ZINC12471185
REMARK  14 active torsions:
REMARK  status: ('A' for Active; 'I' for Inactive)
REMARK    1  A    between atoms: C_1  and  C_2
REMARK    2  A    between atoms: C_2  and  C_3
REMARK    3  A    between atoms: C_8  and  N_9
REMARK    4  A    between atoms: N_9  and  C_10
REMARK    5  A    between atoms: C_10  and  N_12
REMARK    6  A    between atoms: N_12  and  C_13
REMARK    7  A    between atoms: N_12  and  C_17
REMARK    8  A    between atoms: C_13  and  C_14
REMARK    9  A    between atoms: C_14  and  N_63
REMARK   10  A    between atoms: C_15  and  N_63
REMARK   11  A    between atoms: C_16  and  N_63
REMARK   12  A    between atoms: C_17  and  C_18
REMARK   13  A    between atoms: C_22  and  C_31
REMARK   14  A    between atoms: C_23  and  C_30
REMARK                            x       y       z     vdW  Elec       q    Type
REMARK                         _______ _______ _______ _____ _____    ______ ____
ROOT
ATOM      1  N   UNL     1      -5.613   4.187  -1.274  0.00  0.00    -0.310 N 
ENDROOT
BRANCH   1   2
ATOM      2  C   UNL     1      -6.436   3.318  -1.893  0.00  0.00    +0.137 C 
ATOM      3  S   UNL     1      -7.308   2.163  -0.978  0.00  0.00    -0.018 S 
BRANCH   2   4
ATOM      4  N   UNL     1      -6.574   3.358  -3.234  0.00  0.00    -0.297 N 
ATOM      5  H   UNL     1      -6.138   4.058  -3.745  0.00  0.00    +0.154 HD
BRANCH   4  11
ATOM      6  C   UNL     1      -8.103   2.738  -4.997  0.00  0.00    -0.026 A 
ATOM      7  C   UNL     1      -8.863   1.781  -5.641  0.00  0.00    +0.005 A 
ATOM      8  C   UNL     1      -8.870   0.477  -5.179  0.00  0.00    +0.000 A 
ATOM      9  C   UNL     1      -8.116   0.128  -4.074  0.00  0.00    +0.002 A 
ATOM     10  C   UNL     1      -7.350   1.079  -3.429  0.00  0.00    +0.023 A 
ATOM     11  C   UNL     1      -7.345   2.391  -3.887  0.00  0.00    +0.036 A 
BRANCH   6  13
ATOM     12  C   UNL     1      -6.901   4.362  -6.435  0.00  0.00    +0.009 C 
ATOM     13  C   UNL     1      -8.095   4.159  -5.501  0.00  0.00    +0.033 C 
ENDBRANCH   6  13
ENDBRANCH   4  11
ENDBRANCH   2   4
ENDBRANCH   1   2
BRANCH   1  14
ATOM     14  C   UNL     1      -4.948   5.241  -2.044  0.00  0.00    +0.088 C 
BRANCH  14  15
ATOM     15  C   UNL     1      -3.601   4.726  -2.556  0.00  0.00    -0.060 C 
BRANCH  15  18
ATOM     16  C   UNL     1      -1.545   5.413  -3.635  0.00  0.00    -0.097 C 
ATOM     17  C   UNL     1      -3.680   6.089  -4.555  0.00  0.00    -0.097 C 
ATOM     18  N   UNL     1      -2.933   5.806  -3.312  0.00  0.00    +0.377 N 
ATOM     19  H   UNL     1      -2.914   6.654  -2.734  0.00  0.00    -0.083 HD
ENDBRANCH  15  18
ENDBRANCH  14  15
ENDBRANCH   1  14
BRANCH   1  20
ATOM     20  C   UNL     1      -5.384   4.077   0.169  0.00  0.00    +0.147 C 
BRANCH  20  21
ATOM     21  C   UNL     1      -4.167   3.224   0.420  0.00  0.00    +0.035 A 
ATOM     22  C   UNL     1      -4.310   1.896   0.652  0.00  0.00    +0.020 A 
ATOM     23  C   UNL     1      -3.108   1.096   0.899  0.00  0.00    -0.001 A 
ATOM     24  C   UNL     1      -3.194  -0.276   1.160  0.00  0.00    +0.013 A 
ATOM     25  C   UNL     1      -2.054  -0.994   1.386  0.00  0.00    -0.047 A 
ATOM     26  C   UNL     1      -0.812  -0.374   1.359  0.00  0.00    -0.046 A 
ATOM     27  C   UNL     1      -0.704   0.976   1.104  0.00  0.00    +0.030 A 
ATOM     28  C   UNL     1      -1.851   1.729   0.876  0.00  0.00    +0.049 A 
ATOM     29  N   UNL     1      -1.774   3.082   0.624  0.00  0.00    -0.322 N 
ATOM     30  H   UNL     1      -0.906   3.515   0.605  0.00  0.00    +0.169 HD
ATOM     31  C   UNL     1      -2.883   3.809   0.404  0.00  0.00    +0.254 A 
ATOM     32  O   UNL     1      -2.776   5.003   0.184  0.00  0.00    -0.268 OA
ATOM     33  C   UNL     1       0.432  -1.187   1.612  0.00  0.00    +0.044 C 
ATOM     34  C   UNL     1      -2.146  -2.471   1.667  0.00  0.00    +0.044 C 
ENDBRANCH  20  21
ENDBRANCH   1  20
TORSDOF 9
