REMARK  Name = ZINC67091904
REMARK  5 active torsions:
REMARK  status: ('A' for Active; 'I' for Inactive)
REMARK    1  A    between atoms: C_3  and  C_8
REMARK    2  A    between atoms: C_11  and  N_13
REMARK    3  A    between atoms: C_14  and  C_16
REMARK    4  A    between atoms: C_16  and  C_17
REMARK    5  A    between atoms: C_17  and  N_18
REMARK                            x       y       z     vdW  Elec       q    Type
REMARK                         _______ _______ _______ _____ _____    ______ ____
ROOT
ATOM      1  N   UNL     1       5.387   3.124  -1.674  0.00  0.00    -0.312 N 
ATOM      2  C   UNL     1       5.824   3.171  -2.948  0.00  0.00    +0.215 C 
ATOM      3  O   UNL     1       5.578   2.257  -3.707  0.00  0.00    -0.276 OA
ATOM      4  H   UNL     1       5.584   3.855  -1.067  0.00  0.00    +0.149 HD
ENDROOT
BRANCH   1   7
ATOM      5  C   UNL     1       3.672   2.186  -0.021  0.00  0.00    +0.041 C 
ATOM      6  C   UNL     1       4.968   1.396   0.169  0.00  0.00    +0.033 C 
ATOM      7  C   UNL     1       4.616   1.970  -1.206  0.00  0.00    +0.081 C 
BRANCH   5  10
ATOM      8  C   UNL     1      -0.017   1.377   0.010  0.00  0.00    +0.003 A 
ATOM      9  C   UNL     1       1.171   2.086   0.002  0.00  0.00    +0.004 A 
ATOM     10  C   UNL     1       2.378   1.413  -0.013  0.00  0.00    -0.040 A 
ATOM     11  C   UNL     1       2.399   0.030  -0.021  0.00  0.00    +0.042 A 
ATOM     12  C   UNL     1       1.211  -0.679  -0.013  0.00  0.00    +0.124 A 
ATOM     13  C   UNL     1       0.002  -0.004   0.002  0.00  0.00    +0.038 A 
ATOM     14  F   UNL     1       1.230  -2.030  -0.022  0.00  0.00    -0.205 F 
ENDBRANCH   5  10
ENDBRANCH   1   7
BRANCH   2  15
ATOM     15  C   UNL     1       6.617   4.358  -3.430  0.00  0.00    +0.115 C 
BRANCH  15  16
ATOM     16  C   UNL     1       6.987   4.161  -4.902  0.00  0.00    +0.127 C 
BRANCH  16  17
ATOM     17  N   UNL     1       7.759   5.315  -5.370  0.00  0.00    -0.224 N 
ATOM     18  C   UNL     1       7.212   6.423  -5.914  0.00  0.00    +0.247 C 
ATOM     19  O   UNL     1       6.035   6.647  -6.101  0.00  0.00    -0.273 OA
ATOM     20  C   UNL     1       8.377   7.324  -6.238  0.00  0.00    +0.113 C 
ATOM     21  C   UNL     1       8.269   8.657  -5.486  0.00  0.00    +0.035 C 
ATOM     22  C   UNL     1       8.854   9.695  -6.478  0.00  0.00    +0.003 C 
ATOM     23  C   UNL     1       8.351   9.181  -7.851  0.00  0.00    +0.003 C 
ATOM     24  C   UNL     1       8.433   7.643  -7.734  0.00  0.00    +0.035 C 
ATOM     25  N   UNL     1       9.555   6.567  -5.808  0.00  0.00    -0.285 N 
ATOM     26  C   UNL     1       9.094   5.404  -5.307  0.00  0.00    +0.309 C 
ATOM     27  O   UNL     1       9.809   4.532  -4.853  0.00  0.00    -0.252 OA
ATOM     28  H   UNL     1      10.481   6.849  -5.869  0.00  0.00    +0.151 HD
ENDBRANCH  16  17
ENDBRANCH  15  16
ENDBRANCH   2  15
TORSDOF 5
