REMARK  Name = ZINC65171793
REMARK  7 active torsions:
REMARK  status: ('A' for Active; 'I' for Inactive)
REMARK    1  A    between atoms: C_1  and  C_2
REMARK    2  A    between atoms: C_3  and  C_28
REMARK    3  A    between atoms: C_11  and  C_13
REMARK    4  A    between atoms: C_13  and  N_14
REMARK    5  A    between atoms: N_17  and  C_20
REMARK    6  A    between atoms: C_20  and  C_21
REMARK    7  A    between atoms: C_21  and  O_27
REMARK                            x       y       z     vdW  Elec       q    Type
REMARK                         _______ _______ _______ _____ _____    ______ ____
ROOT
ATOM      1  N   UNL     1      -0.087  -4.870   4.002  0.00  0.00    +0.386 N 
ATOM      2  C   UNL     1       1.226  -5.059   3.372  0.00  0.00    -0.063 C 
ATOM      3  C   UNL     1       1.328  -6.484   2.824  0.00  0.00    +0.066 C 
ATOM      4  N   UNL     1       1.151  -7.443   3.924  0.00  0.00    -0.303 NA
ATOM      5  C   UNL     1      -0.149  -7.248   4.582  0.00  0.00    +0.066 C 
ATOM      6  C   UNL     1      -0.239  -5.817   5.115  0.00  0.00    -0.063 C 
ATOM      7  H   UNL     1      -0.813  -5.031   3.321  0.00  0.00    -0.081 HD
ENDROOT
BRANCH   1   8
ATOM      8  C   UNL     1      -0.191  -3.496   4.512  0.00  0.00    -0.003 C 
BRANCH   8  19
ATOM      9  C   UNL     1      -0.127   1.498   0.039  0.00  0.00    +0.045 C 
ATOM     10  C   UNL     1      -0.050  -0.007   0.015  0.00  0.00    -0.026 A 
ATOM     11  C   UNL     1       0.069  -0.662  -1.151  0.00  0.00    -0.008 A 
ATOM     12  S   UNL     1       0.118  -2.375  -0.659  0.00  0.00    -0.073 S 
ATOM     13  C   UNL     1      -0.023  -2.161   1.097  0.00  0.00    +0.116 A 
ATOM     14  C   UNL     1      -0.098  -0.765   1.251  0.00  0.00    +0.075 A 
ATOM     15  C   UNL     1      -0.216  -0.296   2.600  0.00  0.00    +0.260 A 
ATOM     16  O   UNL     1      -0.293   0.897   2.837  0.00  0.00    -0.267 OA
ATOM     17  N   UNL     1      -0.242  -1.195   3.602  0.00  0.00    -0.312 N 
ATOM     18  H   UNL     1      -0.321  -0.884   4.517  0.00  0.00    +0.170 HD
ATOM     19  C   UNL     1      -0.158  -2.528   3.357  0.00  0.00    +0.094 A 
ATOM     20  N   UNL     1      -0.059  -2.986   2.138  0.00  0.00    -0.229 NA
ATOM     21  C   UNL     1       0.143  -0.088  -2.542  0.00  0.00    +0.052 C 
ENDBRANCH   8  19
ENDBRANCH   1   8
BRANCH   4  22
ATOM     22  C   UNL     1       1.299  -8.824   3.447  0.00  0.00    +0.119 C 
BRANCH  22  23
ATOM     23  C   UNL     1       1.542  -9.752   4.640  0.00  0.00    +0.079 C 
ATOM     24  C   UNL     1       1.853 -11.162   4.134  0.00  0.00    +0.036 C 
ATOM     25  C   UNL     1       2.096 -12.089   5.326  0.00  0.00    +0.003 C 
ATOM     26  C   UNL     1       3.280 -11.569   6.144  0.00  0.00    +0.000 C 
ATOM     27  C   UNL     1       2.970 -10.159   6.649  0.00  0.00    +0.003 C 
ATOM     28  C   UNL     1       2.727  -9.231   5.457  0.00  0.00    +0.036 C 
BRANCH  23  29
ATOM     29  O   UNL     1       0.374  -9.787   5.463  0.00  0.00    -0.387 OA
ATOM     30  H   UNL     1       0.458 -10.357   6.239  0.00  0.00    +0.210 HD
ENDBRANCH  23  29
ENDBRANCH  22  23
ENDBRANCH   4  22
TORSDOF 5
