REMARK  Name = ZINC12175611
REMARK  8 active torsions:
REMARK  status: ('A' for Active; 'I' for Inactive)
REMARK    1  A    between atoms: C_1  and  C_2
REMARK    2  A    between atoms: C_2  and  O_3
REMARK    3  A    between atoms: O_3  and  C_4
REMARK    4  A    between atoms: N_6  and  C_7
REMARK    5  A    between atoms: C_14  and  N_16
REMARK    6  A    between atoms: N_16  and  C_17
REMARK    7  A    between atoms: C_17  and  N_19
REMARK    8  A    between atoms: N_19  and  C_20
REMARK                            x       y       z     vdW  Elec       q    Type
REMARK                         _______ _______ _______ _____ _____    ______ ____
ROOT
ATOM      1  C   UNL     1      -0.488  -0.432  -6.817  0.00  0.00    +0.119 C 
ATOM      2  C   UNL     1      -1.393  -1.151  -7.842  0.00  0.00    +0.190 C 
ATOM      3  S   UNL     1      -2.833   0.002  -7.922  0.00  0.00    -0.027 S 
ATOM      4  O   UNL     1      -2.528   1.075  -8.803  0.00  0.00    -0.174 OA
ATOM      5  O   UNL     1      -4.026  -0.747  -8.109  0.00  0.00    -0.174 OA
ATOM      6  C   UNL     1      -2.752   0.601  -6.178  0.00  0.00    +0.190 C 
ATOM      7  C   UNL     1      -1.233   0.529  -5.904  0.00  0.00    +0.115 C 
ENDROOT
BRANCH   1  10
ATOM      8  C   UNL     1       1.321  -2.014  -6.410  0.00  0.00    +0.401 C 
ATOM      9  O   UNL     1       1.808  -1.686  -7.473  0.00  0.00    -0.226 OA
ATOM     10  N   UNL     1       0.172  -1.446  -5.990  0.00  0.00    -0.275 N 
ATOM     11  H   UNL     1      -0.217  -1.708  -5.141  0.00  0.00    +0.152 HD
BRANCH   8  12
ATOM     12  O   UNL     1       1.927  -2.945  -5.650  0.00  0.00    -0.451 OA
BRANCH  12  14
ATOM     13  C   UNL     1       3.699  -4.546  -5.170  0.00  0.00    +0.048 C 
ATOM     14  C   UNL     1       3.160  -3.514  -6.164  0.00  0.00    +0.230 C 
ENDBRANCH  12  14
ENDBRANCH   8  12
ENDBRANCH   1  10
BRANCH   7  15
ATOM     15  N   UNL     1      -1.028   0.109  -4.516  0.00  0.00    -0.320 N 
ATOM     16  H   UNL     1      -1.661  -0.492  -4.092  0.00  0.00    +0.148 HD
BRANCH  15  17
ATOM     17  C   UNL     1       0.040   0.558  -3.827  0.00  0.00    +0.131 C 
ATOM     18  S   UNL     1       1.157   1.619  -4.574  0.00  0.00    -0.019 S 
BRANCH  17  19
ATOM     19  N   UNL     1       0.229   0.171  -2.549  0.00  0.00    -0.321 N 
ATOM     20  H   UNL     1      -0.404  -0.430  -2.126  0.00  0.00    +0.148 HD
BRANCH  19  21
ATOM     21  C   UNL     1       1.390   0.659  -1.801  0.00  0.00    +0.112 C 
ATOM     22  C   UNL     1       1.718  -0.356  -0.684  0.00  0.00    +0.189 C 
ATOM     23  S   UNL     1       2.251   0.767   0.681  0.00  0.00    -0.028 S 
ATOM     24  O   UNL     1       1.839   0.222   1.927  0.00  0.00    -0.174 OA
ATOM     25  O   UNL     1       3.609   1.134   0.485  0.00  0.00    -0.174 OA
ATOM     26  C   UNL     1       1.162   2.195   0.247  0.00  0.00    +0.187 C 
ATOM     27  C   UNL     1       1.085   2.059  -1.290  0.00  0.00    +0.123 C 
ATOM     28 CL   UNL     1      -0.575   2.518  -1.825  0.00  0.00    -0.118 Cl
ENDBRANCH  19  21
ENDBRANCH  17  19
ENDBRANCH  15  17
ENDBRANCH   7  15
TORSDOF 7
