REMARK  Name = ZINC66472751
REMARK  4 active torsions:
REMARK  status: ('A' for Active; 'I' for Inactive)
REMARK    1  A    between atoms: C_1  and  N_2
REMARK    2  A    between atoms: N_2  and  C_3
REMARK    3  A    between atoms: N_2  and  C_15
REMARK    4  A    between atoms: C_3  and  C_4
REMARK                            x       y       z     vdW  Elec       q    Type
REMARK                         _______ _______ _______ _____ _____    ______ ____
ROOT
ATOM      1  C   UNL     1      -0.018   1.461   0.010  0.00  0.00    +0.129 C 
ATOM      2  N   UNL     1       0.002  -0.004   0.002  0.00  0.00    -0.327 N 
ENDROOT
BRANCH   2   3
ATOM      3  C   UNL     1       0.000  -0.696  -1.211  0.00  0.00    +0.030 A 
ATOM      4  C   UNL     1       0.013  -2.096  -1.210  0.00  0.00    +0.024 A 
ATOM      5  C   UNL     1       0.011  -2.795  -2.376  0.00  0.00    +0.010 A 
ATOM      6  C   UNL     1      -0.004  -2.110  -3.604  0.00  0.00    -0.018 A 
ATOM      7  C   UNL     1      -0.007  -2.807  -4.824  0.00  0.00    +0.008 A 
ATOM      8  C   UNL     1      -0.023  -2.114  -5.996  0.00  0.00    +0.001 A 
ATOM      9  C   UNL     1      -0.036  -0.720  -6.006  0.00  0.00    +0.001 A 
ATOM     10  C   UNL     1      -0.034  -0.012  -4.844  0.00  0.00    +0.008 A 
ATOM     11  C   UNL     1      -0.018  -0.693  -3.614  0.00  0.00    -0.016 A 
ATOM     12  C   UNL     1      -0.021   0.006  -2.396  0.00  0.00    +0.031 A 
ENDBRANCH   2   3
BRANCH   2  13
ATOM     13  C   UNL     1       0.024  -0.743   1.267  0.00  0.00    +0.158 C 
BRANCH  13  14
ATOM     14  C   UNL     1      -1.389  -1.016   1.714  0.00  0.00    +0.040 A 
ATOM     15  C   UNL     1      -1.842  -2.289   1.785  0.00  0.00    +0.095 A 
ATOM     16  C   UNL     1      -3.164  -2.540   2.204  0.00  0.00    +0.275 A 
ATOM     17  O   UNL     1      -3.577  -3.684   2.271  0.00  0.00    -0.266 OA
ATOM     18  N   UNL     1      -3.970  -1.511   2.532  0.00  0.00    -0.180 N 
ATOM     19  C   UNL     1      -3.506  -0.229   2.457  0.00  0.00    +0.138 A 
ATOM     20  N   UNL     1      -2.209   0.018   2.051  0.00  0.00    -0.342 N 
ATOM     21  H   UNL     1      -1.882   0.930   2.003  0.00  0.00    +0.167 HD
ATOM     22  C   UNL     1      -4.522   0.595   2.841  0.00  0.00    +0.068 A 
ATOM     23  C   UNL     1      -5.624  -0.202   3.155  0.00  0.00    +0.137 A 
ATOM     24  N   UNL     1      -5.299  -1.457   2.971  0.00  0.00    -0.170 NA
ENDBRANCH  13  14
ENDBRANCH   2  13
TORSDOF 3
