REMARK  Name = ZINC42213339
REMARK  6 active torsions:
REMARK  status: ('A' for Active; 'I' for Inactive)
REMARK    1  A    between atoms: C_1  and  C_2
REMARK    2  A    between atoms: C_2  and  C_3
REMARK    3  A    between atoms: C_4  and  C_15
REMARK    4  A    between atoms: N_7  and  C_8
REMARK    5  A    between atoms: N_17  and  N_18
REMARK    6  A    between atoms: C_19  and  C_21
REMARK                            x       y       z     vdW  Elec       q    Type
REMARK                         _______ _______ _______ _____ _____    ______ ____
ROOT
ATOM      1  C   UNL     1       0.785  -0.755  -1.124  0.00  0.00    +0.057 A 
ATOM      2  C   UNL     1       0.325  -0.881  -2.420  0.00  0.00    +0.079 A 
ATOM      3  C   UNL     1       1.459  -0.970  -3.259  0.00  0.00    +0.148 A 
ATOM      4  N   UNL     1       2.524  -0.901  -2.509  0.00  0.00    -0.174 NA
ATOM      5  N   UNL     1       2.130  -0.761  -1.173  0.00  0.00    -0.236 N 
ENDROOT
BRANCH   5   6
ATOM      6  C   UNL     1       2.990  -0.650  -0.072  0.00  0.00    +0.066 A 
ATOM      7  C   UNL     1       2.738   0.293   0.915  0.00  0.00    +0.029 A 
ATOM      8  C   UNL     1       3.587   0.400   1.999  0.00  0.00    +0.017 A 
ATOM      9  C   UNL     1       4.688  -0.431   2.102  0.00  0.00    +0.018 A 
ATOM     10  C   UNL     1       4.942  -1.371   1.119  0.00  0.00    +0.017 A 
ATOM     11  C   UNL     1       4.093  -1.487   0.036  0.00  0.00    +0.029 A 
ATOM     12 BR   UNL     1       5.849  -0.281   3.587  0.00  0.00    -0.050 Br
ENDBRANCH   5   6
BRANCH   2  13
ATOM     13  C   UNL     1      -1.085  -0.917  -2.848  0.00  0.00    +0.263 C 
ATOM     14  O   UNL     1      -1.973  -0.832  -2.022  0.00  0.00    -0.269 OA
ATOM     15  N   UNL     1      -1.389  -1.045  -4.155  0.00  0.00    -0.230 N 
ATOM     16  H   UNL     1      -0.681  -1.113  -4.814  0.00  0.00    +0.173 HD
BRANCH  15  17
ATOM     17  N   UNL     1      -2.729  -1.079  -4.562  0.00  0.00    -0.234 N 
ATOM     18  C   UNL     1      -3.034  -1.207  -5.868  0.00  0.00    +0.232 C 
ATOM     19  O   UNL     1      -2.148  -1.292  -6.692  0.00  0.00    -0.274 OA
ATOM     20  H   UNL     1      -3.438  -1.011  -3.903  0.00  0.00    +0.173 HD
BRANCH  18  21
ATOM     21  C   UNL     1      -4.476  -1.244  -6.306  0.00  0.00    +0.076 C 
ATOM     22  C   UNL     1      -5.013  -2.566  -6.858  0.00  0.00    +0.013 C 
ATOM     23  C   UNL     1      -4.756  -1.390  -7.803  0.00  0.00    +0.013 C 
ENDBRANCH  18  21
ENDBRANCH  15  17
ENDBRANCH   2  13
BRANCH   1  25
ATOM     24  C   UNL     1      -0.275  -2.012   0.732  0.00  0.00    +0.010 C 
ATOM     25  C   UNL     1      -0.062  -0.628   0.115  0.00  0.00    +0.053 C 
ENDBRANCH   1  25
TORSDOF 5
