REMARK  Name = ZINC40316829
REMARK  16 active torsions:
REMARK  status: ('A' for Active; 'I' for Inactive)
REMARK    1  A    between atoms: C_1  and  O_2
REMARK    2  A    between atoms: O_2  and  C_3
REMARK    3  A    between atoms: C_5  and  C_13
REMARK    4  A    between atoms: C_7  and  O_11
REMARK    5  A    between atoms: C_8  and  O_9
REMARK    6  A    between atoms: O_9  and  C_10
REMARK    7  A    between atoms: O_11  and  C_12
REMARK    8  A    between atoms: C_13  and  N_14
REMARK    9  A    between atoms: N_14  and  C_15
REMARK   10  A    between atoms: N_14  and  C_21
REMARK   11  A    between atoms: C_15  and  C_16
REMARK   12  A    between atoms: C_21  and  C_22
REMARK   13  A    between atoms: C_22  and  C_24
REMARK   14  A    between atoms: C_22  and  O_33
REMARK   15  A    between atoms: C_24  and  O_25
REMARK   16  A    between atoms: O_25  and  C_26
REMARK                            x       y       z     vdW  Elec       q    Type
REMARK                         _______ _______ _______ _____ _____    ______ ____
ROOT
ATOM      1  N   UNL     1       3.720   0.598  -3.678  0.00  0.00    +0.389 N 
ATOM      2  H   UNL     1       3.890   0.881  -2.725  0.00  0.00    -0.081 HD
ENDROOT
BRANCH   1   3
ATOM      3  C   UNL     1       2.292   0.300  -3.853  0.00  0.00    -0.042 C 
BRANCH   3   6
ATOM      4  C   UNL     1       0.999  -1.262  -0.664  0.00  0.00    +0.165 A 
ATOM      5  C   UNL     1       1.393  -0.321  -1.602  0.00  0.00    +0.051 A 
ATOM      6  C   UNL     1       1.865  -0.727  -2.836  0.00  0.00    -0.057 A 
ATOM      7  C   UNL     1       1.947  -2.073  -3.140  0.00  0.00    +0.051 A 
ATOM      8  C   UNL     1       1.555  -3.022  -2.207  0.00  0.00    +0.165 A 
ATOM      9  C   UNL     1       1.085  -2.617  -0.963  0.00  0.00    +0.204 A 
BRANCH   4  11
ATOM     10  C   UNL     1       0.473   0.546   0.788  0.00  0.00    +0.277 C 
ATOM     11  O   UNL     1       0.534  -0.861   0.550  0.00  0.00    -0.491 OA
ENDBRANCH   4  11
BRANCH   9  12
ATOM     12  O   UNL     1       0.705  -3.545  -0.043  0.00  0.00    -0.488 OA
ATOM     13  C   UNL     1      -0.662  -3.960  -0.067  0.00  0.00    +0.277 C 
ENDBRANCH   9  12
BRANCH   8  14
ATOM     14  O   UNL     1       1.636  -4.346  -2.507  0.00  0.00    -0.491 OA
ATOM     15  C   UNL     1       2.134  -4.689  -3.801  0.00  0.00    +0.277 C 
ENDBRANCH   8  14
ENDBRANCH   3   6
ENDBRANCH   1   3
BRANCH   1  16
ATOM     16  C   UNL     1       4.512  -0.601  -3.982  0.00  0.00    -0.003 C 
BRANCH  16  17
ATOM     17  C   UNL     1       5.963  -0.336  -3.675  0.00  0.00    +0.089 A 
ATOM     18  C   UNL     1       6.547  -0.455  -2.469  0.00  0.00    +0.042 A 
ATOM     19  C   UNL     1       7.908  -0.111  -2.637  0.00  0.00    +0.041 A 
ATOM     20  C   UNL     1       8.075   0.197  -3.935  0.00  0.00    +0.195 A 
ATOM     21  O   UNL     1       6.894   0.053  -4.561  0.00  0.00    -0.470 OA
ENDBRANCH  16  17
ENDBRANCH   1  16
BRANCH   1  22
ATOM     22  C   UNL     1       4.108   1.684  -4.588  0.00  0.00    -0.043 C 
BRANCH  22  23
ATOM     23  C   UNL     1       3.392   2.973  -4.179  0.00  0.00    +0.135 C 
BRANCH  23  24
ATOM     24  O   UNL     1       3.786   3.338  -2.855  0.00  0.00    -0.390 OA
ATOM     25  H   UNL     1       4.723   3.562  -2.772  0.00  0.00    +0.210 HD
ENDBRANCH  23  24
BRANCH  23  26
ATOM     26  C   UNL     1       3.765   4.094  -5.150  0.00  0.00    +0.258 C 
BRANCH  26  27
ATOM     27  O   UNL     1       3.008   5.266  -4.840  0.00  0.00    -0.489 OA
BRANCH  27  28
ATOM     28  C   UNL     1       3.222   6.362  -5.614  0.00  0.00    +0.121 A 
ATOM     29  C   UNL     1       4.138   6.310  -6.655  0.00  0.00    +0.047 A 
ATOM     30  C   UNL     1       4.354   7.425  -7.440  0.00  0.00    +0.019 A 
ATOM     31  C   UNL     1       3.658   8.594  -7.189  0.00  0.00    +0.018 A 
ATOM     32  C   UNL     1       2.744   8.649  -6.152  0.00  0.00    +0.019 A 
ATOM     33  C   UNL     1       2.521   7.534  -5.368  0.00  0.00    +0.047 A 
ATOM     34 BR   UNL     1       3.955  10.120  -8.267  0.00  0.00    -0.050 Br
ENDBRANCH  27  28
ENDBRANCH  26  27
ENDBRANCH  23  26
ENDBRANCH  22  23
ENDBRANCH   1  22
TORSDOF 13
