REMARK  Name = ZINC63872254
REMARK  7 active torsions:
REMARK  status: ('A' for Active; 'I' for Inactive)
REMARK    1  A    between atoms: C_1  and  C_2
REMARK    2  A    between atoms: C_2  and  C_3
REMARK    3  A    between atoms: C_2  and  C_4
REMARK    4  A    between atoms: C_4  and  C_5
REMARK    5  A    between atoms: N_8  and  C_11
REMARK    6  A    between atoms: C_11  and  C_12
REMARK    7  A    between atoms: C_18  and  C_20
REMARK                            x       y       z     vdW  Elec       q    Type
REMARK                         _______ _______ _______ _____ _____    ______ ____
ROOT
ATOM      1  C   UNL     1      -3.812  -5.652   2.007  0.00  0.00    +0.005 C 
ATOM      2  C   UNL     1      -3.462  -6.739   0.988  0.00  0.00    +0.024 C 
ATOM      3  C   UNL     1      -3.461  -8.104   1.683  0.00  0.00    +0.108 C 
ATOM      4  N   UNL     1      -4.755  -8.296   2.350  0.00  0.00    -0.298 N 
ATOM      5  C   UNL     1      -5.230  -7.264   3.283  0.00  0.00    +0.108 C 
ATOM      6  C   UNL     1      -5.212  -5.909   2.569  0.00  0.00    +0.024 C 
ATOM      7  C   UNL     1      -5.494  -9.398   2.111  0.00  0.00    +0.247 C 
ATOM      8  O   UNL     1      -6.520  -9.589   2.736  0.00  0.00    -0.270 OA
ENDROOT
BRANCH   7   9
ATOM      9  C   UNL     1      -5.059 -10.371   1.091  0.00  0.00    +0.037 C 
ATOM     10  C   UNL     1      -4.078 -11.308   1.393  0.00  0.00    +0.019 C 
ATOM     11  C   UNL     1      -3.787 -12.217   0.361  0.00  0.00    -0.017 C 
ATOM     12  C   UNL     1      -2.668 -12.879   0.022  0.00  0.00    +0.025 C 
ATOM     13  C   UNL     1      -2.856 -13.464  -1.304  0.00  0.00    +0.106 C 
ATOM     14  N   UNL     1      -4.072 -13.286  -1.729  0.00  0.00    -0.279 NA
ATOM     15  C   UNL     1      -4.819 -12.609  -0.681  0.00  0.00    +0.158 C 
ATOM     16  C   UNL     1      -5.544 -11.369  -1.107  0.00  0.00    +0.005 C 
ATOM     17  C   UNL     1      -5.666 -10.358  -0.248  0.00  0.00    +0.011 C 
ENDBRANCH   7   9
BRANCH   1  18
ATOM     18  C   UNL     1      -3.780  -4.283   1.323  0.00  0.00    +0.072 C 
BRANCH  18  21
ATOM     19  C   UNL     1      -0.897  -2.254   0.288  0.00  0.00    +0.053 C 
ATOM     20  C   UNL     1      -2.361  -2.715   0.113  0.00  0.00    +0.086 C 
ATOM     21  N   UNL     1      -2.409  -3.984   0.888  0.00  0.00    -0.334 NA
ATOM     22  N   UNL     1      -1.540  -3.706   2.041  0.00  0.00    +0.400 N 
ATOM     23  N   UNL     1      -0.416  -2.928   1.513  0.00  0.00    -0.345 NA
ATOM     24  H   UNL     1      -2.041  -3.170   2.733  0.00  0.00    -0.033 HD
ATOM     25  H   UNL     1       0.374  -3.522   1.312  0.00  0.00    +0.104 HD
ATOM     26  H   UNL     1      -1.207  -4.570   2.442  0.00  0.00    -0.033 HD
BRANCH  19  27
ATOM     27  C   UNL     1      -0.837  -0.735   0.460  0.00  0.00    +0.021 C 
BRANCH  27  29
ATOM     28  C   UNL     1       0.689   1.240   0.585  0.00  0.00    +0.007 C 
ATOM     29  C   UNL     1       0.624  -0.288   0.539  0.00  0.00    -0.016 C 
ATOM     30  C   UNL     1       1.266  -0.864   1.802  0.00  0.00    +0.007 C 
ENDBRANCH  27  29
ENDBRANCH  19  27
ENDBRANCH  18  21
ENDBRANCH   1  18
TORSDOF 5
