REMARK  Name = ZINC12465750
REMARK  6 active torsions:
REMARK  status: ('A' for Active; 'I' for Inactive)
REMARK    1  A    between atoms: C_1  and  N_2
REMARK    2  A    between atoms: C_6  and  N_29
REMARK    3  A    between atoms: N_11  and  C_12
REMARK    4  A    between atoms: C_12  and  C_14
REMARK    5  A    between atoms: N_19  and  S_20
REMARK    6  A    between atoms: S_20  and  C_23
REMARK                            x       y       z     vdW  Elec       q    Type
REMARK                         _______ _______ _______ _____ _____    ______ ____
ROOT
ATOM      1  C   UNL     1       0.031   8.495  -1.744  0.00  0.00    +0.257 C 
ATOM      2  O   UNL     1      -0.509   8.857  -0.716  0.00  0.00    -0.272 OA
ENDROOT
BRANCH   1  13
ATOM      3  C   UNL     1       2.900  11.118  -3.467  0.00  0.00    +0.151 C 
ATOM      4  N   UNL     1       2.144  11.370  -2.237  0.00  0.00    -0.324 N 
ATOM      5  C   UNL     1       2.339  12.546  -1.536  0.00  0.00    +0.057 A 
ATOM      6  C   UNL     1       3.207  13.607  -1.839  0.00  0.00    +0.029 A 
ATOM      7  C   UNL     1       3.276  14.712  -1.026  0.00  0.00    +0.035 A 
ATOM      8  C   UNL     1       2.496  14.815   0.114  0.00  0.00    +0.127 A 
ATOM      9  C   UNL     1       1.632  13.784   0.436  0.00  0.00    +0.050 A 
ATOM     10  C   UNL     1       1.562  12.678  -0.377  0.00  0.00    +0.041 A 
ATOM     11  S   UNL     1       0.618  11.175  -0.347  0.00  0.00    -0.052 S 
ATOM     12  C   UNL     1       1.252  10.449  -1.788  0.00  0.00    +0.166 A 
ATOM     13  N   UNL     1       0.936   9.274  -2.328  0.00  0.00    -0.155 NA
BRANCH   8  14
ATOM     14  N   UNL     1       2.586  16.014   0.977  0.00  0.00    +0.056 N 
ATOM     15  O   UNL     1       3.349  16.918   0.686  0.00  0.00    -0.126 OA
ATOM     16  O   UNL     1       1.896  16.098   1.978  0.00  0.00    -0.126 OA
ENDBRANCH   8  14
ENDBRANCH   1  13
BRANCH   1  17
ATOM     17  C   UNL     1      -0.327   7.165  -2.355  0.00  0.00    +0.168 C 
ATOM     18  C   UNL     1      -0.938   7.376  -3.757  0.00  0.00    +0.031 C 
ATOM     19  C   UNL     1      -2.065   6.311  -3.810  0.00  0.00    +0.019 C 
ATOM     20  C   UNL     1      -2.561   6.310  -2.342  0.00  0.00    +0.110 C 
ATOM     21  N   UNL     1      -1.343   6.494  -1.532  0.00  0.00    -0.164 NA
BRANCH  21  22
ATOM     22  S   UNL     1      -1.154   6.028   0.045  0.00  0.00    +0.068 S 
ATOM     23  O   UNL     1      -2.457   5.961   0.608  0.00  0.00    -0.152 OA
ATOM     24  O   UNL     1      -0.129   6.847   0.591  0.00  0.00    -0.152 OA
BRANCH  22  25
ATOM     25  C   UNL     1      -0.527   4.381   0.031  0.00  0.00    +0.144 A 
ATOM     26  C   UNL     1       0.760   3.958   0.016  0.00  0.00    +0.038 A 
ATOM     27  C   UNL     1       1.021   2.600   0.006  0.00  0.00    +0.030 A 
ATOM     28  C   UNL     1      -0.021   1.732   0.012  0.00  0.00    +0.080 A 
ATOM     29  S   UNL     1      -1.423   2.837   0.023  0.00  0.00    -0.057 S 
ATOM     30 CL   UNL     1       0.002  -0.004   0.002  0.00  0.00    -0.076 Cl
ENDBRANCH  22  25
ENDBRANCH  21  22
ENDBRANCH   1  17
TORSDOF 5
