REMARK  Name = ZINC32862989
REMARK  12 active torsions:
REMARK  status: ('A' for Active; 'I' for Inactive)
REMARK    1  A    between atoms: C_1  and  C_2
REMARK    2  A    between atoms: C_2  and  C_4
REMARK    3  A    between atoms: C_2  and  N_14
REMARK    4  A    between atoms: C_7  and  S_10
REMARK    5  A    between atoms: S_10  and  N_13
REMARK    6  A    between atoms: N_17  and  C_18
REMARK    7  A    between atoms: N_17  and  C_19
REMARK    8  A    between atoms: C_19  and  C_20
REMARK    9  A    between atoms: C_23  and  O_28
REMARK   10  A    between atoms: C_24  and  O_26
REMARK   11  A    between atoms: O_26  and  C_27
REMARK   12  A    between atoms: O_28  and  C_29
REMARK                            x       y       z     vdW  Elec       q    Type
REMARK                         _______ _______ _______ _____ _____    ______ ____
ROOT
ATOM      1  N   UNL     1      -3.523   4.479   4.783  0.00  0.00    -0.293 N 
ATOM      2  C   UNL     1      -4.601   4.939   5.447  0.00  0.00    +0.303 C 
ATOM      3  O   UNL     1      -5.250   4.186   6.148  0.00  0.00    -0.253 OA
ATOM      4  N   UNL     1      -4.961   6.232   5.334  0.00  0.00    -0.284 N 
ATOM      5  C   UNL     1      -4.179   7.139   4.490  0.00  0.00    +0.134 C 
ATOM      6  H   UNL     1      -2.936   5.159   4.149  0.00  0.00    +0.151 HD
ENDROOT
BRANCH   1   8
ATOM      7  C   UNL     1      -2.260   2.892   6.150  0.00  0.00    +0.033 C 
ATOM      8  C   UNL     1      -3.132   3.072   4.905  0.00  0.00    +0.102 C 
BRANCH   8   9
ATOM      9  C   UNL     1      -2.354   2.659   3.683  0.00  0.00    -0.027 A 
ATOM     10  C   UNL     1      -2.559   1.412   3.122  0.00  0.00    +0.007 A 
ATOM     11  C   UNL     1      -1.846   1.033   2.000  0.00  0.00    +0.029 A 
ATOM     12  C   UNL     1      -0.927   1.900   1.439  0.00  0.00    +0.105 A 
ATOM     13  C   UNL     1      -0.717   3.145   2.004  0.00  0.00    +0.029 A 
ATOM     14  C   UNL     1      -1.434   3.526   3.123  0.00  0.00    +0.007 A 
BRANCH  12  15
ATOM     15  S   UNL     1      -0.017   1.417   0.010  0.00  0.00    +0.056 S 
ATOM     16  O   UNL     1       0.002  -0.004   0.002  0.00  0.00    -0.153 OA
ATOM     17  O   UNL     1       1.172   2.195   0.003  0.00  0.00    -0.153 OA
BRANCH  15  18
ATOM     18  N   UNL     1      -0.897   1.885  -1.312  0.00  0.00    -0.204 NA
ATOM     19  H   UNL     1      -0.361   1.601  -2.229  0.00  0.00    +0.144 HD
ATOM     20  H   UNL     1      -1.036   2.977  -1.292  0.00  0.00    +0.144 HD
ENDBRANCH  15  18
ENDBRANCH  12  15
ENDBRANCH   8   9
ENDBRANCH   1   8
BRANCH   4  21
ATOM     21  C   UNL     1      -6.134   6.732   6.056  0.00  0.00    +0.144 C 
BRANCH  21  22
ATOM     22  C   UNL     1      -5.713   7.229   7.415  0.00  0.00    -0.026 A 
ATOM     23  C   UNL     1      -5.710   6.366   8.495  0.00  0.00    +0.009 A 
ATOM     24  C   UNL     1      -5.319   6.816   9.742  0.00  0.00    +0.050 A 
ATOM     25  C   UNL     1      -4.940   8.137   9.915  0.00  0.00    +0.168 A 
ATOM     26  C   UNL     1      -4.948   9.008   8.829  0.00  0.00    +0.162 A 
ATOM     27  C   UNL     1      -5.336   8.549   7.580  0.00  0.00    +0.054 A 
BRANCH  26  28
ATOM     28  O   UNL     1      -4.577  10.306   8.993  0.00  0.00    -0.491 OA
ATOM     29  C   UNL     1      -4.609  11.141   7.835  0.00  0.00    +0.277 C 
ENDBRANCH  26  28
BRANCH  25  30
ATOM     30  O   UNL     1      -4.561   8.583  11.143  0.00  0.00    -0.431 OA
BRANCH  30  31
ATOM     31  C   UNL     1      -4.577   7.634  12.211  0.00  0.00    +0.541 C 
ATOM     32  F   UNL     1      -5.875   7.138  12.375  0.00  0.00    -0.166 F 
ATOM     33  F   UNL     1      -3.709   6.578  11.909  0.00  0.00    -0.166 F 
ENDBRANCH  30  31
ENDBRANCH  25  30
ENDBRANCH  21  22
ENDBRANCH   4  21
TORSDOF 9
