REMARK  Name = ZINC00997824
REMARK  10 active torsions:
REMARK  status: ('A' for Active; 'I' for Inactive)
REMARK    1  A    between atoms: C_1  and  C_2
REMARK    2  A    between atoms: C_2  and  O_3
REMARK    3  A    between atoms: O_3  and  C_4
REMARK    4  A    between atoms: C_4  and  C_6
REMARK    5  A    between atoms: C_7  and  C_25
REMARK    6  A    between atoms: C_12  and  C_14
REMARK    7  A    between atoms: C_16  and  O_23
REMARK    8  A    between atoms: C_17  and  O_21
REMARK    9  A    between atoms: O_21  and  C_22
REMARK   10  A    between atoms: O_23  and  C_24
REMARK                            x       y       z     vdW  Elec       q    Type
REMARK                         _______ _______ _______ _____ _____    ______ ____
ROOT
ATOM      1  C   UNL     1       2.209   0.617  -0.365  0.00  0.00    +0.078 C 
ATOM      2  C   UNL     1       1.673   1.759   0.117  0.00  0.00    +0.019 C 
ATOM      3  N   UNL     1       0.329   1.872   0.328  0.00  0.00    -0.300 N 
ATOM      4  C   UNL     1      -0.547   0.890   0.083  0.00  0.00    +0.135 C 
ATOM      5  S   UNL     1      -2.209   1.167   0.387  0.00  0.00    -0.019 S 
ATOM      6  N   UNL     1      -0.164  -0.308  -0.400  0.00  0.00    -0.315 N 
ATOM      7  C   UNL     1       1.268  -0.533  -0.663  0.00  0.00    +0.141 C 
ATOM      8  C   UNL     1       2.573   2.928   0.427  0.00  0.00    +0.061 C 
ATOM      9  H   UNL     1      -0.010   2.712   0.676  0.00  0.00    +0.154 HD
ATOM     10  H   UNL     1      -0.815  -1.006  -0.571  0.00  0.00    +0.149 HD
ENDROOT
BRANCH   7  11
ATOM     11  C   UNL     1       1.710  -1.719   0.154  0.00  0.00    -0.018 A 
ATOM     12  C   UNL     1       1.518  -1.723   1.524  0.00  0.00    +0.055 A 
ATOM     13  C   UNL     1       1.924  -2.812   2.277  0.00  0.00    +0.163 A 
ATOM     14  C   UNL     1       2.524  -3.902   1.653  0.00  0.00    +0.175 A 
ATOM     15  C   UNL     1       2.713  -3.892   0.280  0.00  0.00    +0.063 A 
ATOM     16  C   UNL     1       2.301  -2.803  -0.467  0.00  0.00    +0.025 A 
ATOM     17 BR   UNL     1       3.529  -5.370  -0.572  0.00  0.00    -0.046 Br
BRANCH  14  18
ATOM     18  O   UNL     1       2.923  -4.974   2.389  0.00  0.00    -0.490 OA
ATOM     19  C   UNL     1       1.971  -6.022   2.578  0.00  0.00    +0.277 C 
ENDBRANCH  14  18
BRANCH  13  20
ATOM     20  O   UNL     1       1.735  -2.817   3.624  0.00  0.00    -0.491 OA
ATOM     21  C   UNL     1       1.014  -1.717   4.183  0.00  0.00    +0.277 C 
ENDBRANCH  13  20
ENDBRANCH   7  11
BRANCH   1  22
ATOM     22  C   UNL     1       3.601   0.498  -0.585  0.00  0.00    +0.339 C 
ATOM     23  O   UNL     1       4.324   1.467  -0.443  0.00  0.00    -0.245 OA
BRANCH  22  24
ATOM     24  O   UNL     1       4.127  -0.689  -0.951  0.00  0.00    -0.462 OA
BRANCH  24  26
ATOM     25  C   UNL     1       5.905  -2.100  -1.782  0.00  0.00    +0.048 C 
ATOM     26  C   UNL     1       5.520  -0.710  -1.271  0.00  0.00    +0.229 C 
ENDBRANCH  24  26
ENDBRANCH  22  24
ENDBRANCH   1  22
TORSDOF 6
