REMARK  Name = ZINC09041009
REMARK  8 active torsions:
REMARK  status: ('A' for Active; 'I' for Inactive)
REMARK    1  A    between atoms: C_1  and  C_2
REMARK    2  A    between atoms: C_15  and  S_17
REMARK    3  A    between atoms: S_17  and  C_18
REMARK    4  A    between atoms: C_18  and  C_19
REMARK    5  A    between atoms: N_21  and  C_22
REMARK    6  A    between atoms: C_25  and  C_28
REMARK    7  A    between atoms: C_28  and  C_29
REMARK    8  A    between atoms: C_28  and  C_30
REMARK                            x       y       z     vdW  Elec       q    Type
REMARK                         _______ _______ _______ _____ _____    ______ ____
ROOT
ATOM      1  C   UNL     1       1.101  16.100   1.131  0.00  0.00    +0.008 C 
ATOM      2  C   UNL     1       1.691  14.702   1.323  0.00  0.00    -0.009 C 
ATOM      3  C   UNL     1       2.985  14.572   0.514  0.00  0.00    +0.008 C 
ATOM      4  C   UNL     1       3.707  13.278   0.893  0.00  0.00    +0.037 C 
ATOM      5  C   UNL     1       2.730  12.113   0.765  0.00  0.00    -0.023 A 
ATOM      6  C   UNL     1       1.399  12.330   0.738  0.00  0.00    -0.004 A 
ATOM      7  S   UNL     1       0.673  10.720   0.582  0.00  0.00    -0.073 S 
ATOM      8  C   UNL     1       2.164   9.757   0.553  0.00  0.00    +0.117 A 
ATOM      9  C   UNL     1       3.179  10.723   0.666  0.00  0.00    +0.075 A 
ATOM     10  C   UNL     1       4.519  10.221   0.669  0.00  0.00    +0.261 A 
ATOM     11  O   UNL     1       5.464  10.985   0.762  0.00  0.00    -0.267 OA
ATOM     12  N   UNL     1       4.721   8.895   0.568  0.00  0.00    -0.301 N 
ATOM     13  H   UNL     1       5.628   8.550   0.569  0.00  0.00    +0.171 HD
ATOM     14  C   UNL     1       3.675   8.025   0.462  0.00  0.00    +0.170 A 
ATOM     15  N   UNL     1       2.431   8.461   0.451  0.00  0.00    -0.216 NA
ATOM     16  C   UNL     1       0.692  13.648   0.824  0.00  0.00    +0.046 C 
ENDROOT
BRANCH  14  17
ATOM     17  S   UNL     1       3.991   6.296   0.332  0.00  0.00    -0.078 S 
BRANCH  17  18
ATOM     18  C   UNL     1       2.295   5.673   0.225  0.00  0.00    +0.173 C 
BRANCH  18  19
ATOM     19  C   UNL     1       2.318   4.171   0.104  0.00  0.00    +0.227 C 
ATOM     20  O   UNL     1       3.377   3.580   0.091  0.00  0.00    -0.275 OA
ATOM     21  N   UNL     1       1.162   3.485   0.009  0.00  0.00    -0.285 N 
ATOM     22  H   UNL     1       0.319   3.961  -0.058  0.00  0.00    +0.155 HD
BRANCH  21  23
ATOM     23  C   UNL     1       1.177   2.086   0.008  0.00  0.00    +0.033 A 
ATOM     24  C   UNL     1       2.133   1.400   0.745  0.00  0.00    +0.023 A 
ATOM     25  C   UNL     1       2.145   0.019   0.741  0.00  0.00    +0.006 A 
ATOM     26  C   UNL     1       1.206  -0.681   0.005  0.00  0.00    -0.045 A 
ATOM     27  C   UNL     1       0.253  -0.000  -0.730  0.00  0.00    +0.006 A 
ATOM     28  C   UNL     1       0.236   1.381  -0.731  0.00  0.00    +0.023 A 
BRANCH  26  29
ATOM     29  C   UNL     1       1.223  -2.188   0.004  0.00  0.00    +0.013 C 
ATOM     30  C   UNL     1      -0.108  -2.712   0.547  0.00  0.00    +0.012 C 
ATOM     31  C   UNL     1       1.425  -2.694  -1.426  0.00  0.00    +0.012 C 
ENDBRANCH  26  29
ENDBRANCH  21  23
ENDBRANCH  18  19
ENDBRANCH  17  18
ENDBRANCH  14  17
TORSDOF 5
