REMARK  Name = ZINC43235494
REMARK  7 active torsions:
REMARK  status: ('A' for Active; 'I' for Inactive)
REMARK    1  A    between atoms: C_1  and  C_2
REMARK    2  A    between atoms: C_2  and  C_4
REMARK    3  A    between atoms: C_2  and  N_21
REMARK    4  A    between atoms: C_4  and  C_6
REMARK    5  A    between atoms: C_4  and  O_12
REMARK    6  A    between atoms: N_9  and  C_11
REMARK    7  A    between atoms: O_12  and  C_13
REMARK                            x       y       z     vdW  Elec       q    Type
REMARK                         _______ _______ _______ _____ _____    ______ ____
ROOT
ATOM      1  C   UNL     1       0.767  -0.525  -1.299  0.00  0.00    +0.192 C 
ENDROOT
BRANCH   1   2
ATOM      2  C   UNL     1       0.957  -2.012  -1.449  0.00  0.00    +0.028 A 
ATOM      3  C   UNL     1       0.041  -2.906  -2.014  0.00  0.00    +0.141 A 
ATOM      4  N   UNL     1       0.559  -4.106  -1.967  0.00  0.00    -0.180 NA
ATOM      5  N   UNL     1       1.823  -4.014  -1.369  0.00  0.00    -0.274 N 
ATOM      6  C   UNL     1       2.045  -2.719  -1.065  0.00  0.00    +0.115 A 
ATOM      7  C   UNL     1       2.742  -5.128  -1.123  0.00  0.00    +0.172 C 
ENDBRANCH   1   2
BRANCH   1   9
ATOM      8  C   UNL     1      -0.193   1.274   0.145  0.00  0.00    -0.010 C 
ATOM      9  C   UNL     1      -0.000  -0.236  -0.007  0.00  0.00    -0.032 C 
BRANCH   9  10
ATOM     10  N   UNL     1       0.760  -0.750   1.139  0.00  0.00    +0.382 N 
ATOM     11  H   UNL     1       0.254  -0.560   1.991  0.00  0.00    -0.089 HD
ATOM     12  H   UNL     1       0.887  -1.746   1.039  0.00  0.00    -0.089 HD
ATOM     13  H   UNL     1       1.662  -0.298   1.175  0.00  0.00    -0.089 HD
ENDBRANCH   9  10
ENDBRANCH   1   9
BRANCH   1  14
ATOM     14  O   UNL     1       0.027  -0.024  -2.414  0.00  0.00    -0.484 OA
BRANCH  14  15
ATOM     15  C   UNL     1       0.341   1.223  -2.854  0.00  0.00    +0.140 A 
ATOM     16  C   UNL     1       1.367   1.935  -2.249  0.00  0.00    +0.048 A 
ATOM     17  C   UNL     1       1.685   3.202  -2.697  0.00  0.00    +0.019 A 
ATOM     18  C   UNL     1       0.982   3.763  -3.748  0.00  0.00    +0.019 A 
ATOM     19  C   UNL     1      -0.042   3.056  -4.354  0.00  0.00    +0.039 A 
ATOM     20  C   UNL     1      -0.360   1.785  -3.912  0.00  0.00    +0.084 A 
ATOM     21 CL   UNL     1      -1.639   0.894  -4.676  0.00  0.00    -0.080 Cl
ATOM     22 BR   UNL     1       1.420   5.498  -4.359  0.00  0.00    -0.050 Br
ENDBRANCH  14  15
ENDBRANCH   1  14
TORSDOF 5
