REMARK  Name = ZINC16607938
REMARK  5 active torsions:
REMARK  status: ('A' for Active; 'I' for Inactive)
REMARK    1  A    between atoms: C_1  and  C_2
REMARK    2  A    between atoms: N_4  and  C_25
REMARK    3  A    between atoms: C_9  and  C_17
REMARK    4  A    between atoms: C_11  and  C_15
REMARK    5  A    between atoms: C_12  and  N_14
REMARK                            x       y       z     vdW  Elec       q    Type
REMARK                         _______ _______ _______ _____ _____    ______ ____
ROOT
ATOM      1  C   UNL     1       1.010   3.114   1.362  0.00  0.00    +0.063 C 
ATOM      2  C   UNL     1       2.363   3.767   1.476  0.00  0.00    +0.043 C 
ATOM      3  N   UNL     1       2.564   5.001   1.681  0.00  0.00    -0.185 NA
ATOM      4  N   UNL     1       3.925   5.332   1.763  0.00  0.00    -0.185 N 
ATOM      5  C   UNL     1       4.665   4.220   1.090  0.00  0.00    +0.294 C 
ATOM      6  C   UNL     1       3.689   3.069   1.388  0.00  0.00    +0.109 C 
ATOM      7  C   UNL     1       3.758   1.930   0.413  0.00  0.00    +0.080 C 
ATOM      8  C   UNL     1       4.020   2.390  -0.991  0.00  0.00    +0.094 C 
ATOM      9  C   UNL     1       4.471   3.638  -1.245  0.00  0.00    +0.194 C 
ATOM     10  O   UNL     1       4.645   4.560  -0.297  0.00  0.00    -0.455 OA
ENDROOT
BRANCH   7  11
ATOM     11  C   UNL     1       2.451   1.181   0.446  0.00  0.00    -0.019 A 
ATOM     12  C   UNL     1       1.556   1.308  -0.600  0.00  0.00    +0.006 A 
ATOM     13  C   UNL     1       0.356   0.622  -0.571  0.00  0.00    +0.002 A 
ATOM     14  C   UNL     1       0.051  -0.193   0.504  0.00  0.00    +0.021 A 
ATOM     15  C   UNL     1       0.945  -0.321   1.550  0.00  0.00    +0.060 A 
ATOM     16  C   UNL     1       2.147   0.366   1.521  0.00  0.00    +0.063 A 
ATOM     17 CL   UNL     1       3.271   0.207   2.835  0.00  0.00    -0.082 Cl
ATOM     18 CL   UNL     1       0.562  -1.344   2.900  0.00  0.00    -0.082 Cl
ENDBRANCH   7  11
BRANCH   4  19
ATOM     19  C   UNL     1       4.477   6.470   2.355  0.00  0.00    +0.055 A 
ATOM     20  C   UNL     1       5.855   6.653   2.360  0.00  0.00    +0.025 A 
ATOM     21  C   UNL     1       6.397   7.782   2.942  0.00  0.00    +0.002 A 
ATOM     22  C   UNL     1       5.572   8.725   3.527  0.00  0.00    +0.000 A 
ATOM     23  C   UNL     1       4.201   8.543   3.528  0.00  0.00    +0.002 A 
ATOM     24  C   UNL     1       3.651   7.419   2.944  0.00  0.00    +0.025 A 
ENDBRANCH   4  19
BRANCH   9  25
ATOM     25  N   UNL     1       4.763   3.974  -2.542  0.00  0.00    -0.329 N 
ATOM     26  H   UNL     1       5.088   4.863  -2.752  0.00  0.00    +0.145 HD
ATOM     27  H   UNL     1       4.645   3.321  -3.251  0.00  0.00    +0.145 HD
ENDBRANCH   9  25
BRANCH   8  28
ATOM     28  C   UNL     1       3.787   1.491  -2.081  0.00  0.00    +0.100 C 
ATOM     29  N   UNL     1       3.603   0.778  -2.946  0.00  0.00    -0.191 NA
ENDBRANCH   8  28
TORSDOF 4
