REMARK  Name = ZINC42118875
REMARK  4 active torsions:
REMARK  status: ('A' for Active; 'I' for Inactive)
REMARK    1  A    between atoms: C_1  and  N_2
REMARK    2  A    between atoms: C_6  and  C_7
REMARK    3  A    between atoms: C_7  and  N_8
REMARK    4  A    between atoms: N_8  and  C_9
REMARK                            x       y       z     vdW  Elec       q    Type
REMARK                         _______ _______ _______ _____ _____    ______ ____
ROOT
ATOM      1  C   UNL     1      -1.381   0.133   4.418  0.00  0.00    +0.175 C 
ATOM      2  C   UNL     1      -2.685  -0.279   5.062  0.00  0.00    +0.021 A 
ATOM      3  C   UNL     1      -3.279  -1.504   5.277  0.00  0.00    +0.048 A 
ATOM      4  C   UNL     1      -4.510  -1.574   5.908  0.00  0.00    +0.023 A 
ATOM      5  C   UNL     1      -5.139  -0.414   6.320  0.00  0.00    +0.042 A 
ATOM      6  C   UNL     1      -4.546   0.815   6.107  0.00  0.00    +0.145 A 
ATOM      7  C   UNL     1      -3.306   0.894   5.471  0.00  0.00    +0.076 A 
ATOM      8  N   UNL     1      -2.516   1.998   5.145  0.00  0.00    -0.281 N 
ATOM      9  C   UNL     1      -1.372   1.642   4.529  0.00  0.00    +0.239 C 
ATOM     10  O   UNL     1      -0.500   2.388   4.136  0.00  0.00    -0.273 OA
ATOM     11  F   UNL     1      -5.168   1.944   6.513  0.00  0.00    -0.204 F 
ATOM     12 CL   UNL     1      -2.485  -2.957   4.757  0.00  0.00    -0.083 Cl
ATOM     13  H   UNL     1      -2.761   2.916   5.340  0.00  0.00    +0.155 HD
ENDROOT
BRANCH   1  14
ATOM     14  N   UNL     1      -1.350  -0.281   3.009  0.00  0.00    -0.295 NA
ATOM     15  H   UNL     1      -1.881   0.356   2.434  0.00  0.00    +0.123 HD
BRANCH  14  16
ATOM     16  C   UNL     1       0.032  -0.400   2.526  0.00  0.00    +0.158 C 
BRANCH  16  22
ATOM     17  C   UNL     1      -0.018   1.461   0.010  0.00  0.00    +0.151 C 
ATOM     18  N   UNL     1       0.002  -0.004   0.002  0.00  0.00    -0.319 N 
ATOM     19  C   UNL     1       0.009  -0.813  -1.085  0.00  0.00    +0.224 A 
ATOM     20  N   UNL     1       0.027  -2.044  -0.652  0.00  0.00    -0.138 NA
ATOM     21  N   UNL     1       0.032  -2.051   0.634  0.00  0.00    -0.133 NA
ATOM     22  C   UNL     1       0.024  -0.825   1.080  0.00  0.00    +0.147 A 
ENDBRANCH  16  22
ENDBRANCH  14  16
ENDBRANCH   1  14
TORSDOF 3
