REMARK  Name = ZINC10186973
REMARK  5 active torsions:
REMARK  status: ('A' for Active; 'I' for Inactive)
REMARK    1  A    between atoms: C_4  and  N_17
REMARK    2  A    between atoms: C_5  and  C_7
REMARK    3  A    between atoms: C_18  and  C_20
REMARK    4  A    between atoms: N_25  and  S_26
REMARK    5  A    between atoms: S_26  and  C_29
REMARK                            x       y       z     vdW  Elec       q    Type
REMARK                         _______ _______ _______ _____ _____    ______ ____
ROOT
ATOM      1  N   UNL     1       5.873  -2.049  -0.251  0.00  0.00    -0.284 N 
ATOM      2  C   UNL     1       7.204  -2.041  -0.459  0.00  0.00    +0.236 C 
ATOM      3  O   UNL     1       7.794  -3.083  -0.654  0.00  0.00    -0.274 OA
ATOM      4  H   UNL     1       5.389  -1.211  -0.173  0.00  0.00    +0.155 HD
ENDROOT
BRANCH   1   8
ATOM      5  C   UNL     1       3.832  -5.675   0.053  0.00  0.00    +0.001 A 
ATOM      6  C   UNL     1       5.122  -5.557   0.542  0.00  0.00    +0.002 A 
ATOM      7  C   UNL     1       5.800  -4.357   0.443  0.00  0.00    +0.024 A 
ATOM      8  C   UNL     1       5.189  -3.261  -0.149  0.00  0.00    +0.044 A 
ATOM      9  C   UNL     1       3.884  -3.377  -0.646  0.00  0.00    +0.038 A 
ATOM     10  C   UNL     1       3.209  -4.593  -0.534  0.00  0.00    +0.013 A 
BRANCH   9  11
ATOM     11  C   UNL     1       3.224  -2.217  -1.278  0.00  0.00    +0.141 A 
ATOM     12  N   UNL     1       1.994  -2.242  -1.881  0.00  0.00    -0.338 N 
ATOM     13  H   UNL     1       1.393  -3.036  -1.970  0.00  0.00    +0.167 HD
ATOM     14  C   UNL     1       1.740  -0.965  -2.342  0.00  0.00    +0.066 A 
ATOM     15  C   UNL     1       0.680  -0.379  -3.021  0.00  0.00    +0.028 A 
ATOM     16  C   UNL     1       0.733   0.960  -3.346  0.00  0.00    +0.002 A 
ATOM     17  C   UNL     1       1.838   1.725  -3.000  0.00  0.00    +0.002 A 
ATOM     18  C   UNL     1       2.890   1.167  -2.331  0.00  0.00    +0.030 A 
ATOM     19  C   UNL     1       2.859  -0.189  -1.991  0.00  0.00    +0.089 A 
ATOM     20  N   UNL     1       3.726  -1.008  -1.346  0.00  0.00    -0.228 NA
ENDBRANCH   9  11
ENDBRANCH   1   8
BRANCH   2  21
ATOM     21  C   UNL     1       7.961  -0.738  -0.448  0.00  0.00    +0.166 C 
ATOM     22  C   UNL     1       7.836  -0.070   0.937  0.00  0.00    +0.031 C 
ATOM     23  C   UNL     1       9.154  -0.497   1.645  0.00  0.00    +0.019 C 
ATOM     24  C   UNL     1      10.158  -0.487   0.466  0.00  0.00    +0.110 C 
ATOM     25  N   UNL     1       9.390  -0.988  -0.689  0.00  0.00    -0.164 NA
BRANCH  25  26
ATOM     26  S   UNL     1      10.030  -1.710  -2.034  0.00  0.00    +0.068 S 
ATOM     27  O   UNL     1      11.286  -2.250  -1.646  0.00  0.00    -0.152 OA
ATOM     28  O   UNL     1       8.998  -2.509  -2.596  0.00  0.00    -0.152 OA
BRANCH  26  29
ATOM     29  C   UNL     1      10.370  -0.433  -3.200  0.00  0.00    +0.143 A 
ATOM     30  C   UNL     1      11.499   0.299  -3.360  0.00  0.00    +0.036 A 
ATOM     31  C   UNL     1      11.542   1.257  -4.355  0.00  0.00    +0.010 A 
ATOM     32  C   UNL     1      10.450   1.443  -5.136  0.00  0.00    +0.047 A 
ATOM     33  S   UNL     1       9.312   0.237  -4.472  0.00  0.00    -0.077 S 
ENDBRANCH  26  29
ENDBRANCH  25  26
ENDBRANCH   2  21
TORSDOF 5
