REMARK  Name = ZINC38952155
REMARK  9 active torsions:
REMARK  status: ('A' for Active; 'I' for Inactive)
REMARK    1  A    between atoms: C_1  and  C_2
REMARK    2  A    between atoms: C_2  and  C_3
REMARK    3  A    between atoms: C_3  and  C_5
REMARK    4  A    between atoms: C_3  and  N_16
REMARK    5  A    between atoms: N_10  and  C_11
REMARK    6  A    between atoms: N_16  and  C_17
REMARK    7  A    between atoms: N_16  and  C_31
REMARK    8  A    between atoms: C_17  and  C_18
REMARK    9  A    between atoms: C_23  and  C_30
REMARK                            x       y       z     vdW  Elec       q    Type
REMARK                         _______ _______ _______ _____ _____    ______ ____
ROOT
ATOM      1  N   UNL     1       2.825  -1.579   0.581  0.00  0.00    +0.386 N 
ATOM      2  H   UNL     1       3.416  -2.140  -0.014  0.00  0.00    -0.081 HD
ENDROOT
BRANCH   1   3
ATOM      3  C   UNL     1       3.304  -1.663   1.967  0.00  0.00    -0.068 C 
ATOM      4  C   UNL     1       4.828  -1.427   2.015  0.00  0.00    -0.015 C 
ATOM      5  C   UNL     1       5.328  -2.398   3.113  0.00  0.00    -0.002 C 
ATOM      6  C   UNL     1       4.444  -3.650   2.891  0.00  0.00    -0.002 C 
ATOM      7  C   UNL     1       3.060  -3.077   2.524  0.00  0.00    -0.015 C 
ENDBRANCH   1   3
BRANCH   1   8
ATOM      8  C   UNL     1       1.445  -2.076   0.508  0.00  0.00    -0.025 C 
BRANCH   8   9
ATOM      9  C   UNL     1       0.841  -2.110   1.914  0.00  0.00    +0.204 C 
ATOM     10  N   UNL     1       1.039  -0.821   2.589  0.00  0.00    -0.152 NA
ATOM     11  N   UNL     1      -0.064  -0.335   2.851  0.00  0.00    -0.070 NA
ATOM     12  N   UNL     1      -1.124  -1.140   2.437  0.00  0.00    -0.179 N 
ATOM     13  N   UNL     1      -0.626  -2.272   1.841  0.00  0.00    -0.185 NA
ATOM     14  H   UNL     1      -2.064  -0.933   2.552  0.00  0.00    +0.191 HD
BRANCH  13  15
ATOM     15  C   UNL     1      -1.076  -2.375   0.446  0.00  0.00    +0.080 C 
ATOM     16  C   UNL     1      -1.323  -0.968  -0.135  0.00  0.00    +0.021 C 
ATOM     17  C   UNL     1      -2.565  -1.144  -1.044  0.00  0.00    +0.002 C 
ATOM     18  C   UNL     1      -3.438  -2.139  -0.240  0.00  0.00    +0.002 C 
ATOM     19  C   UNL     1      -2.421  -3.120   0.380  0.00  0.00    +0.021 C 
ENDBRANCH  13  15
ENDBRANCH   8   9
BRANCH   8  21
ATOM     20  C   UNL     1       2.882  -3.960  -0.282  0.00  0.00    +0.002 C 
ATOM     21  C   UNL     1       1.441  -3.486  -0.084  0.00  0.00    -0.015 C 
ENDBRANCH   8  21
ENDBRANCH   1   8
BRANCH   1  22
ATOM     22  C   UNL     1       2.866  -0.180   0.133  0.00  0.00    -0.061 C 
BRANCH  22  23
ATOM     23  C   UNL     1       4.310   0.208  -0.195  0.00  0.00    +0.082 C 
ATOM     24  C   UNL     1       4.327   1.684  -0.539  0.00  0.00    -0.007 C 
ATOM     25  C   UNL     1       4.806   2.034  -1.767  0.00  0.00    -0.007 A 
ATOM     26  C   UNL     1       4.858   3.437  -2.181  0.00  0.00    +0.012 A 
ATOM     27  C   UNL     1       5.341   3.738  -3.414  0.00  0.00    -0.050 A 
ATOM     28  C   UNL     1       5.786   2.741  -4.284  0.00  0.00    +0.005 A 
ATOM     29  C   UNL     1       5.763   1.422  -3.960  0.00  0.00    +0.024 A 
ATOM     30  C   UNL     1       5.281   1.003  -2.706  0.00  0.00    +0.040 A 
ATOM     31  N   UNL     1       5.264  -0.294  -2.399  0.00  0.00    -0.285 N 
ATOM     32  C   UNL     1       4.823  -0.755  -1.241  0.00  0.00    +0.222 C 
ATOM     33  O   UNL     1       4.832  -1.951  -1.018  0.00  0.00    -0.275 OA
ATOM     34  C   UNL     1       5.400   5.179  -3.852  0.00  0.00    +0.044 C 
ATOM     35  H   UNL     1       5.590  -0.929  -3.056  0.00  0.00    +0.155 HD
ENDBRANCH  22  23
ENDBRANCH   1  22
TORSDOF 7
