REMARK  Name = ZINC13635064
REMARK  5 active torsions:
REMARK  status: ('A' for Active; 'I' for Inactive)
REMARK    1  A    between atoms: C_1  and  O_2
REMARK    2  A    between atoms: O_2  and  C_3
REMARK    3  A    between atoms: C_6  and  C_9
REMARK    4  A    between atoms: C_20  and  N_26
REMARK    5  A    between atoms: C_22  and  O_25
REMARK                            x       y       z     vdW  Elec       q    Type
REMARK                         _______ _______ _______ _____ _____    ______ ____
ROOT
ATOM      1  C   UNL     1      -1.207   3.373  -0.527  0.00  0.00    +0.105 C 
ATOM      2  C   UNL     1      -0.171   4.215   0.221  0.00  0.00    +0.029 C 
ATOM      3  C   UNL     1       0.013   5.551  -0.571  0.00  0.00    +0.033 C 
ATOM      4  C   UNL     1       0.996   5.191  -1.668  0.00  0.00    -0.030 C 
ATOM      5  C   UNL     1       1.669   4.114  -1.348  0.00  0.00    -0.023 C 
ATOM      6  C   UNL     1       1.227   3.597   0.002  0.00  0.00    +0.049 C 
ATOM      7  C   UNL     1       1.173   2.098   0.002  0.00  0.00    -0.014 A 
ATOM      8  C   UNL     1       2.376   1.402  -0.010  0.00  0.00    +0.039 A 
ATOM      9  C   UNL     1       2.394   0.023  -0.017  0.00  0.00    +0.130 A 
ATOM     10  C   UNL     1       1.205  -0.685  -0.011  0.00  0.00    +0.080 A 
ATOM     11  C   UNL     1       0.002  -0.004   0.002  0.00  0.00    +0.140 A 
ATOM     12  C   UNL     1      -0.017   1.395   0.010  0.00  0.00    +0.074 A 
ATOM     13  N   UNL     1      -1.260   2.033   0.031  0.00  0.00    -0.334 N 
ATOM     14  H   UNL     1      -1.963   1.470  -0.423  0.00  0.00    +0.147 HD
ENDROOT
BRANCH   1  18
ATOM     15  C   UNL     1      -5.047   5.221  -0.202  0.00  0.00    +0.120 A 
ATOM     16  C   UNL     1      -4.294   5.382  -1.355  0.00  0.00    +0.046 A 
ATOM     17  C   UNL     1      -3.053   4.784  -1.458  0.00  0.00    +0.009 A 
ATOM     18  C   UNL     1      -2.561   4.025  -0.412  0.00  0.00    -0.027 A 
ATOM     19  C   UNL     1      -3.312   3.858   0.736  0.00  0.00    +0.009 A 
ATOM     20  C   UNL     1      -4.551   4.458   0.846  0.00  0.00    +0.046 A 
BRANCH  15  22
ATOM     21  C   UNL     1      -6.988   5.598   1.118  0.00  0.00    +0.277 C 
ATOM     22  O   UNL     1      -6.269   5.807  -0.099  0.00  0.00    -0.495 OA
ENDBRANCH  15  22
ENDBRANCH   1  18
BRANCH   9  23
ATOM     23  N   UNL     1       3.685  -0.700  -0.030  0.00  0.00    +0.057 N 
ATOM     24  O   UNL     1       3.701  -1.918  -0.036  0.00  0.00    -0.126 OA
ATOM     25  O   UNL     1       4.732  -0.077  -0.035  0.00  0.00    -0.126 OA
ENDBRANCH   9  23
BRANCH  11  26
ATOM     26  O   UNL     1      -1.168  -0.697   0.008  0.00  0.00    -0.505 OA
ATOM     27  H   UNL     1      -1.514  -0.893  -0.873  0.00  0.00    +0.292 HD
ENDBRANCH  11  26
TORSDOF 4
