REMARK  Name = ZINC09944407
REMARK  12 active torsions:
REMARK  status: ('A' for Active; 'I' for Inactive)
REMARK    1  A    between atoms: C_1  and  C_2
REMARK    2  A    between atoms: C_2  and  N_3
REMARK    3  A    between atoms: C_7  and  C_9
REMARK    4  A    between atoms: C_9  and  C_11
REMARK    5  A    between atoms: C_9  and  S_12
REMARK    6  A    between atoms: S_12  and  C_13
REMARK    7  A    between atoms: C_16  and  C_19
REMARK    8  A    between atoms: N_17  and  C_18
REMARK    9  A    between atoms: C_26  and  C_29
REMARK   10  A    between atoms: C_29  and  C_30
REMARK   11  A    between atoms: C_29  and  C_31
REMARK   12  A    between atoms: C_29  and  C_32
REMARK                            x       y       z     vdW  Elec       q    Type
REMARK                         _______ _______ _______ _____ _____    ______ ____
ROOT
ATOM      1  C   UNL     1      -3.961   2.013   0.768  0.00  0.00    +0.192 A 
ATOM      2  N   UNL     1      -3.942   3.262   0.361  0.00  0.00    -0.122 NA
ATOM      3  N   UNL     1      -5.099   3.797   0.521  0.00  0.00    -0.128 NA
ATOM      4  C   UNL     1      -5.928   2.924   1.049  0.00  0.00    +0.171 A 
ATOM      5  N   UNL     1      -5.223   1.754   1.224  0.00  0.00    -0.305 N 
ATOM      6  C   UNL     1      -5.723   0.494   1.781  0.00  0.00    +0.153 C 
ENDROOT
BRANCH   4   7
ATOM      7  C   UNL     1      -7.342   3.154   1.389  0.00  0.00    +0.057 A 
ATOM      8  C   UNL     1      -8.021   4.338   1.502  0.00  0.00    +0.023 A 
ATOM      9  C   UNL     1      -9.369   4.329   1.837  0.00  0.00    -0.036 A 
ATOM     10  C   UNL     1      -9.944   3.108   2.035  0.00  0.00    -0.006 A 
ATOM     11  S   UNL     1      -8.621   1.962   1.753  0.00  0.00    -0.090 S 
ATOM     12  C   UNL     1     -11.364   2.819   2.401  0.00  0.00    +0.043 C 
ATOM     13  C   UNL     1     -12.012   4.125   2.885  0.00  0.00    +0.009 C 
ATOM     14  C   UNL     1     -11.681   5.237   1.887  0.00  0.00    -0.001 C 
ATOM     15  C   UNL     1     -10.199   5.602   1.982  0.00  0.00    +0.040 C 
BRANCH  14  16
ATOM     16  C   UNL     1     -12.528   6.472   2.202  0.00  0.00    -0.035 C 
ATOM     17  C   UNL     1     -12.222   6.951   3.623  0.00  0.00    +0.011 C 
ATOM     18  C   UNL     1     -12.199   7.585   1.206  0.00  0.00    +0.011 C 
ATOM     19  C   UNL     1     -14.012   6.113   2.094  0.00  0.00    +0.011 C 
ENDBRANCH  14  16
ENDBRANCH   4   7
BRANCH   1  20
ATOM     20  S   UNL     1      -2.608   0.885   0.740  0.00  0.00    -0.074 S 
BRANCH  20  21
ATOM     21  C   UNL     1      -1.330   1.944   0.019  0.00  0.00    +0.137 C 
ATOM     22  C   UNL     1      -1.720   2.310  -1.414  0.00  0.00    +0.029 C 
BRANCH  21  27
ATOM     23  N   UNL     1       3.478   1.930  -0.021  0.00  0.00    -0.299 N 
ATOM     24  C   UNL     1       2.320   1.240  -0.013  0.00  0.00    +0.306 C 
ATOM     25  O   UNL     1       2.336   0.025  -0.020  0.00  0.00    -0.252 OA
ATOM     26  N   UNL     1       1.143   1.898   0.001  0.00  0.00    -0.239 N 
ATOM     27  C   UNL     1      -0.014   1.208   0.009  0.00  0.00    +0.233 C 
ATOM     28  O   UNL     1       0.002  -0.004   0.002  0.00  0.00    -0.274 OA
ATOM     29  H   UNL     1       3.463   3.030  -0.015  0.00  0.00    +0.150 HD
ATOM     30  H   UNL     1       1.129   2.998   0.007  0.00  0.00    +0.159 HD
BRANCH  23  32
ATOM     31  C   UNL     1       5.905   2.224  -0.042  0.00  0.00    +0.024 C 
ATOM     32  C   UNL     1       4.756   1.214  -0.037  0.00  0.00    +0.102 C 
ENDBRANCH  23  32
ENDBRANCH  21  27
ENDBRANCH  20  21
ENDBRANCH   1  20
TORSDOF 6
