REMARK  Name = ZINC49547704
REMARK  7 active torsions:
REMARK  status: ('A' for Active; 'I' for Inactive)
REMARK    1  A    between atoms: C_1  and  C_2
REMARK    2  A    between atoms: C_2  and  O_3
REMARK    3  A    between atoms: O_3  and  C_4
REMARK    4  A    between atoms: C_9  and  C_10
REMARK    5  A    between atoms: N_15  and  C_22
REMARK    6  A    between atoms: C_18  and  O_21
REMARK    7  A    between atoms: C_24  and  C_27
REMARK                            x       y       z     vdW  Elec       q    Type
REMARK                         _______ _______ _______ _____ _____    ______ ____
ROOT
ATOM      1  C   UNL     1       0.802  -1.825   1.306  0.00  0.00    +0.126 A 
ATOM      2  C   UNL     1       0.260  -2.676   0.352  0.00  0.00    +0.053 A 
ATOM      3  C   UNL     1       0.375  -4.040   0.504  0.00  0.00    +0.001 A 
ATOM      4  C   UNL     1       1.034  -4.581   1.601  0.00  0.00    +0.125 A 
ATOM      5  C   UNL     1       1.571  -3.723   2.556  0.00  0.00    +0.054 A 
ATOM      6  C   UNL     1       1.460  -2.356   2.405  0.00  0.00    +0.015 A 
ATOM      7  O   UNL     1       1.051  -5.942   1.542  0.00  0.00    -0.488 OA
ATOM      8  C   UNL     1       0.025  -6.390   0.640  0.00  0.00    +0.175 C 
ATOM      9  C   UNL     1      -0.110  -5.202  -0.341  0.00  0.00    +0.083 C 
ATOM     10  C   UNL     1      -1.287  -6.633   1.388  0.00  0.00    +0.052 C 
ENDROOT
BRANCH   6  11
ATOM     11  C   UNL     1       2.051  -1.436   3.442  0.00  0.00    +0.115 C 
ATOM     12  C   UNL     1       3.403  -0.988   2.976  0.00  0.00    +0.034 A 
ATOM     13  C   UNL     1       3.754  -0.936   1.615  0.00  0.00    +0.141 A 
ATOM     14  N   UNL     1       4.979  -0.506   1.510  0.00  0.00    -0.178 NA
ATOM     15  N   UNL     1       5.474  -0.260   2.791  0.00  0.00    -0.250 N 
ATOM     16  C   UNL     1       4.486  -0.570   3.702  0.00  0.00    +0.159 A 
ATOM     17  N   UNL     1       4.688  -0.448   5.024  0.00  0.00    -0.197 NA
ATOM     18  C   UNL     1       4.023  -0.644   6.067  0.00  0.00    +0.199 C 
ATOM     19  C   UNL     1       2.618  -1.074   6.229  0.00  0.00    +0.165 C 
ATOM     20  S   UNL     1       2.112  -2.300   5.016  0.00  0.00    -0.138 S 
ATOM     21  C   UNL     1       6.813   0.242   3.113  0.00  0.00    +0.174 C 
BRANCH  18  22
ATOM     22  O   UNL     1       4.691  -0.432   7.220  0.00  0.00    -0.495 OA
ATOM     23  H   UNL     1       5.609  -0.152   7.096  0.00  0.00    +0.293 HD
ENDBRANCH  18  22
ENDBRANCH   6  11
BRANCH   1  24
ATOM     24  O   UNL     1       0.693  -0.477   1.160  0.00  0.00    -0.492 OA
BRANCH  24  26
ATOM     25  C   UNL     1      -0.019   1.526   0.010  0.00  0.00    +0.048 C 
ATOM     26  C   UNL     1       0.002  -0.004   0.002  0.00  0.00    +0.225 C 
ENDBRANCH  24  26
ENDBRANCH   1  24
TORSDOF 4
