REMARK  Name = ZINC63572660
REMARK  2 active torsions:
REMARK  status: ('A' for Active; 'I' for Inactive)
REMARK    1  A    between atoms: C_6  and  C_7
REMARK    2  A    between atoms: N_25  and  C_26
REMARK                            x       y       z     vdW  Elec       q    Type
REMARK                         _______ _______ _______ _____ _____    ______ ____
ROOT
ATOM      1  C   UNL     1      -1.149  -1.511   0.528  0.00  0.00    +0.134 C 
ATOM      2  C   UNL     1      -1.583  -2.448   1.660  0.00  0.00    +0.131 C 
ATOM      3  C   UNL     1      -2.856  -3.139   1.188  0.00  0.00    -0.035 C 
ATOM      4  C   UNL     1      -3.781  -2.890   2.109  0.00  0.00    +0.001 A 
ATOM      5  C   UNL     1      -5.175  -3.342   2.242  0.00  0.00    +0.030 A 
ATOM      6  C   UNL     1      -5.854  -2.878   3.325  0.00  0.00    +0.042 A 
ATOM      7  C   UNL     1      -5.291  -2.020   4.277  0.00  0.00    +0.022 A 
ATOM      8  C   UNL     1      -4.016  -1.558   4.234  0.00  0.00    +0.027 A 
ATOM      9  C   UNL     1      -3.201  -1.981   3.144  0.00  0.00    +0.043 A 
ATOM     10  N   UNL     1      -1.937  -1.710   2.874  0.00  0.00    -0.375 N 
ATOM     11 CL   UNL     1      -7.504  -3.375   3.538  0.00  0.00    -0.084 Cl
ATOM     12  C   UNL     1      -2.943  -3.865  -0.132  0.00  0.00    +0.052 C 
ATOM     13  C   UNL     1      -2.408  -2.898  -1.204  0.00  0.00    +0.114 C 
ATOM     14  N   UNL     1      -1.168  -2.277  -0.727  0.00  0.00    -0.276 N 
ATOM     15  C   UNL     1      -0.035  -2.412  -1.444  0.00  0.00    +0.307 C 
ATOM     16  O   UNL     1       1.021  -2.014  -0.993  0.00  0.00    -0.252 OA
ATOM     17  N   UNL     1      -0.073  -2.989  -2.662  0.00  0.00    -0.267 N 
ATOM     18  H   UNL     1      -0.924  -3.232  -3.057  0.00  0.00    +0.156 HD
ATOM     19  H   UNL     1      -1.345  -1.127   3.376  0.00  0.00    +0.160 HD
ENDROOT
BRANCH  17  20
ATOM     20  C   UNL     1       1.119  -3.237  -3.357  0.00  0.00    +0.070 A 
ATOM     21  C   UNL     1       2.237  -2.448  -3.125  0.00  0.00    +0.029 A 
ATOM     22  C   UNL     1       3.410  -2.695  -3.810  0.00  0.00    +0.040 A 
ATOM     23  C   UNL     1       3.473  -3.728  -4.730  0.00  0.00    +0.126 A 
ATOM     24  C   UNL     1       2.360  -4.517  -4.965  0.00  0.00    +0.078 A 
ATOM     25  C   UNL     1       1.185  -4.279  -4.276  0.00  0.00    +0.147 A 
ATOM     26  F   UNL     1       0.100  -5.052  -4.500  0.00  0.00    -0.203 F 
ATOM     27  F   UNL     1       4.622  -3.966  -5.399  0.00  0.00    -0.205 F 
ENDBRANCH  17  20
BRANCH   1  33
ATOM     28  C   UNL     1       0.587   0.291   0.444  0.00  0.00    +0.008 A 
ATOM     29  C   UNL     1       1.864   0.758   0.687  0.00  0.00    +0.038 A 
ATOM     30  C   UNL     1       2.802  -0.069   1.281  0.00  0.00    +0.123 A 
ATOM     31  C   UNL     1       2.459  -1.363   1.632  0.00  0.00    +0.038 A 
ATOM     32  C   UNL     1       1.180  -1.829   1.388  0.00  0.00    +0.008 A 
ATOM     33  C   UNL     1       0.245  -1.002   0.794  0.00  0.00    -0.025 A 
ATOM     34  F   UNL     1       4.051   0.387   1.519  0.00  0.00    -0.205 F 
ENDBRANCH   1  33
TORSDOF 2
