REMARK  Name = ZINC66715799
REMARK  5 active torsions:
REMARK  status: ('A' for Active; 'I' for Inactive)
REMARK    1  A    between atoms: C_1  and  C_2
REMARK    2  A    between atoms: C_9  and  N_12
REMARK    3  A    between atoms: C_13  and  C_15
REMARK    4  A    between atoms: C_15  and  C_17
REMARK    5  A    between atoms: C_15  and  N_18
REMARK                            x       y       z     vdW  Elec       q    Type
REMARK                         _______ _______ _______ _____ _____    ______ ____
ROOT
ATOM      1  N   UNL     1       0.045  -1.961   3.623  0.00  0.00    -0.282 N 
ATOM      2  C   UNL     1      -0.042  -2.620   4.795  0.00  0.00    +0.237 C 
ATOM      3  O   UNL     1      -0.025  -3.833   4.811  0.00  0.00    -0.273 OA
ATOM      4  H   UNL     1       0.112  -0.993   3.615  0.00  0.00    +0.155 HD
ENDROOT
BRANCH   1  13
ATOM      5  C   UNL     1       2.399   0.969   0.317  0.00  0.00    +0.065 C 
ATOM      6  C   UNL     1       1.762  -0.394   0.226  0.00  0.00    +0.039 A 
ATOM      7  C   UNL     1       1.776  -1.069  -0.992  0.00  0.00    +0.023 A 
ATOM      8  C   UNL     1       1.204  -2.305  -1.093  0.00  0.00    +0.012 A 
ATOM      9  C   UNL     1       0.611  -2.859   0.058  0.00  0.00    +0.002 A 
ATOM     10  C   UNL     1       0.004  -4.125   0.029  0.00  0.00    +0.010 A 
ATOM     11  C   UNL     1      -0.560  -4.633   1.159  0.00  0.00    +0.003 A 
ATOM     12  C   UNL     1      -0.546  -3.916   2.352  0.00  0.00    +0.025 A 
ATOM     13  C   UNL     1       0.039  -2.671   2.420  0.00  0.00    +0.060 A 
ATOM     14  C   UNL     1       0.633  -2.117   1.264  0.00  0.00    +0.092 A 
ATOM     15  N   UNL     1       1.214  -0.915   1.297  0.00  0.00    -0.250 NA
ENDBRANCH   1  13
BRANCH   2  16
ATOM     16  C   UNL     1      -0.161  -1.851   6.086  0.00  0.00    +0.155 C 
ATOM     17  C   UNL     1       1.064  -0.952   6.258  0.00  0.00    +0.038 C 
BRANCH  16  18
ATOM     18  N   UNL     1      -0.240  -2.789   7.208  0.00  0.00    -0.316 N 
ATOM     19  C   UNL     1      -0.850  -2.408   8.383  0.00  0.00    +0.150 C 
ATOM     20  N   UNL     1      -1.360  -1.223   8.502  0.00  0.00    -0.113 NA
ATOM     21  S   UNL     1      -1.994  -1.152  10.049  0.00  0.00    +0.101 S 
ATOM     22  O   UNL     1      -1.219  -0.221  10.792  0.00  0.00    -0.146 OA
ATOM     23  O   UNL     1      -3.409  -1.078   9.934  0.00  0.00    -0.146 OA
ATOM     24  C   UNL     1      -1.582  -2.777  10.622  0.00  0.00    +0.123 A 
ATOM     25  C   UNL     1      -0.933  -3.343   9.515  0.00  0.00    +0.043 A 
ATOM     26  C   UNL     1      -0.473  -4.662   9.643  0.00  0.00    +0.013 A 
ATOM     27  C   UNL     1      -0.667  -5.356  10.817  0.00  0.00    +0.001 A 
ATOM     28  C   UNL     1      -1.315  -4.772  11.890  0.00  0.00    +0.002 A 
ATOM     29  C   UNL     1      -1.769  -3.464  11.785  0.00  0.00    +0.030 A 
ATOM     30  H   UNL     1       0.137  -3.679   7.124  0.00  0.00    +0.148 HD
ENDBRANCH  16  18
ENDBRANCH   2  16
TORSDOF 3
