REMARK  Name = ZINC40800857
REMARK  8 active torsions:
REMARK  status: ('A' for Active; 'I' for Inactive)
REMARK    1  A    between atoms: C_1  and  N_2
REMARK    2  A    between atoms: N_2  and  C_3
REMARK    3  A    between atoms: C_8  and  C_9
REMARK    4  A    between atoms: C_9  and  O_11
REMARK    5  A    between atoms: O_11  and  C_12
REMARK    6  A    between atoms: C_14  and  N_26
REMARK    7  A    between atoms: C_15  and  O_19
REMARK    8  A    between atoms: O_19  and  C_20
REMARK                            x       y       z     vdW  Elec       q    Type
REMARK                         _______ _______ _______ _____ _____    ______ ____
ROOT
ATOM      1  C   UNL     1       1.260   0.382   0.629  0.00  0.00    +0.137 C 
ATOM      2  N   UNL     1      -0.007  -0.004   0.002  0.00  0.00    -0.286 N 
ATOM      3  C   UNL     1      -0.008  -0.600  -1.255  0.00  0.00    +0.153 A 
ATOM      4  C   UNL     1       0.032   0.183  -2.411  0.00  0.00    +0.128 A 
ATOM      5  C   UNL     1       0.029  -0.465  -3.645  0.00  0.00    +0.241 A 
ATOM      6  N   UNL     1      -0.011  -1.793  -3.676  0.00  0.00    -0.200 NA
ATOM      7  C   UNL     1      -0.049  -2.496  -2.562  0.00  0.00    +0.227 A 
ATOM      8  N   UNL     1      -0.042  -1.924  -1.374  0.00  0.00    -0.218 NA
ENDROOT
BRANCH   2   9
ATOM      9  C   UNL     1      -1.208   0.226   0.663  0.00  0.00    +0.049 A 
ATOM     10  C   UNL     1      -1.890   1.422   0.477  0.00  0.00    +0.024 A 
ATOM     11  C   UNL     1      -3.082   1.647   1.135  0.00  0.00    +0.002 A 
ATOM     12  C   UNL     1      -3.608   0.686   1.984  0.00  0.00    +0.001 A 
ATOM     13  C   UNL     1      -2.947  -0.506   2.180  0.00  0.00    +0.017 A 
ATOM     14  C   UNL     1      -1.741  -0.752   1.518  0.00  0.00    +0.080 A 
BRANCH  14  15
ATOM     15  C   UNL     1      -1.031  -2.027   1.719  0.00  0.00    +0.341 C 
ATOM     16  O   UNL     1       0.019  -2.236   1.144  0.00  0.00    -0.245 OA
BRANCH  15  17
ATOM     17  O   UNL     1      -1.547  -2.963   2.540  0.00  0.00    -0.464 OA
ATOM     18  C   UNL     1      -0.806  -4.176   2.688  0.00  0.00    +0.280 C 
ENDBRANCH  15  17
ENDBRANCH  14  15
ENDBRANCH   2   9
BRANCH   4  19
ATOM     19  N   UNL     1       0.074   1.584  -2.333  0.00  0.00    -0.351 N 
ATOM     20  H   UNL     1       0.152   2.019  -1.469  0.00  0.00    +0.143 HD
ATOM     21  H   UNL     1       0.025   2.117  -3.142  0.00  0.00    +0.143 HD
ENDBRANCH   4  19
BRANCH   5  22
ATOM     22  O   UNL     1       0.067   0.249  -4.798  0.00  0.00    -0.472 OA
BRANCH  22  23
ATOM     23  C   UNL     1       0.061  -0.491  -6.021  0.00  0.00    +0.175 C 
ATOM     24  C   UNL     1       1.501  -0.800  -6.437  0.00  0.00    +0.044 C 
ATOM     25  C   UNL     1       1.494  -1.592  -7.746  0.00  0.00    +0.004 C 
ATOM     26  C   UNL     1       0.813  -0.767  -8.839  0.00  0.00    +0.000 C 
ATOM     27  C   UNL     1      -0.626  -0.458  -8.422  0.00  0.00    +0.004 C 
ATOM     28  C   UNL     1      -0.620   0.335  -7.114  0.00  0.00    +0.044 C 
ENDBRANCH  22  23
ENDBRANCH   5  22
TORSDOF 6
