REMARK  Name = ZINC12438202
REMARK  10 active torsions:
REMARK  status: ('A' for Active; 'I' for Inactive)
REMARK    1  A    between atoms: C_1  and  C_2
REMARK    2  A    between atoms: C_2  and  C_3
REMARK    3  A    between atoms: C_4  and  C_25
REMARK    4  A    between atoms: C_9  and  C_13
REMARK    5  A    between atoms: C_13  and  N_47
REMARK    6  A    between atoms: C_14  and  C_15
REMARK    7  A    between atoms: C_14  and  N_47
REMARK    8  A    between atoms: C_18  and  O_22
REMARK    9  A    between atoms: C_19  and  O_21
REMARK   10  A    between atoms: O_22  and  C_23
REMARK                            x       y       z     vdW  Elec       q    Type
REMARK                         _______ _______ _______ _____ _____    ______ ____
ROOT
ATOM      1  C   UNL     1      -0.795   1.527  -1.120  0.00  0.00    -0.044 C 
ENDROOT
BRANCH   1   8
ATOM      2  C   UNL     1      -4.335   2.632   1.301  0.00  0.00    +0.020 A 
ATOM      3  C   UNL     1      -5.176   1.706   0.813  0.00  0.00    -0.022 A 
ATOM      4  C   UNL     1      -4.430   0.931  -0.182  0.00  0.00    +0.006 A 
ATOM      5  C   UNL     1      -4.751  -0.144  -1.013  0.00  0.00    +0.048 A 
ATOM      6  C   UNL     1      -3.794  -0.659  -1.861  0.00  0.00    +0.124 A 
ATOM      7  C   UNL     1      -2.518  -0.109  -1.895  0.00  0.00    +0.042 A 
ATOM      8  C   UNL     1      -2.186   0.947  -1.076  0.00  0.00    -0.038 A 
ATOM      9  C   UNL     1      -3.136   1.482  -0.213  0.00  0.00    +0.048 A 
ATOM     10  N   UNL     1      -3.112   2.514   0.700  0.00  0.00    -0.358 N 
ATOM     11  H   UNL     1      -2.342   3.073   0.889  0.00  0.00    +0.166 HD
ATOM     12  F   UNL     1      -4.100  -1.699  -2.667  0.00  0.00    -0.205 F 
ATOM     13  C   UNL     1      -6.615   1.502   1.213  0.00  0.00    +0.046 C 
BRANCH   2  15
ATOM     14  C   UNL     1      -4.507   3.030   3.743  0.00  0.00    +0.010 C 
ATOM     15  C   UNL     1      -4.687   3.650   2.355  0.00  0.00    +0.050 C 
ENDBRANCH   2  15
ENDBRANCH   1   8
BRANCH   1  16
ATOM     16  N   UNL     1      -0.015   0.998   0.015  0.00  0.00    +0.384 N 
ATOM     17  H   UNL     1       0.032  -0.025  -0.054  0.00  0.00    -0.085 HD
ATOM     18  H   UNL     1      -0.475   1.261   0.894  0.00  0.00    -0.085 HD
BRANCH  16  19
ATOM     19  C   UNL     1       1.353   1.550  -0.003  0.00  0.00    -0.046 C 
BRANCH  19  20
ATOM     20  C   UNL     1       2.125   0.993   1.166  0.00  0.00    -0.061 A 
ATOM     21  C   UNL     1       2.120   1.661   2.377  0.00  0.00    +0.005 A 
ATOM     22  C   UNL     1       2.822   1.151   3.453  0.00  0.00    +0.049 A 
ATOM     23  C   UNL     1       3.542  -0.026   3.316  0.00  0.00    +0.161 A 
ATOM     24  C   UNL     1       3.551  -0.694   2.096  0.00  0.00    +0.159 A 
ATOM     25  C   UNL     1       2.840  -0.181   1.023  0.00  0.00    +0.051 A 
BRANCH  24  26
ATOM     26  O   UNL     1       4.255  -1.849   1.957  0.00  0.00    -0.503 OA
ATOM     27  H   UNL     1       5.169  -1.721   1.668  0.00  0.00    +0.292 HD
ENDBRANCH  24  26
BRANCH  23  28
ATOM     28  O   UNL     1       4.237  -0.526   4.372  0.00  0.00    -0.491 OA
ATOM     29  C   UNL     1       4.182   0.214   5.594  0.00  0.00    +0.277 C 
ENDBRANCH  23  28
ENDBRANCH  19  20
ENDBRANCH  16  19
ENDBRANCH   1  16
TORSDOF 7
