REMARK  Name = ZINC39928491
REMARK  16 active torsions:
REMARK  status: ('A' for Active; 'I' for Inactive)
REMARK    1  A    between atoms: C_1  and  C_2
REMARK    2  A    between atoms: C_2  and  O_3
REMARK    3  A    between atoms: O_3  and  C_4
REMARK    4  A    between atoms: C_6  and  C_16
REMARK    5  A    between atoms: C_8  and  O_13
REMARK    6  A    between atoms: C_9  and  O_10
REMARK    7  A    between atoms: O_10  and  C_11
REMARK    8  A    between atoms: C_11  and  C_12
REMARK    9  A    between atoms: O_13  and  C_14
REMARK   10  A    between atoms: C_14  and  C_15
REMARK   11  A    between atoms: N_18  and  C_19
REMARK   12  A    between atoms: N_18  and  C_34
REMARK   13  A    between atoms: C_19  and  C_20
REMARK   14  A    between atoms: C_26  and  O_32
REMARK   15  A    between atoms: O_32  and  C_33
REMARK   16  A    between atoms: C_37  and  C_40
REMARK                            x       y       z     vdW  Elec       q    Type
REMARK                         _______ _______ _______ _____ _____    ______ ____
ROOT
ATOM      1  C   UNL     1      -0.284  -5.024   0.676  0.00  0.00    +0.251 C 
ATOM      2  O   UNL     1      -0.013  -4.197  -0.174  0.00  0.00    -0.270 OA
ATOM      3  N   UNL     1      -0.005  -6.325   0.464  0.00  0.00    -0.266 N 
ENDROOT
BRANCH   3   4
ATOM      4  C   UNL     1       0.718  -6.709  -0.670  0.00  0.00    +0.037 A 
ATOM      5  C   UNL     1       0.862  -8.055  -0.981  0.00  0.00    +0.024 A 
ATOM      6  C   UNL     1       1.577  -8.431  -2.101  0.00  0.00    +0.005 A 
ATOM      7  C   UNL     1       2.149  -7.469  -2.913  0.00  0.00    -0.050 A 
ATOM      8  C   UNL     1       2.009  -6.128  -2.606  0.00  0.00    +0.005 A 
ATOM      9  C   UNL     1       1.290  -5.745  -1.490  0.00  0.00    +0.024 A 
ATOM     10  C   UNL     1       2.929  -7.883  -4.134  0.00  0.00    +0.044 C 
ENDBRANCH   3   4
BRANCH   1  13
ATOM     11  C   UNL     1      -1.105  -4.771   4.333  0.00  0.00    +0.166 A 
ATOM     12  C   UNL     1      -0.510  -5.168   3.151  0.00  0.00    +0.062 A 
ATOM     13  C   UNL     1      -0.918  -4.602   1.940  0.00  0.00    +0.044 A 
ATOM     14  C   UNL     1      -1.926  -3.635   1.929  0.00  0.00    +0.062 A 
ATOM     15  C   UNL     1      -2.518  -3.241   3.114  0.00  0.00    +0.166 A 
ATOM     16  C   UNL     1      -2.114  -3.811   4.319  0.00  0.00    +0.204 A 
BRANCH  11  17
ATOM     17  O   UNL     1      -0.709  -5.322   5.512  0.00  0.00    -0.488 OA
BRANCH  17  19
ATOM     18  C   UNL     1       0.638  -6.803   6.866  0.00  0.00    +0.048 C 
ATOM     19  C   UNL     1       0.330  -6.301   5.454  0.00  0.00    +0.226 C 
ENDBRANCH  17  19
ENDBRANCH  11  17
BRANCH  16  20
ATOM     20  O   UNL     1      -2.701  -3.426   5.482  0.00  0.00    -0.485 OA
BRANCH  20  21
ATOM     21  C   UNL     1      -2.109  -2.324   6.174  0.00  0.00    +0.226 C 
ATOM     22  C   UNL     1      -2.902  -2.039   7.451  0.00  0.00    +0.048 C 
ENDBRANCH  20  21
ENDBRANCH  16  20
BRANCH  15  23
ATOM     23  O   UNL     1      -3.499  -2.300   3.104  0.00  0.00    -0.488 OA
BRANCH  23  24
ATOM     24  C   UNL     1      -3.945  -1.841   1.826  0.00  0.00    +0.226 C 
ATOM     25  C   UNL     1      -4.956  -0.708   2.015  0.00  0.00    +0.048 C 
ENDBRANCH  23  24
ENDBRANCH  15  23
ENDBRANCH   1  13
BRANCH   3  26
ATOM     26  C   UNL     1      -0.459  -7.337   1.420  0.00  0.00    +0.131 C 
BRANCH  26  27
ATOM     27  C   UNL     1      -1.765  -7.960   0.922  0.00  0.00    +0.116 C 
ATOM     28  C   UNL     1      -2.086  -9.143   1.813  0.00  0.00    -0.003 C 
ATOM     29  C   UNL     1      -3.280  -9.130   2.466  0.00  0.00    -0.007 A 
ATOM     30  C   UNL     1      -3.663 -10.237   3.346  0.00  0.00    +0.013 A 
ATOM     31  C   UNL     1      -4.859 -10.189   3.979  0.00  0.00    +0.046 A 
ATOM     32  C   UNL     1      -5.732  -9.104   3.808  0.00  0.00    +0.122 A 
ATOM     33  C   UNL     1      -5.426  -8.035   2.994  0.00  0.00    +0.069 A 
ATOM     34  C   UNL     1      -4.210  -7.999   2.299  0.00  0.00    +0.044 A 
ATOM     35  N   UNL     1      -3.925  -6.959   1.512  0.00  0.00    -0.284 N 
ATOM     36  C   UNL     1      -2.798  -6.859   0.831  0.00  0.00    +0.226 C 
ATOM     37  O   UNL     1      -2.592  -5.885   0.131  0.00  0.00    -0.275 OA
ATOM     38  H   UNL     1      -4.575  -6.242   1.439  0.00  0.00    +0.155 HD
BRANCH  32  39
ATOM     39  O   UNL     1      -6.916  -9.107   4.465  0.00  0.00    -0.495 OA
ATOM     40  C   UNL     1      -7.192 -10.235   5.299  0.00  0.00    +0.277 C 
ENDBRANCH  32  39
ENDBRANCH  26  27
ENDBRANCH   3  26
TORSDOF 11
