REMARK  Name = ZINC48435660
REMARK  10 active torsions:
REMARK  status: ('A' for Active; 'I' for Inactive)
REMARK    1  A    between atoms: C_1  and  C_2
REMARK    2  A    between atoms: C_4  and  C_27
REMARK    3  A    between atoms: C_5  and  C_9
REMARK    4  A    between atoms: C_6  and  C_8
REMARK    5  A    between atoms: C_14  and  C_17
REMARK    6  A    between atoms: C_17  and  N_18
REMARK    7  A    between atoms: C_20  and  C_23
REMARK    8  A    between atoms: C_23  and  C_24
REMARK    9  A    between atoms: C_23  and  C_25
REMARK   10  A    between atoms: C_23  and  N_26
REMARK                            x       y       z     vdW  Elec       q    Type
REMARK                         _______ _______ _______ _____ _____    ______ ____
ROOT
ATOM      1  C   UNL     1       0.059  -4.251  -0.021  0.00  0.00    +0.247 C 
ATOM      2  O   UNL     1       1.120  -4.845  -0.030  0.00  0.00    -0.270 OA
ATOM      3  N   UNL     1      -1.099  -4.941  -0.019  0.00  0.00    -0.297 N 
ATOM      4  C   UNL     1      -2.389  -4.237  -0.015  0.00  0.00    +0.108 C 
ATOM      5  C   UNL     1      -3.231  -4.758   1.153  0.00  0.00    +0.024 C 
ATOM      6  C   UNL     1      -3.346  -6.281   1.055  0.00  0.00    +0.013 C 
ATOM      7  C   UNL     1      -1.952  -6.907   1.147  0.00  0.00    +0.024 C 
ATOM      8  C   UNL     1      -1.096  -6.410  -0.027  0.00  0.00    +0.108 C 
ENDROOT
BRANCH   1  13
ATOM      9  C   UNL     1      -0.018   1.503   0.010  0.00  0.00    +0.044 C 
ATOM     10  C   UNL     1       0.002  -0.004   0.002  0.00  0.00    -0.050 A 
ATOM     11  C   UNL     1       0.006  -0.686  -1.202  0.00  0.00    +0.007 A 
ATOM     12  C   UNL     1       0.024  -2.066  -1.216  0.00  0.00    -0.038 A 
ATOM     13  C   UNL     1       0.040  -2.773  -0.013  0.00  0.00    +0.043 A 
ATOM     14  C   UNL     1       0.036  -2.079   1.198  0.00  0.00    -0.038 A 
ATOM     15  C   UNL     1       0.023  -0.699   1.198  0.00  0.00    +0.007 A 
ATOM     16  C   UNL     1       0.052  -2.834   2.501  0.00  0.00    +0.044 C 
ATOM     17  C   UNL     1       0.028  -2.807  -2.528  0.00  0.00    +0.044 C 
ENDBRANCH   1  13
BRANCH   6  18
ATOM     18  C   UNL     1      -4.215  -6.802   2.201  0.00  0.00    +0.148 C 
BRANCH  18  19
ATOM     19  N   UNL     1      -4.424  -8.243   2.040  0.00  0.00    -0.251 N 
ATOM     20  C   UNL     1      -4.152  -9.192   2.965  0.00  0.00    +0.132 A 
ATOM     21  C   UNL     1      -4.494 -10.375   2.403  0.00  0.00    +0.071 A 
ATOM     22  N   UNL     1      -4.953 -10.096   1.178  0.00  0.00    -0.136 NA
ATOM     23  N   UNL     1      -4.904  -8.823   0.996  0.00  0.00    -0.065 NA
BRANCH  21  24
ATOM     24  C   UNL     1      -4.380 -11.739   3.034  0.00  0.00    -0.030 C 
ATOM     25  C   UNL     1      -4.878 -12.799   2.050  0.00  0.00    -0.004 C 
ATOM     26  C   UNL     1      -2.917 -12.017   3.387  0.00  0.00    -0.004 C 
BRANCH  24  27
ATOM     27  N   UNL     1      -5.195 -11.784   4.255  0.00  0.00    +0.385 N 
ATOM     28  H   UNL     1      -6.159 -11.600   4.023  0.00  0.00    -0.089 HD
ATOM     29  H   UNL     1      -5.118 -12.697   4.678  0.00  0.00    -0.089 HD
ATOM     30  H   UNL     1      -4.867 -11.084   4.905  0.00  0.00    -0.089 HD
ENDBRANCH  24  27
ENDBRANCH  21  24
ENDBRANCH  18  19
ENDBRANCH   6  18
TORSDOF 5
