REMARK  Name = ZINC39654512
REMARK  10 active torsions:
REMARK  status: ('A' for Active; 'I' for Inactive)
REMARK    1  A    between atoms: C_1  and  C_2
REMARK    2  A    between atoms: C_2  and  C_3
REMARK    3  A    between atoms: C_6  and  C_9
REMARK    4  A    between atoms: C_9  and  C_10
REMARK    5  A    between atoms: C_10  and  N_11
REMARK    6  A    between atoms: C_12  and  C_14
REMARK    7  A    between atoms: C_25  and  C_27
REMARK    8  A    between atoms: C_29  and  C_34
REMARK    9  A    between atoms: N_31  and  C_32
REMARK   10  A    between atoms: C_32  and  C_33
REMARK                            x       y       z     vdW  Elec       q    Type
REMARK                         _______ _______ _______ _____ _____    ______ ____
ROOT
ATOM      1  C   UNL     1       5.062  -0.841  -8.814  0.00  0.00    +0.100 C 
ATOM      2  C   UNL     1       6.274  -1.704  -8.400  0.00  0.00    +0.121 C 
ATOM      3  N   UNL     1       7.285  -1.460  -9.455  0.00  0.00    -0.295 N 
ATOM      4  C   UNL     1       7.167  -0.013  -9.752  0.00  0.00    +0.115 C 
ATOM      5  C   UNL     1       5.652   0.269  -9.700  0.00  0.00    -0.004 C 
ATOM      6  C   UNL     1       5.391   1.637  -9.078  0.00  0.00    -0.010 C 
ATOM      7  C   UNL     1       5.935   2.727 -10.006  0.00  0.00    -0.082 C 
ATOM      8  N   UNL     1       5.279   2.630 -11.315  0.00  0.00    +0.379 N 
ATOM      9  C   UNL     1       5.612   1.348 -11.948  0.00  0.00    -0.082 C 
ATOM     10  C   UNL     1       5.054   0.200 -11.102  0.00  0.00    -0.010 C 
ATOM     11  C   UNL     1       8.124  -2.353 -10.018  0.00  0.00    +0.266 C 
ATOM     12  O   UNL     1       8.968  -1.979 -10.810  0.00  0.00    -0.268 OA
ATOM     13  H   UNL     1       4.280   2.695 -11.195  0.00  0.00    -0.086 HD
ATOM     14  H   UNL     1       5.595   3.386 -11.905  0.00  0.00    -0.086 HD
ENDROOT
BRANCH  11  15
ATOM     15  C   UNL     1       8.017  -3.779  -9.676  0.00  0.00    +0.138 A 
ATOM     16  C   UNL     1       8.791  -4.475  -8.762  0.00  0.00    +0.071 A 
ATOM     17  C   UNL     1       8.310  -5.787  -8.793  0.00  0.00    +0.075 A 
ATOM     18  N   UNL     1       7.333  -5.836  -9.662  0.00  0.00    -0.175 NA
ATOM     19  N   UNL     1       7.131  -4.683 -10.191  0.00  0.00    -0.258 N 
ATOM     20  C   UNL     1       8.826  -6.941  -7.972  0.00  0.00    +0.069 C 
ATOM     21 BR   UNL     1      10.199  -3.795  -7.698  0.00  0.00    -0.046 Br
BRANCH  19  22
ATOM     22  C   UNL     1       6.109  -4.384 -11.197  0.00  0.00    +0.141 C 
ATOM     23  C   UNL     1       6.648  -4.721 -12.588  0.00  0.00    +0.029 C 
ENDBRANCH  19  22
ENDBRANCH  11  15
BRANCH   1  25
ATOM     24  N   UNL     1       3.080   0.015  -7.607  0.00  0.00    -0.315 N 
ATOM     25  C   UNL     1       4.402  -0.245  -7.597  0.00  0.00    +0.218 C 
ATOM     26  O   UNL     1       5.061   0.001  -6.609  0.00  0.00    -0.275 OA
ATOM     27  H   UNL     1       2.567  -0.111  -8.420  0.00  0.00    +0.149 HD
BRANCH  24  28
ATOM     28  C   UNL     1       2.417   0.488  -6.389  0.00  0.00    +0.109 C 
BRANCH  28  29
ATOM     29  C   UNL     1       0.929   0.705  -6.669  0.00  0.00    +0.054 C 
BRANCH  29  33
ATOM     30  C   UNL     1      -1.005   2.084  -3.119  0.00  0.00    -0.048 A 
ATOM     31  C   UNL     1      -0.467   2.993  -4.010  0.00  0.00    +0.004 A 
ATOM     32  C   UNL     1       0.160   2.547  -5.159  0.00  0.00    +0.004 A 
ATOM     33  C   UNL     1       0.247   1.192  -5.416  0.00  0.00    -0.046 A 
ATOM     34  C   UNL     1      -0.291   0.282  -4.525  0.00  0.00    +0.004 A 
ATOM     35  C   UNL     1      -0.913   0.728  -3.374  0.00  0.00    +0.004 A 
BRANCH  30  37
ATOM     36  C   UNL     1      -0.660   2.688  -0.739  0.00  0.00    +0.009 C 
ATOM     37  C   UNL     1      -1.688   2.570  -1.866  0.00  0.00    +0.032 C 
ENDBRANCH  30  37
ENDBRANCH  29  33
ENDBRANCH  28  29
ENDBRANCH  24  28
ENDBRANCH   1  25
TORSDOF 7
