REMARK  Name = ZINC14623379
REMARK  15 active torsions:
REMARK  status: ('A' for Active; 'I' for Inactive)
REMARK    1  A    between atoms: C_1  and  C_2
REMARK    2  A    between atoms: C_2  and  C_3
REMARK    3  A    between atoms: C_3  and  C_4
REMARK    4  A    between atoms: C_4  and  N_5
REMARK    5  A    between atoms: C_6  and  N_33
REMARK    6  A    between atoms: C_7  and  N_14
REMARK    7  A    between atoms: N_14  and  C_15
REMARK    8  A    between atoms: C_15  and  C_16
REMARK    9  A    between atoms: C_16  and  C_17
REMARK   10  A    between atoms: C_17  and  C_18
REMARK   11  A    between atoms: C_17  and  C_19
REMARK   12  A    between atoms: C_20  and  C_22
REMARK   13  A    between atoms: C_22  and  C_24
REMARK   14  A    between atoms: C_22  and  O_25
REMARK   15  A    between atoms: O_25  and  C_26
REMARK                            x       y       z     vdW  Elec       q    Type
REMARK                         _______ _______ _______ _____ _____    ______ ____
ROOT
ATOM      1  N   UNL     1      -1.344  -4.795   2.384  0.00  0.00    -0.261 N 
ATOM      2  C   UNL     1      -1.466  -4.168   3.573  0.00  0.00    +0.260 C 
ATOM      3  O   UNL     1      -1.361  -4.798   4.604  0.00  0.00    -0.271 OA
ENDROOT
BRANCH   1   6
ATOM      4  N   UNL     1      -2.348  -3.440  -0.880  0.00  0.00    -0.280 N 
ATOM      5  C   UNL     1      -2.374  -4.183   0.277  0.00  0.00    +0.127 A 
ATOM      6  C   UNL     1      -1.346  -4.047   1.188  0.00  0.00    +0.140 A 
ATOM      7  C   UNL     1      -0.301  -3.149   0.904  0.00  0.00    +0.277 A 
ATOM      8  O   UNL     1       0.619  -3.008   1.692  0.00  0.00    -0.266 OA
ATOM      9  N   UNL     1      -0.323  -2.444  -0.245  0.00  0.00    -0.273 N 
ATOM     10  H   UNL     1       0.417  -1.803  -0.446  0.00  0.00    +0.173 HD
ATOM     11  C   UNL     1      -1.330  -2.594  -1.123  0.00  0.00    +0.331 A 
ATOM     12  O   UNL     1      -1.323  -1.950  -2.155  0.00  0.00    -0.246 OA
BRANCH   5  13
ATOM     13  N   UNL     1      -3.410  -5.051   0.523  0.00  0.00    -0.343 N 
ATOM     14  H   UNL     1      -4.165  -5.091  -0.086  0.00  0.00    +0.144 HD
ATOM     15  H   UNL     1      -3.387  -5.625   1.304  0.00  0.00    +0.144 HD
ENDBRANCH   5  13
BRANCH   4  16
ATOM     16  C   UNL     1      -3.432  -3.575  -1.857  0.00  0.00    +0.128 C 
BRANCH  16  17
ATOM     17  C   UNL     1      -4.536  -2.567  -1.535  0.00  0.00    +0.021 C 
BRANCH  17  19
ATOM     18  C   UNL     1      -6.773  -1.699  -2.233  0.00  0.00    +0.004 C 
ATOM     19  C   UNL     1      -5.668  -2.708  -2.555  0.00  0.00    -0.002 C 
ENDBRANCH  17  19
ENDBRANCH  16  17
ENDBRANCH   4  16
ENDBRANCH   1   6
BRANCH   2  20
ATOM     20  C   UNL     1      -1.734  -2.686   3.619  0.00  0.00    +0.256 C 
ATOM     21  C   UNL     1      -3.156  -2.409   3.128  0.00  0.00    +0.062 C 
BRANCH  20  22
ATOM     22  O   UNL     1      -1.594  -2.218   4.962  0.00  0.00    -0.480 OA
BRANCH  22  23
ATOM     23  C   UNL     1      -1.283  -0.906   5.129  0.00  0.00    +0.122 A 
ATOM     24  C   UNL     1      -1.216  -0.063   4.029  0.00  0.00    +0.047 A 
ATOM     25  C   UNL     1      -0.905   1.272   4.202  0.00  0.00    +0.019 A 
ATOM     26  C   UNL     1      -0.649   1.766   5.469  0.00  0.00    +0.018 A 
ATOM     27  C   UNL     1      -0.710   0.925   6.566  0.00  0.00    +0.019 A 
ATOM     28  C   UNL     1      -1.026  -0.409   6.398  0.00  0.00    +0.047 A 
ATOM     29 BR   UNL     1      -0.217   3.592   5.701  0.00  0.00    -0.050 Br
ENDBRANCH  22  23
ENDBRANCH  20  22
ENDBRANCH   2  20
BRANCH   1  30
ATOM     30  C   UNL     1      -1.209  -6.253   2.336  0.00  0.00    +0.114 C 
BRANCH  30  31
ATOM     31  C   UNL     1       0.274  -6.626   2.274  0.00  0.00    +0.022 C 
BRANCH  31  32
ATOM     32  C   UNL     1       0.412  -8.140   2.100  0.00  0.00    -0.016 C 
ATOM     33  C   UNL     1      -0.166  -8.553   0.745  0.00  0.00    +0.007 C 
ATOM     34  C   UNL     1       1.891  -8.528   2.163  0.00  0.00    +0.007 C 
ENDBRANCH  31  32
ENDBRANCH  30  31
ENDBRANCH   1  30
TORSDOF 11
