REMARK  Name = ZINC06545746
REMARK  10 active torsions:
REMARK  status: ('A' for Active; 'I' for Inactive)
REMARK    1  A    between atoms: C_1  and  C_2
REMARK    2  A    between atoms: C_2  and  O_3
REMARK    3  A    between atoms: O_3  and  C_4
REMARK    4  A    between atoms: C_4  and  C_6
REMARK    5  A    between atoms: C_7  and  C_32
REMARK    6  A    between atoms: C_9  and  N_31
REMARK    7  A    between atoms: C_10  and  C_29
REMARK    8  A    between atoms: C_11  and  C_13
REMARK    9  A    between atoms: C_17  and  C_28
REMARK   10  A    between atoms: C_21  and  N_22
REMARK                            x       y       z     vdW  Elec       q    Type
REMARK                         _______ _______ _______ _____ _____    ______ ____
ROOT
ATOM      1  C   UNL     1      -0.798   1.692   3.617  0.00  0.00    +0.088 C 
ATOM      2  C   UNL     1      -0.368   1.332   4.832  0.00  0.00    +0.133 C 
ATOM      3  O   UNL     1      -1.007   1.693   5.954  0.00  0.00    -0.444 OA
ATOM      4  C   UNL     1      -2.288   2.096   5.883  0.00  0.00    +0.198 C 
ATOM      5  C   UNL     1      -2.842   2.510   4.718  0.00  0.00    +0.098 C 
ATOM      6  C   UNL     1      -2.033   2.534   3.447  0.00  0.00    +0.108 C 
ENDROOT
BRANCH   6   7
ATOM      7  C   UNL     1      -1.633   3.952   3.130  0.00  0.00    +0.004 A 
ATOM      8  C   UNL     1      -0.806   4.633   3.972  0.00  0.00    +0.018 A 
ATOM      9  C   UNL     1      -0.456   5.957   3.639  0.00  0.00    -0.001 A 
ATOM     10  C   UNL     1       0.391   6.715   4.462  0.00  0.00    +0.013 A 
ATOM     11  C   UNL     1       0.709   7.992   4.107  0.00  0.00    -0.050 A 
ATOM     12  C   UNL     1       0.203   8.555   2.938  0.00  0.00    +0.005 A 
ATOM     13  C   UNL     1      -0.621   7.848   2.118  0.00  0.00    +0.026 A 
ATOM     14  C   UNL     1      -0.971   6.528   2.449  0.00  0.00    +0.048 A 
ATOM     15  C   UNL     1      -2.106   4.571   1.964  0.00  0.00    +0.103 A 
ATOM     16  C   UNL     1       1.619   8.804   4.992  0.00  0.00    +0.044 C 
ATOM     17  N   UNL     1      -1.807   5.842   1.596  0.00  0.00    -0.343 N 
ATOM     18  H   UNL     1      -2.180   6.265   0.738  0.00  0.00    +0.167 HD
BRANCH  15  19
ATOM     19  N   UNL     1      -2.942   3.864   1.113  0.00  0.00    -0.316 N 
ATOM     20  C   UNL     1      -2.277   3.584  -0.166  0.00  0.00    +0.106 C 
ATOM     21  C   UNL     1      -3.170   2.682  -1.020  0.00  0.00    +0.019 C 
ATOM     22  C   UNL     1      -4.511   3.381  -1.262  0.00  0.00    +0.003 C 
ATOM     23  C   UNL     1      -5.160   3.704   0.086  0.00  0.00    +0.019 C 
ATOM     24  C   UNL     1      -4.209   4.577   0.908  0.00  0.00    +0.106 C 
ENDBRANCH  15  19
ENDBRANCH   6   7
BRANCH   4  25
ATOM     25  N   UNL     1      -3.055   2.089   7.021  0.00  0.00    -0.328 N 
ATOM     26  H   UNL     1      -2.671   1.796   7.863  0.00  0.00    +0.145 HD
ATOM     27  H   UNL     1      -3.980   2.378   6.985  0.00  0.00    +0.145 HD
ENDBRANCH   4  25
BRANCH   1  28
ATOM     28  C   UNL     1      -0.075   1.278   2.471  0.00  0.00    +0.339 C 
ATOM     29  O   UNL     1      -0.473   0.339   1.807  0.00  0.00    -0.245 OA
BRANCH  28  30
ATOM     30  O   UNL     1       1.055   1.925   2.116  0.00  0.00    -0.462 OA
BRANCH  30  32
ATOM     31  C   UNL     1       2.985   2.291   0.708  0.00  0.00    +0.048 C 
ATOM     32  C   UNL     1       1.668   1.532   0.887  0.00  0.00    +0.229 C 
ENDBRANCH  30  32
ENDBRANCH  28  30
ENDBRANCH   1  28
BRANCH   5  33
ATOM     33  C   UNL     1      -4.210   2.932   4.695  0.00  0.00    +0.101 C 
ATOM     34  N   UNL     1      -5.296   3.267   4.677  0.00  0.00    -0.191 NA
ENDBRANCH   5  33
BRANCH   2  35
ATOM     35  C   UNL     1       0.878   0.491   4.944  0.00  0.00    +0.183 C 
ATOM     36 CL   UNL     1       2.305   1.563   5.204  0.00  0.00    -0.117 Cl
ENDBRANCH   2  35
TORSDOF 8
