REMARK  Name = ZINC06260504
REMARK  9 active torsions:
REMARK  status: ('A' for Active; 'I' for Inactive)
REMARK    1  A    between atoms: C_1  and  C_2
REMARK    2  A    between atoms: C_2  and  C_4
REMARK    3  A    between atoms: C_2  and  N_10
REMARK    4  A    between atoms: C_11  and  C_13
REMARK    5  A    between atoms: C_14  and  N_15
REMARK    6  A    between atoms: C_14  and  C_29
REMARK    7  A    between atoms: N_15  and  N_16
REMARK    8  A    between atoms: C_17  and  C_19
REMARK    9  A    between atoms: C_22  and  N_26
REMARK                            x       y       z     vdW  Elec       q    Type
REMARK                         _______ _______ _______ _____ _____    ______ ____
ROOT
ATOM      1  N   UNL     1       2.351  -3.905  -1.660  0.00  0.00    -0.268 N 
ATOM      2  H   UNL     1       1.681  -4.632  -1.178  0.00  0.00    +0.170 HD
ENDROOT
BRANCH   1   3
ATOM      3  N   UNL     1       3.432  -4.353  -2.430  0.00  0.00    -0.233 N 
ATOM      4  C   UNL     1       3.651  -5.675  -2.581  0.00  0.00    +0.260 C 
ATOM      5  O   UNL     1       2.909  -6.478  -2.048  0.00  0.00    -0.269 OA
ATOM      6  H   UNL     1       4.103  -3.627  -2.912  0.00  0.00    +0.173 HD
BRANCH   4   7
ATOM      7  C   UNL     1       4.791  -6.148  -3.394  0.00  0.00    +0.040 A 
ATOM      8  C   UNL     1       5.641  -5.228  -4.012  0.00  0.00    +0.015 A 
ATOM      9  C   UNL     1       6.706  -5.675  -4.765  0.00  0.00    +0.035 A 
ATOM     10  C   UNL     1       6.928  -7.032  -4.918  0.00  0.00    +0.144 A 
ATOM     11  C   UNL     1       6.087  -7.950  -4.312  0.00  0.00    +0.072 A 
ATOM     12  C   UNL     1       5.020  -7.515  -3.551  0.00  0.00    +0.035 A 
ATOM     13 CL   UNL     1       6.374  -9.651  -4.510  0.00  0.00    -0.081 Cl
BRANCH  10  14
ATOM     14  N   UNL     1       8.070  -7.505  -5.733  0.00  0.00    +0.058 N 
ATOM     15  O   UNL     1       8.812  -6.699  -6.267  0.00  0.00    -0.126 OA
ATOM     16  O   UNL     1       8.268  -8.699  -5.870  0.00  0.00    -0.126 OA
ENDBRANCH  10  14
ENDBRANCH   4   7
ENDBRANCH   1   3
BRANCH   1  18
ATOM     17  C   UNL     1       0.981  -2.168  -0.689  0.00  0.00    +0.087 C 
ATOM     18  C   UNL     1       2.144  -2.650  -1.517  0.00  0.00    +0.024 C 
ATOM     19  C   UNL     1       3.063  -1.655  -2.178  0.00  0.00    +0.062 C 
BRANCH  17  21
ATOM     20  N   UNL     1       0.002  -0.004   0.002  0.00  0.00    -0.305 N 
ATOM     21  C   UNL     1       0.961  -0.661  -0.680  0.00  0.00    +0.239 C 
ATOM     22  O   UNL     1       1.807  -0.040  -1.287  0.00  0.00    -0.271 OA
ATOM     23  H   UNL     1      -0.765  -0.568   0.553  0.00  0.00    +0.150 HD
BRANCH  20  25
ATOM     24  C   UNL     1      -0.758   1.968  -1.230  0.00  0.00    +0.033 C 
ATOM     25  C   UNL     1      -0.018   1.461   0.010  0.00  0.00    +0.100 C 
BRANCH  25  26
ATOM     26  C   UNL     1      -0.723   1.947   1.250  0.00  0.00    -0.027 A 
ATOM     27  C   UNL     1      -1.859   1.298   1.698  0.00  0.00    +0.005 A 
ATOM     28  C   UNL     1      -2.503   1.741   2.838  0.00  0.00    +0.000 A 
ATOM     29  C   UNL     1      -2.018   2.839   3.524  0.00  0.00    +0.000 A 
ATOM     30  C   UNL     1      -0.885   3.490   3.073  0.00  0.00    +0.000 A 
ATOM     31  C   UNL     1      -0.238   3.045   1.936  0.00  0.00    +0.005 A 
ENDBRANCH  25  26
ENDBRANCH  20  25
ENDBRANCH  17  21
ENDBRANCH   1  18
TORSDOF 7
