REMARK  Name = ZINC08451673
REMARK  8 active torsions:
REMARK  status: ('A' for Active; 'I' for Inactive)
REMARK    1  A    between atoms: C_1  and  O_2
REMARK    2  A    between atoms: O_2  and  C_3
REMARK    3  A    between atoms: C_5  and  C_14
REMARK    4  A    between atoms: C_8  and  O_9
REMARK    5  A    between atoms: O_9  and  C_10
REMARK    6  A    between atoms: C_10  and  C_11
REMARK    7  A    between atoms: N_15  and  N_16
REMARK    8  A    between atoms: C_17  and  C_19
REMARK                            x       y       z     vdW  Elec       q    Type
REMARK                         _______ _______ _______ _____ _____    ______ ____
ROOT
ATOM      1  C   UNL     1       0.036   0.990   0.102  0.00  0.00    +0.138 C 
ATOM      2  N   UNL     1      -1.038   1.619  -0.268  0.00  0.00    -0.187 NA
ENDROOT
BRANCH   1   5
ATOM      3  C   UNL     1       3.390   1.790   1.587  0.00  0.00    +0.162 A 
ATOM      4  C   UNL     1       2.360   1.093   0.984  0.00  0.00    +0.059 A 
ATOM      5  C   UNL     1       1.138   1.728   0.745  0.00  0.00    -0.002 A 
ATOM      6  C   UNL     1       0.966   3.066   1.111  0.00  0.00    +0.013 A 
ATOM      7  C   UNL     1       1.996   3.752   1.717  0.00  0.00    +0.050 A 
ATOM      8  C   UNL     1       3.209   3.122   1.955  0.00  0.00    +0.163 A 
BRANCH   3  10
ATOM      9  C   UNL     1       4.695  -0.191   1.420  0.00  0.00    +0.277 C 
ATOM     10  O   UNL     1       4.580   1.175   1.823  0.00  0.00    -0.491 OA
ENDBRANCH   3  10
BRANCH   8  11
ATOM     11  O   UNL     1       4.223   3.805   2.548  0.00  0.00    -0.479 OA
BRANCH  11  12
ATOM     12  C   UNL     1       3.970   5.167   2.899  0.00  0.00    +0.324 C 
BRANCH  12  13
ATOM     13  C   UNL     1       5.200   5.758   3.540  0.00  0.00    +0.248 C 
ATOM     14  O   UNL     1       6.195   5.079   3.682  0.00  0.00    -0.272 OA
ATOM     15  N   UNL     1       5.193   7.040   3.955  0.00  0.00    -0.327 N 
ATOM     16  H   UNL     1       4.397   7.582   3.841  0.00  0.00    +0.145 HD
ATOM     17  H   UNL     1       5.985   7.420   4.368  0.00  0.00    +0.145 HD
ENDBRANCH  12  13
ENDBRANCH  11  12
ENDBRANCH   8  11
ENDBRANCH   1   5
BRANCH   2  18
ATOM     18  N   UNL     1      -0.963   2.962  -0.661  0.00  0.00    -0.200 N 
ATOM     19  C   UNL     1      -2.091   3.657  -0.907  0.00  0.00    +0.299 C 
ATOM     20  O   UNL     1      -3.176   3.118  -0.787  0.00  0.00    -0.265 OA
ATOM     21  H   UNL     1      -0.098   3.392  -0.757  0.00  0.00    +0.178 HD
BRANCH  19  22
ATOM     22  C   UNL     1      -2.012   5.065  -1.319  0.00  0.00    +0.192 A 
ATOM     23  C   UNL     1      -3.079   5.860  -1.592  0.00  0.00    +0.063 A 
ATOM     24  C   UNL     1      -2.528   7.165  -1.956  0.00  0.00    +0.022 A 
ATOM     25  C   UNL     1      -3.089   8.387  -2.336  0.00  0.00    +0.027 A 
ATOM     26  C   UNL     1      -2.274   9.448  -2.619  0.00  0.00    +0.019 A 
ATOM     27  C   UNL     1      -0.894   9.318  -2.530  0.00  0.00    +0.019 A 
ATOM     28  C   UNL     1      -0.322   8.121  -2.157  0.00  0.00    +0.048 A 
ATOM     29  C   UNL     1      -1.131   7.028  -1.865  0.00  0.00    +0.136 A 
ATOM     30  O   UNL     1      -0.870   5.764  -1.478  0.00  0.00    -0.450 OA
ATOM     31 BR   UNL     1      -3.031  11.102  -3.135  0.00  0.00    -0.050 Br
ENDBRANCH  19  22
ENDBRANCH   2  18
TORSDOF 7
