REMARK  Name = ZINC45865942
REMARK  10 active torsions:
REMARK  status: ('A' for Active; 'I' for Inactive)
REMARK    1  A    between atoms: C_1  and  C_2
REMARK    2  A    between atoms: C_2  and  N_3
REMARK    3  A    between atoms: N_3  and  C_4
REMARK    4  A    between atoms: N_3  and  C_11
REMARK    5  A    between atoms: C_4  and  C_5
REMARK    6  A    between atoms: C_11  and  C_12
REMARK    7  A    between atoms: C_24  and  C_26
REMARK    8  A    between atoms: C_26  and  C_27
REMARK    9  A    between atoms: N_29  and  C_30
REMARK   10  A    between atoms: C_33  and  C_36
REMARK                            x       y       z     vdW  Elec       q    Type
REMARK                         _______ _______ _______ _____ _____    ______ ____
ROOT
ATOM      1  C   UNL     1      -1.417  -2.547   1.119  0.00  0.00    +0.204 C 
ATOM      2  O   UNL     1      -1.074  -1.475   1.571  0.00  0.00    -0.277 OA
ATOM      3  N   UNL     1      -1.091  -3.685   1.765  0.00  0.00    -0.259 N 
ATOM      4  C   UNL     1      -1.381  -4.941   1.209  0.00  0.00    +0.058 A 
ATOM      5  C   UNL     1      -2.463  -5.117   0.366  0.00  0.00    +0.025 A 
ATOM      6  C   UNL     1      -2.724  -6.368  -0.163  0.00  0.00    +0.002 A 
ATOM      7  C   UNL     1      -1.908  -7.440   0.149  0.00  0.00    +0.002 A 
ATOM      8  C   UNL     1      -0.824  -7.270   0.991  0.00  0.00    +0.025 A 
ATOM      9  C   UNL     1      -0.553  -6.020   1.523  0.00  0.00    +0.055 A 
ATOM     10  N   UNL     1       0.546  -5.824   2.368  0.00  0.00    -0.282 N 
ATOM     11  C   UNL     1       0.658  -4.701   3.102  0.00  0.00    +0.239 C 
ATOM     12  O   UNL     1       1.640  -4.533   3.794  0.00  0.00    -0.273 OA
ATOM     13  C   UNL     1      -0.417  -3.650   3.071  0.00  0.00    +0.176 C 
ATOM     14  H   UNL     1       1.234  -6.505   2.425  0.00  0.00    +0.155 HD
ENDROOT
BRANCH   1  15
ATOM     15  C   UNL     1      -2.205  -2.608  -0.163  0.00  0.00    +0.020 C 
BRANCH  15  16
ATOM     16  N   UNL     1      -2.171  -1.295  -0.822  0.00  0.00    +0.388 N 
ATOM     17  H   UNL     1      -2.498  -0.589  -0.181  0.00  0.00    -0.081 HD
BRANCH  16  19
ATOM     18  C   UNL     1      -0.734   0.432  -1.797  0.00  0.00    -0.017 C 
ATOM     19  C   UNL     1      -0.793  -0.987  -1.227  0.00  0.00    -0.081 C 
ENDBRANCH  16  19
BRANCH  16  20
ATOM     20  C   UNL     1      -3.036  -1.320  -2.009  0.00  0.00    -0.042 C 
BRANCH  20  21
ATOM     21  C   UNL     1      -4.468  -1.516  -1.582  0.00  0.00    -0.064 A 
ATOM     22  C   UNL     1      -5.020  -2.783  -1.574  0.00  0.00    +0.002 A 
ATOM     23  C   UNL     1      -6.333  -2.962  -1.183  0.00  0.00    +0.000 A 
ATOM     24  C   UNL     1      -7.095  -1.875  -0.798  0.00  0.00    +0.000 A 
ATOM     25  C   UNL     1      -6.543  -0.608  -0.805  0.00  0.00    +0.000 A 
ATOM     26  C   UNL     1      -5.228  -0.428  -1.192  0.00  0.00    +0.002 A 
ENDBRANCH  20  21
ENDBRANCH  16  20
ENDBRANCH  15  16
ENDBRANCH   1  15
BRANCH  13  27
ATOM     27  C   UNL     1      -1.433  -3.931   4.180  0.00  0.00    +0.128 C 
BRANCH  27  28
ATOM     28  C   UNL     1      -2.447  -2.817   4.226  0.00  0.00    +0.219 C 
ATOM     29  O   UNL     1      -2.365  -1.890   3.449  0.00  0.00    -0.275 OA
ATOM     30  N   UNL     1      -3.445  -2.852   5.131  0.00  0.00    -0.285 N 
ATOM     31  H   UNL     1      -3.475  -3.560   5.793  0.00  0.00    +0.155 HD
BRANCH  30  32
ATOM     32  C   UNL     1      -4.438  -1.866   5.116  0.00  0.00    +0.033 A 
ATOM     33  C   UNL     1      -5.746  -2.190   5.454  0.00  0.00    +0.023 A 
ATOM     34  C   UNL     1      -6.723  -1.214   5.437  0.00  0.00    +0.005 A 
ATOM     35  C   UNL     1      -6.401   0.083   5.085  0.00  0.00    -0.050 A 
ATOM     36  C   UNL     1      -5.100   0.409   4.748  0.00  0.00    +0.005 A 
ATOM     37  C   UNL     1      -4.117  -0.560   4.768  0.00  0.00    +0.023 A 
ATOM     38  C   UNL     1      -7.471   1.145   5.069  0.00  0.00    +0.044 C 
ENDBRANCH  30  32
ENDBRANCH  27  28
ENDBRANCH  13  27
TORSDOF 8
