REMARK  Name = ZINC01254111
REMARK  8 active torsions:
REMARK  status: ('A' for Active; 'I' for Inactive)
REMARK    1  A    between atoms: C_1  and  C_2
REMARK    2  A    between atoms: C_2  and  C_3
REMARK    3  A    between atoms: C_3  and  C_4
REMARK    4  A    between atoms: N_7  and  C_9
REMARK    5  A    between atoms: C_16  and  N_29
REMARK    6  A    between atoms: C_17  and  C_27
REMARK    7  A    between atoms: C_18  and  C_20
REMARK    8  A    between atoms: C_23  and  O_26
REMARK                            x       y       z     vdW  Elec       q    Type
REMARK                         _______ _______ _______ _____ _____    ______ ____
ROOT
ATOM      1  C   UNL     1      -0.718   1.572   1.248  0.00  0.00    +0.071 A 
ATOM      2  C   UNL     1      -1.736   0.907   1.919  0.00  0.00    +0.050 A 
ATOM      3  C   UNL     1      -2.108   1.670   2.990  0.00  0.00    +0.230 A 
ATOM      4  N   UNL     1      -1.340   2.781   2.983  0.00  0.00    -0.200 N 
ATOM      5  N   UNL     1      -0.472   2.694   1.883  0.00  0.00    -0.168 NA
ATOM      6  O   UNL     1      -3.085   1.296   3.853  0.00  0.00    -0.423 OA
ATOM      7  C   UNL     1      -3.509   0.017   3.799  0.00  0.00    +0.200 C 
ATOM      8  C   UNL     1      -3.218  -0.830   2.787  0.00  0.00    +0.098 C 
ATOM      9  C   UNL     1      -2.382  -0.417   1.601  0.00  0.00    +0.101 C 
ENDROOT
BRANCH   4  10
ATOM     10  C   UNL     1      -1.397   3.832   3.909  0.00  0.00    +0.069 A 
ATOM     11  C   UNL     1      -2.615   4.213   4.455  0.00  0.00    +0.028 A 
ATOM     12  C   UNL     1      -2.667   5.244   5.372  0.00  0.00    +0.002 A 
ATOM     13  C   UNL     1      -1.508   5.904   5.739  0.00  0.00    +0.000 A 
ATOM     14  C   UNL     1      -0.294   5.531   5.193  0.00  0.00    +0.002 A 
ATOM     15  C   UNL     1      -0.235   4.496   4.279  0.00  0.00    +0.028 A 
ENDBRANCH   4  10
BRANCH   9  16
ATOM     16  C   UNL     1      -3.258  -0.277   0.384  0.00  0.00    -0.034 A 
ATOM     17  C   UNL     1      -4.320   0.609   0.396  0.00  0.00    +0.008 A 
ATOM     18  C   UNL     1      -5.122   0.744  -0.721  0.00  0.00    +0.046 A 
ATOM     19  C   UNL     1      -4.868  -0.019  -1.851  0.00  0.00    +0.117 A 
ATOM     20  C   UNL     1      -3.806  -0.912  -1.859  0.00  0.00    +0.046 A 
ATOM     21  C   UNL     1      -3.003  -1.038  -0.742  0.00  0.00    +0.008 A 
BRANCH  19  22
ATOM     22  O   UNL     1      -5.659   0.107  -2.949  0.00  0.00    -0.507 OA
ATOM     23  H   UNL     1      -6.419  -0.491  -2.957  0.00  0.00    +0.292 HD
ENDBRANCH  19  22
ENDBRANCH   9  16
BRANCH   7  24
ATOM     24  N   UNL     1      -4.283  -0.451   4.832  0.00  0.00    -0.328 N 
ATOM     25  H   UNL     1      -4.604  -1.367   4.821  0.00  0.00    +0.145 HD
ATOM     26  H   UNL     1      -4.509   0.133   5.572  0.00  0.00    +0.145 HD
ENDBRANCH   7  24
BRANCH   8  27
ATOM     27  C   UNL     1      -3.722  -2.169   2.842  0.00  0.00    +0.101 C 
ATOM     28  N   UNL     1      -4.121  -3.232   2.887  0.00  0.00    -0.191 NA
ENDBRANCH   8  27
BRANCH   1  29
ATOM     29  C   UNL     1      -0.013   1.086   0.008  0.00  0.00    +0.057 C 
BRANCH  29  31
ATOM     30  C   UNL     1      -0.037   1.099  -2.490  0.00  0.00    +0.004 C 
ATOM     31  C   UNL     1      -0.753   1.593  -1.232  0.00  0.00    +0.003 C 
ENDBRANCH  29  31
ENDBRANCH   1  29
TORSDOF 7
