REMARK  Name = ZINC40267107
REMARK  6 active torsions:
REMARK  status: ('A' for Active; 'I' for Inactive)
REMARK    1  A    between atoms: C_1  and  C_2
REMARK    2  A    between atoms: C_2  and  C_4
REMARK    3  A    between atoms: C_2  and  N_8
REMARK    4  A    between atoms: C_4  and  O_6
REMARK    5  A    between atoms: O_6  and  C_7
REMARK    6  A    between atoms: C_20  and  C_22
REMARK                            x       y       z     vdW  Elec       q    Type
REMARK                         _______ _______ _______ _____ _____    ______ ____
ROOT
ATOM      1  N   UNL     1      -1.602  -0.396   2.631  0.00  0.00    -0.286 N 
ATOM      2  C   UNL     1      -0.288  -0.577   2.389  0.00  0.00    +0.304 C 
ATOM      3  O   UNL     1       0.143  -0.459   1.259  0.00  0.00    -0.253 OA
ATOM      4  N   UNL     1       0.546  -0.888   3.400  0.00  0.00    -0.273 N 
ATOM      5  C   UNL     1       1.998  -0.972   3.180  0.00  0.00    +0.116 C 
ATOM      6  C   UNL     1       2.459  -2.416   3.418  0.00  0.00    +0.074 C 
ATOM      7  C   UNL     1       1.819  -2.928   4.681  0.00  0.00    +0.040 A 
ATOM      8  C   UNL     1       0.739  -2.377   5.277  0.00  0.00    +0.062 A 
ATOM      9  N   UNL     1       0.453  -3.096   6.364  0.00  0.00    -0.348 N 
ATOM     10  C   UNL     1       1.316  -4.073   6.471  0.00  0.00    +0.171 A 
ATOM     11  N   UNL     1       2.186  -3.999   5.437  0.00  0.00    -0.349 N 
ATOM     12  H   UNL     1       2.931  -4.597   5.267  0.00  0.00    +0.166 HD
ATOM     13  C   UNL     1       0.027  -1.147   4.755  0.00  0.00    +0.156 C 
ATOM     14  H   UNL     1      -1.959  -0.559   3.518  0.00  0.00    +0.151 HD
ATOM     15  H   UNL     1      -0.278  -2.922   6.978  0.00  0.00    +0.167 HD
ENDROOT
BRANCH  13  16
ATOM     16  C   UNL     1       0.313   0.033   5.648  0.00  0.00    -0.020 A 
ATOM     17  C   UNL     1       1.620   0.387   5.927  0.00  0.00    +0.009 A 
ATOM     18  C   UNL     1       1.884   1.469   6.745  0.00  0.00    +0.040 A 
ATOM     19  C   UNL     1       0.840   2.199   7.286  0.00  0.00    +0.142 A 
ATOM     20  C   UNL     1      -0.470   1.844   7.006  0.00  0.00    +0.076 A 
ATOM     21  C   UNL     1      -0.731   0.764   6.182  0.00  0.00    +0.028 A 
ATOM     22 CL   UNL     1      -1.782   2.758   7.682  0.00  0.00    -0.081 Cl
ATOM     23  F   UNL     1       1.097   3.257   8.086  0.00  0.00    -0.204 F 
ENDBRANCH  13  16
BRANCH   1  25
ATOM     24  C   UNL     1      -2.957  -1.163   0.746  0.00  0.00    +0.040 C 
ATOM     25  C   UNL     1      -2.491   0.049   1.555  0.00  0.00    +0.180 C 
BRANCH  25  26
ATOM     26  C   UNL     1      -3.687   0.747   2.147  0.00  0.00    +0.327 C 
ATOM     27  O   UNL     1      -3.787   0.863   3.346  0.00  0.00    -0.249 OA
BRANCH  26  28
ATOM     28  O   UNL     1      -4.642   1.242   1.343  0.00  0.00    -0.467 OA
ATOM     29  C   UNL     1      -5.748   1.892   1.973  0.00  0.00    +0.280 C 
ENDBRANCH  26  28
ENDBRANCH  25  26
ENDBRANCH   1  25
TORSDOF 4
