REMARK  Name = ZINC35352454
REMARK  11 active torsions:
REMARK  status: ('A' for Active; 'I' for Inactive)
REMARK    1  A    between atoms: C_1  and  C_2
REMARK    2  A    between atoms: C_3  and  C_30
REMARK    3  A    between atoms: C_4  and  C_11
REMARK    4  A    between atoms: N_9  and  C_10
REMARK    5  A    between atoms: C_14  and  N_17
REMARK    6  A    between atoms: C_18  and  C_20
REMARK    7  A    between atoms: C_30  and  O_32
REMARK    8  A    between atoms: O_32  and  C_33
REMARK    9  A    between atoms: C_33  and  C_34
REMARK   10  A    between atoms: C_34  and  C_35
REMARK   11  A    between atoms: C_34  and  C_36
REMARK                            x       y       z     vdW  Elec       q    Type
REMARK                         _______ _______ _______ _____ _____    ______ ____
ROOT
ATOM      1  C   UNL     1      -1.699  -2.750   1.209  0.00  0.00    -0.022 A 
ATOM      2  C   UNL     1      -1.004  -2.594   2.394  0.00  0.00    +0.007 A 
ATOM      3  C   UNL     1      -1.539  -3.063   3.578  0.00  0.00    +0.023 A 
ATOM      4  C   UNL     1      -2.777  -3.692   3.577  0.00  0.00    +0.033 A 
ATOM      5  C   UNL     1      -3.473  -3.848   2.385  0.00  0.00    +0.023 A 
ATOM      6  C   UNL     1      -2.934  -3.372   1.206  0.00  0.00    +0.007 A 
ENDROOT
BRANCH   1  10
ATOM      7  C   UNL     1      -0.182   1.502  -0.212  0.00  0.00    +0.061 C 
ATOM      8  C   UNL     1      -0.103  -0.003  -0.206  0.00  0.00    +0.021 C 
ATOM      9  C   UNL     1      -1.237  -0.727  -0.082  0.00  0.00    +0.078 C 
ATOM     10  C   UNL     1      -1.112  -2.237  -0.080  0.00  0.00    +0.141 C 
ATOM     11  N   UNL     1       0.245  -2.794  -0.214  0.00  0.00    -0.315 N 
ATOM     12  C   UNL     1       1.280  -1.940  -0.329  0.00  0.00    +0.137 C 
ATOM     13  S   UNL     1       2.863  -2.573  -0.485  0.00  0.00    -0.018 S 
ATOM     14  N   UNL     1       1.112  -0.611  -0.330  0.00  0.00    -0.289 N 
ATOM     15  C   UNL     1       2.299   0.236  -0.466  0.00  0.00    +0.137 C 
ATOM     16  H   UNL     1       0.389  -3.753  -0.219  0.00  0.00    +0.149 HD
BRANCH   9  17
ATOM     17  C   UNL     1      -2.497  -0.098   0.041  0.00  0.00    +0.339 C 
ATOM     18  O   UNL     1      -3.493  -0.765   0.248  0.00  0.00    -0.245 OA
BRANCH  17  19
ATOM     19  O   UNL     1      -2.595   1.244  -0.070  0.00  0.00    -0.461 OA
BRANCH  19  20
ATOM     20  C   UNL     1      -3.878   1.823   0.176  0.00  0.00    +0.235 C 
BRANCH  20  21
ATOM     21  C   UNL     1      -3.825   3.324  -0.116  0.00  0.00    +0.020 C 
ATOM     22  C   UNL     1      -3.567   3.545  -1.608  0.00  0.00    +0.010 C 
ATOM     23  C   UNL     1      -5.157   3.967   0.272  0.00  0.00    +0.010 C 
ENDBRANCH  20  21
ENDBRANCH  19  20
ENDBRANCH  17  19
ENDBRANCH   9  17
ENDBRANCH   1  10
BRANCH   4  24
ATOM     24  N   UNL     1      -3.322  -4.169   4.774  0.00  0.00    -0.285 N 
ATOM     25  C   UNL     1      -3.107  -3.502   5.925  0.00  0.00    +0.223 C 
ATOM     26  O   UNL     1      -2.520  -2.441   5.911  0.00  0.00    -0.275 OA
ATOM     27  H   UNL     1      -3.855  -4.980   4.776  0.00  0.00    +0.155 HD
BRANCH  25  28
ATOM     28  C   UNL     1      -3.596  -4.075   7.231  0.00  0.00    +0.048 C 
ATOM     29  C   UNL     1      -5.116  -4.240   7.178  0.00  0.00    +0.019 C 
ATOM     30  C   UNL     1      -5.612  -4.821   8.503  0.00  0.00    -0.009 C 
ATOM     31  C   UNL     1      -5.242  -3.874   9.646  0.00  0.00    +0.007 C 
ATOM     32  C   UNL     1      -3.722  -3.709   9.699  0.00  0.00    -0.009 C 
ATOM     33  C   UNL     1      -3.225  -3.128   8.374  0.00  0.00    +0.019 C 
ATOM     34  C   UNL     1      -3.068  -5.072   9.934  0.00  0.00    +0.007 C 
ATOM     35  C   UNL     1      -3.439  -6.019   8.791  0.00  0.00    -0.009 C 
ATOM     36  C   UNL     1      -4.959  -6.185   8.738  0.00  0.00    +0.007 C 
ATOM     37  C   UNL     1      -2.943  -5.438   7.466  0.00  0.00    +0.019 C 
ENDBRANCH  25  28
ENDBRANCH   4  24
TORSDOF 7
