REMARK  Name = ZINC00052025
REMARK  5 active torsions:
REMARK  status: ('A' for Active; 'I' for Inactive)
REMARK    1  A    between atoms: C_4  and  O_23
REMARK    2  A    between atoms: C_5  and  C_7
REMARK    3  A    between atoms: C_10  and  C_18
REMARK    4  A    between atoms: C_10  and  O_22
REMARK    5  A    between atoms: C_12  and  C_14
REMARK                            x       y       z     vdW  Elec       q    Type
REMARK                         _______ _______ _______ _____ _____    ______ ____
ROOT
ATOM      1  C   UNL     1      -2.874   3.009   1.300  0.00  0.00    +0.272 C 
ATOM      2  O   UNL     1      -2.934   2.924   2.512  0.00  0.00    -0.268 OA
ATOM      3  N   UNL     1      -1.898   2.370   0.626  0.00  0.00    -0.148 N 
ATOM      4  C   UNL     1      -0.774   1.632   1.235  0.00  0.00    +0.257 C 
ATOM      5  C   UNL     1       0.010   1.117   0.011  0.00  0.00    +0.128 C 
ATOM      6  C   UNL     1      -0.778   1.637  -1.170  0.00  0.00    +0.144 C 
ATOM      7  N   UNL     1      -1.782   2.296  -0.760  0.00  0.00    -0.174 NA
ENDROOT
BRANCH   1  12
ATOM      8  C   UNL     1      -4.816   4.569  -1.506  0.00  0.00    +0.001 A 
ATOM      9  C   UNL     1      -5.745   5.325  -0.809  0.00  0.00    +0.004 A 
ATOM     10  C   UNL     1      -5.744   5.332   0.572  0.00  0.00    +0.046 A 
ATOM     11  C   UNL     1      -4.811   4.580   1.271  0.00  0.00    +0.129 A 
ATOM     12  C   UNL     1      -3.871   3.813   0.569  0.00  0.00    +0.080 A 
ATOM     13  C   UNL     1      -3.880   3.820  -0.829  0.00  0.00    +0.017 A 
BRANCH  11  14
ATOM     14  O   UNL     1      -4.810   4.585   2.627  0.00  0.00    -0.506 OA
ATOM     15  H   UNL     1      -4.253   5.273   3.017  0.00  0.00    +0.292 HD
ENDBRANCH  11  14
ENDBRANCH   1  12
BRANCH   6  16
ATOM     16  C   UNL     1      -0.423   1.407  -2.617  0.00  0.00    +0.432 C 
ATOM     17  F   UNL     1      -1.371   2.032  -3.434  0.00  0.00    -0.165 F 
ATOM     18  F   UNL     1       0.843   1.943  -2.878  0.00  0.00    -0.165 F 
ATOM     19  F   UNL     1      -0.412   0.034  -2.882  0.00  0.00    -0.165 F 
ENDBRANCH   6  16
BRANCH   4  20
ATOM     20  C   UNL     1       0.095   2.567   2.079  0.00  0.00    +0.438 C 
ATOM     21  F   UNL     1       0.492   3.661   1.302  0.00  0.00    -0.166 F 
ATOM     22  F   UNL     1      -0.639   3.019   3.180  0.00  0.00    -0.166 F 
ATOM     23  F   UNL     1       1.227   1.876   2.524  0.00  0.00    -0.166 F 
ENDBRANCH   4  20
BRANCH   4  24
ATOM     24  O   UNL     1      -1.254   0.540   2.023  0.00  0.00    -0.363 OA
ATOM     25  H   UNL     1      -1.754   0.810   2.805  0.00  0.00    +0.212 HD
ENDBRANCH   4  24
TORSDOF 5
