REMARK  Name = ZINC67470416
REMARK  10 active torsions:
REMARK  status: ('A' for Active; 'I' for Inactive)
REMARK    1  A    between atoms: C_1  and  C_2
REMARK    2  A    between atoms: C_2  and  C_4
REMARK    3  A    between atoms: C_2  and  N_15
REMARK    4  A    between atoms: C_8  and  S_10
REMARK    5  A    between atoms: S_10  and  N_13
REMARK    6  A    between atoms: N_13  and  C_14
REMARK    7  A    between atoms: N_22  and  C_25
REMARK    8  A    between atoms: C_25  and  C_26
REMARK    9  A    between atoms: C_25  and  C_27
REMARK   10  A    between atoms: C_25  and  C_28
REMARK                            x       y       z     vdW  Elec       q    Type
REMARK                         _______ _______ _______ _____ _____    ______ ____
ROOT
ATOM      1  N   UNL     1      -1.646   0.095  -3.455  0.00  0.00    -0.293 N 
ATOM      2  C   UNL     1      -0.367  -0.179  -3.131  0.00  0.00    +0.303 C 
ATOM      3  O   UNL     1       0.091   0.217  -2.077  0.00  0.00    -0.253 OA
ATOM      4  N   UNL     1       0.404  -0.892  -3.976  0.00  0.00    -0.287 N 
ATOM      5  C   UNL     1       1.762  -1.282  -3.544  0.00  0.00    +0.107 C 
ATOM      6  C   UNL     1       2.082  -2.729  -3.961  0.00  0.00    +0.000 C 
ATOM      7  C   UNL     1       0.856  -3.592  -3.762  0.00  0.00    -0.076 C 
ATOM      8  N   UNL     1       0.101  -3.654  -5.012  0.00  0.00    +0.384 N 
ATOM      9  C   UNL     1      -0.844  -2.619  -5.189  0.00  0.00    -0.059 C 
ATOM     10  C   UNL     1      -0.131  -1.254  -5.272  0.00  0.00    +0.091 C 
ATOM     11  H   UNL     1      -1.991  -0.158  -4.325  0.00  0.00    +0.151 HD
ATOM     12  H   UNL     1       0.755  -3.622  -5.780  0.00  0.00    -0.081 HD
ENDROOT
BRANCH   8  13
ATOM     13  C   UNL     1      -0.605  -4.940  -5.065  0.00  0.00    -0.074 C 
ATOM     14  C   UNL     1      -1.481  -5.093  -3.820  0.00  0.00    -0.010 C 
ATOM     15  C   UNL     1      -1.484  -4.989  -6.316  0.00  0.00    -0.010 C 
ATOM     16  C   UNL     1       0.414  -6.080  -5.114  0.00  0.00    -0.010 C 
ENDBRANCH   8  13
BRANCH   1  18
ATOM     17  C   UNL     1      -3.131  -0.254  -1.543  0.00  0.00    +0.033 C 
ATOM     18  C   UNL     1      -2.515   0.776  -2.492  0.00  0.00    +0.102 C 
BRANCH  18  19
ATOM     19  C   UNL     1      -3.613   1.498  -3.230  0.00  0.00    -0.026 A 
ATOM     20  C   UNL     1      -4.223   0.902  -4.319  0.00  0.00    +0.005 A 
ATOM     21  C   UNL     1      -5.229   1.564  -4.996  0.00  0.00    +0.002 A 
ATOM     22  C   UNL     1      -5.628   2.822  -4.584  0.00  0.00    +0.028 A 
ATOM     23  C   UNL     1      -5.019   3.418  -3.495  0.00  0.00    +0.106 A 
ATOM     24  C   UNL     1      -4.015   2.754  -2.815  0.00  0.00    +0.034 A 
BRANCH  23  25
ATOM     25  S   UNL     1      -5.527   5.022  -2.970  0.00  0.00    +0.058 S 
ATOM     26  O   UNL     1      -4.429   5.584  -2.264  0.00  0.00    -0.153 OA
ATOM     27  O   UNL     1      -6.109   5.654  -4.102  0.00  0.00    -0.153 OA
BRANCH  25  28
ATOM     28  N   UNL     1      -6.743   4.814  -1.866  0.00  0.00    -0.193 NA
ATOM     29  C   UNL     1      -6.466   4.158  -0.586  0.00  0.00    +0.127 C 
ATOM     30  H   UNL     1      -7.639   5.126  -2.067  0.00  0.00    +0.148 HD
ENDBRANCH  25  28
ENDBRANCH  23  25
ENDBRANCH  18  19
ENDBRANCH   1  18
TORSDOF 5
