REMARK  Name = ZINC39687260
REMARK  9 active torsions:
REMARK  status: ('A' for Active; 'I' for Inactive)
REMARK    1  A    between atoms: C_1  and  C_2
REMARK    2  A    between atoms: C_2  and  C_3
REMARK    3  A    between atoms: C_3  and  C_5
REMARK    4  A    between atoms: C_3  and  C_6
REMARK    5  A    between atoms: C_10  and  C_19
REMARK    6  A    between atoms: N_21  and  C_22
REMARK    7  A    between atoms: C_22  and  C_24
REMARK    8  A    between atoms: C_22  and  C_31
REMARK    9  A    between atoms: C_24  and  C_25
REMARK                            x       y       z     vdW  Elec       q    Type
REMARK                         _______ _______ _______ _____ _____    ______ ____
ROOT
ATOM      1  C   UNL     1       4.829  -2.643  -2.603  0.00  0.00    +0.219 C 
ATOM      2  O   UNL     1       6.008  -2.688  -2.885  0.00  0.00    -0.275 OA
ATOM      3  N   UNL     1       4.437  -2.111  -1.428  0.00  0.00    -0.303 N 
ATOM      4  H   UNL     1       3.494  -2.075  -1.202  0.00  0.00    +0.149 HD
ENDROOT
BRANCH   1   9
ATOM      5  C   UNL     1       0.814  -1.897  -1.974  0.00  0.00    +0.218 C 
ATOM      6  O   UNL     1       0.086  -2.431  -1.164  0.00  0.00    -0.275 OA
ATOM      7  N   UNL     1       1.609  -2.648  -2.762  0.00  0.00    -0.300 N 
ATOM      8  C   UNL     1       2.636  -2.181  -3.724  0.00  0.00    +0.121 C 
ATOM      9  C   UNL     1       3.803  -3.181  -3.566  0.00  0.00    +0.100 C 
ATOM     10  C   UNL     1       3.153  -4.456  -3.002  0.00  0.00    -0.004 C 
ATOM     11  C   UNL     1       1.660  -4.126  -2.857  0.00  0.00    +0.115 C 
ATOM     12  C   UNL     1       3.747  -4.793  -1.638  0.00  0.00    -0.010 C 
ATOM     13  C   UNL     1       3.126  -6.095  -1.123  0.00  0.00    -0.082 C 
ATOM     14  N   UNL     1       3.395  -7.178  -2.078  0.00  0.00    +0.379 N 
ATOM     15  C   UNL     1       2.742  -6.889  -3.360  0.00  0.00    -0.082 C 
ATOM     16  C   UNL     1       3.346  -5.620  -3.969  0.00  0.00    -0.010 C 
ATOM     17  H   UNL     1       4.391  -7.259  -2.219  0.00  0.00    -0.086 HD
ATOM     18  H   UNL     1       3.039  -8.046  -1.708  0.00  0.00    -0.086 HD
BRANCH   5  19
ATOM     19  C   UNL     1       0.829  -0.396  -2.099  0.00  0.00    +0.072 C 
ATOM     20  C   UNL     1       0.537   0.233  -0.735  0.00  0.00    +0.017 C 
BRANCH  19  22
ATOM     21  C   UNL     1      -0.141   1.554  -3.324  0.00  0.00    +0.004 C 
ATOM     22  C   UNL     1      -0.239   0.043  -3.102  0.00  0.00    +0.009 C 
ENDBRANCH  19  22
ENDBRANCH   5  19
ENDBRANCH   1   9
BRANCH   3  23
ATOM     23  C   UNL     1       5.435  -1.587  -0.492  0.00  0.00    +0.163 C 
BRANCH  23  24
ATOM     24  C   UNL     1       4.880  -1.628   0.909  0.00  0.00    +0.236 C 
ATOM     25  O   UNL     1       3.681  -1.570   1.088  0.00  0.00    -0.274 OA
ATOM     26  N   UNL     1       5.714  -1.728   1.962  0.00  0.00    -0.300 N 
ATOM     27  C   UNL     1       7.170  -1.677   1.771  0.00  0.00    +0.108 C 
ATOM     28  C   UNL     1       7.750  -0.592   2.684  0.00  0.00    +0.019 C 
ATOM     29  C   UNL     1       7.314  -0.858   4.127  0.00  0.00    +0.003 C 
ATOM     30  C   UNL     1       5.787  -0.803   4.219  0.00  0.00    +0.019 C 
ATOM     31  C   UNL     1       5.186  -1.884   3.324  0.00  0.00    +0.108 C 
ENDBRANCH  23  24
BRANCH  23  32
ATOM     32  C   UNL     1       5.775  -0.143  -0.864  0.00  0.00    +0.067 C 
BRANCH  32  33
ATOM     33  C   UNL     1       6.443  -0.117  -2.215  0.00  0.00    -0.045 A 
ATOM     34  C   UNL     1       7.818  -0.226  -2.308  0.00  0.00    +0.004 A 
ATOM     35  C   UNL     1       8.431  -0.202  -3.547  0.00  0.00    +0.000 A 
ATOM     36  C   UNL     1       7.669  -0.068  -4.692  0.00  0.00    +0.000 A 
ATOM     37  C   UNL     1       6.294   0.040  -4.599  0.00  0.00    +0.000 A 
ATOM     38  C   UNL     1       5.681   0.012  -3.361  0.00  0.00    +0.004 A 
ENDBRANCH  32  33
ENDBRANCH  23  32
ENDBRANCH   3  23
TORSDOF 7
