REMARK  Name = ZINC14849719
REMARK  3 active torsions:
REMARK  status: ('A' for Active; 'I' for Inactive)
REMARK    1  A    between atoms: C_5  and  N_7
REMARK    2  A    between atoms: N_7  and  S_8
REMARK    3  A    between atoms: S_8  and  C_11
REMARK                            x       y       z     vdW  Elec       q    Type
REMARK                         _______ _______ _______ _____ _____    ______ ____
ROOT
ATOM      1  S   UNL     1      -3.787   2.504  -0.683  0.00  0.00    +0.072 S 
ATOM      2  O   UNL     1      -4.851   1.594  -0.440  0.00  0.00    -0.150 OA
ATOM      3  O   UNL     1      -3.841   3.865  -0.280  0.00  0.00    -0.150 OA
ENDROOT
BRANCH   1   4
ATOM      4  C   UNL     1      -3.513   2.505  -2.424  0.00  0.00    +0.110 A 
ATOM      5  C   UNL     1      -2.925   3.600  -3.029  0.00  0.00    +0.032 A 
ATOM      6  C   UNL     1      -2.701   3.606  -4.394  0.00  0.00    +0.049 A 
ATOM      7  C   UNL     1      -3.078   2.517  -5.159  0.00  0.00    +0.142 A 
ATOM      8  C   UNL     1      -3.677   1.415  -4.550  0.00  0.00    +0.078 A 
ATOM      9  C   UNL     1      -3.893   1.412  -3.182  0.00  0.00    +0.055 A 
ATOM     10  N   UNL     1      -4.055   0.318  -5.338  0.00  0.00    -0.280 N 
ATOM     11  C   UNL     1      -3.559   0.209  -6.589  0.00  0.00    +0.255 C 
ATOM     12  O   UNL     1      -3.896  -0.716  -7.299  0.00  0.00    -0.272 OA
ATOM     13  C   UNL     1      -2.585   1.239  -7.100  0.00  0.00    +0.325 C 
ATOM     14  O   UNL     1      -2.869   2.507  -6.503  0.00  0.00    -0.481 OA
ATOM     15  H   UNL     1      -4.664  -0.352  -4.989  0.00  0.00    +0.155 HD
ENDBRANCH   1   4
BRANCH   1  16
ATOM     16  N   UNL     1      -2.438   1.854   0.024  0.00  0.00    -0.215 N 
ATOM     17  H   UNL     1      -2.511   1.047   0.557  0.00  0.00    +0.174 HD
BRANCH  16  22
ATOM     18  C   UNL     1       0.125   4.455  -0.391  0.00  0.00    +0.002 A 
ATOM     19  C   UNL     1       1.268   3.683  -0.495  0.00  0.00    +0.001 A 
ATOM     20  C   UNL     1       1.183   2.304  -0.423  0.00  0.00    +0.017 A 
ATOM     21  C   UNL     1      -0.044   1.694  -0.248  0.00  0.00    +0.040 A 
ATOM     22  C   UNL     1      -1.194   2.467  -0.148  0.00  0.00    +0.062 A 
ATOM     23  C   UNL     1      -1.105   3.852  -0.215  0.00  0.00    +0.025 A 
ATOM     24 BR   UNL     1      -0.159  -0.191  -0.151  0.00  0.00    -0.048 Br
ENDBRANCH  16  22
ENDBRANCH   1  16
TORSDOF 3
