REMARK  Name = ZINC21033143
REMARK  7 active torsions:
REMARK  status: ('A' for Active; 'I' for Inactive)
REMARK    1  A    between atoms: C_1  and  C_2
REMARK    2  A    between atoms: C_5  and  C_7
REMARK    3  A    between atoms: C_10  and  O_25
REMARK    4  A    between atoms: C_11  and  S_13
REMARK    5  A    between atoms: S_13  and  N_16
REMARK    6  A    between atoms: N_16  and  C_17
REMARK    7  A    between atoms: O_25  and  C_26
REMARK                            x       y       z     vdW  Elec       q    Type
REMARK                         _______ _______ _______ _____ _____    ______ ____
ROOT
ATOM      1  C   UNL     1      -3.275  -0.429   4.682  0.00  0.00    +0.021 A 
ATOM      2  C   UNL     1      -2.134   0.179   5.210  0.00  0.00    +0.015 A 
ATOM      3  C   UNL     1      -1.121   0.586   4.369  0.00  0.00    +0.048 A 
ATOM      4  C   UNL     1      -1.233   0.392   2.998  0.00  0.00    +0.147 A 
ATOM      5  C   UNL     1      -2.365  -0.212   2.469  0.00  0.00    +0.151 A 
ATOM      6  C   UNL     1      -3.386  -0.618   3.303  0.00  0.00    +0.044 A 
ENDROOT
BRANCH   1  11
ATOM      7  C   UNL     1      -7.586  -2.352   6.376  0.00  0.00    +0.109 C 
ATOM      8  C   UNL     1      -6.229  -1.698   6.325  0.00  0.00    +0.193 A 
ATOM      9  N   UNL     1      -5.558  -1.266   7.356  0.00  0.00    -0.221 NA
ATOM     10  C   UNL     1      -4.395  -0.750   6.932  0.00  0.00    +0.161 A 
ATOM     11  C   UNL     1      -4.364  -0.867   5.580  0.00  0.00    +0.155 A 
ATOM     12  O   UNL     1      -5.519  -1.466   5.213  0.00  0.00    -0.440 OA
ENDBRANCH   1  11
BRANCH   5  13
ATOM     13  S   UNL     1      -2.502  -0.454   0.730  0.00  0.00    +0.076 S 
ATOM     14  O   UNL     1      -3.738  -1.118   0.508  0.00  0.00    -0.150 OA
ATOM     15  O   UNL     1      -1.260  -0.992   0.296  0.00  0.00    -0.150 OA
BRANCH  13  16
ATOM     16  N   UNL     1      -2.637   1.043   0.036  0.00  0.00    -0.213 N 
ATOM     17  H   UNL     1      -3.573   1.336  -0.462  0.00  0.00    +0.174 HD
BRANCH  16  18
ATOM     18  C   UNL     1      -1.561   1.936   0.083  0.00  0.00    +0.083 A 
ATOM     19  C   UNL     1      -0.385   1.644  -0.594  0.00  0.00    +0.028 A 
ATOM     20  C   UNL     1       0.675   2.530  -0.550  0.00  0.00    +0.017 A 
ATOM     21  C   UNL     1       0.567   3.705   0.172  0.00  0.00    +0.021 A 
ATOM     22  C   UNL     1      -0.602   3.998   0.853  0.00  0.00    +0.055 A 
ATOM     23  C   UNL     1      -1.666   3.115   0.812  0.00  0.00    +0.147 A 
ATOM     24  F   UNL     1      -2.807   3.401   1.476  0.00  0.00    -0.203 F 
ATOM     25 BR   UNL     1       2.020   4.913   0.230  0.00  0.00    -0.050 Br
ENDBRANCH  16  18
ENDBRANCH  13  16
ENDBRANCH   5  13
BRANCH   4  26
ATOM     26  O   UNL     1      -0.232   0.796   2.173  0.00  0.00    -0.493 OA
ATOM     27  C   UNL     1       0.905   1.410   2.784  0.00  0.00    +0.277 C 
ENDBRANCH   4  26
TORSDOF 5
