REMARK  Name = ZINC06300849
REMARK  9 active torsions:
REMARK  status: ('A' for Active; 'I' for Inactive)
REMARK    1  A    between atoms: C_1  and  C_2
REMARK    2  A    between atoms: C_4  and  C_40
REMARK    3  A    between atoms: C_9  and  C_14
REMARK    4  A    between atoms: C_14  and  C_16
REMARK    5  A    between atoms: C_14  and  N_77
REMARK    6  A    between atoms: N_20  and  C_21
REMARK    7  A    between atoms: C_21  and  C_22
REMARK    8  A    between atoms: C_25  and  O_28
REMARK    9  A    between atoms: O_28  and  C_29
REMARK                            x       y       z     vdW  Elec       q    Type
REMARK                         _______ _______ _______ _____ _____    ______ ____
ROOT
ATOM      1  C   UNL     1       0.014   1.226   2.469  0.00  0.00    +0.039 C 
ENDROOT
BRANCH   1  10
ATOM      2  C   UNL     1       6.304  -2.328   4.317  0.00  0.00    +0.044 C 
ATOM      3  C   UNL     1       5.532  -1.053   4.095  0.00  0.00    -0.050 A 
ATOM      4  C   UNL     1       6.156   0.172   4.285  0.00  0.00    +0.008 A 
ATOM      5  C   UNL     1       5.469   1.350   4.087  0.00  0.00    -0.026 A 
ATOM      6  C   UNL     1       4.136   1.313   3.692  0.00  0.00    +0.052 A 
ATOM      7  C   UNL     1       3.506   0.069   3.499  0.00  0.00    -0.001 A 
ATOM      8  C   UNL     1       4.223  -1.114   3.707  0.00  0.00    +0.013 A 
ATOM      9  C   UNL     1       2.103   0.041   3.083  0.00  0.00    +0.017 A 
ATOM     10  C   UNL     1       1.458   1.219   2.898  0.00  0.00    +0.011 A 
ATOM     11  C   UNL     1       2.137   2.440   3.099  0.00  0.00    +0.251 A 
ATOM     12  O   UNL     1       1.541   3.488   2.921  0.00  0.00    -0.268 OA
ATOM     13  N   UNL     1       3.424   2.476   3.486  0.00  0.00    -0.322 N 
ATOM     14  H   UNL     1       3.860   3.333   3.619  0.00  0.00    +0.169 HD
ATOM     15  C   UNL     1       6.160   2.673   4.297  0.00  0.00    +0.046 C 
ENDBRANCH   1  10
BRANCH   1  26
ATOM     16  C   UNL     1       0.753   1.511   0.182  0.00  0.00    -0.077 C 
ATOM     17  C   UNL     1       0.686   2.443  -1.030  0.00  0.00    -0.018 C 
ATOM     18  C   UNL     1      -0.759   2.514  -1.534  0.00  0.00    +0.003 C 
ATOM     19  C   UNL     1      -1.663   2.999  -0.397  0.00  0.00    -0.044 C 
ATOM     20  C   UNL     1      -1.528   2.051   0.796  0.00  0.00    -0.071 C 
ATOM     21  C   UNL     1      -3.116   3.019  -0.875  0.00  0.00    +0.005 C 
ATOM     22  C   UNL     1      -3.247   3.966  -2.070  0.00  0.00    +0.000 C 
ATOM     23  C   UNL     1      -2.827   5.376  -1.651  0.00  0.00    +0.000 C 
ATOM     24  C   UNL     1      -1.373   5.356  -1.174  0.00  0.00    +0.000 C 
ATOM     25  C   UNL     1      -1.242   4.410   0.021  0.00  0.00    +0.005 C 
ATOM     26  N   UNL     1      -0.121   2.046   1.248  0.00  0.00    +0.390 N 
ATOM     27  H   UNL     1       0.165   3.009   1.460  0.00  0.00    -0.080 HD
ENDBRANCH   1  26
BRANCH   1  28
ATOM     28  C   UNL     1      -0.831   1.833   3.559  0.00  0.00    +0.143 A 
ATOM     29  N   UNL     1      -0.815   3.081   3.958  0.00  0.00    -0.115 NA
ATOM     30  N   UNL     1      -1.678   3.207   4.907  0.00  0.00    -0.023 NA
ATOM     31  N   UNL     1      -2.244   2.071   5.123  0.00  0.00    -0.044 NA
ATOM     32  N   UNL     1      -1.753   1.199   4.309  0.00  0.00    -0.226 N 
BRANCH  32  33
ATOM     33  C   UNL     1      -2.125  -0.215   4.219  0.00  0.00    +0.182 C 
BRANCH  33  34
ATOM     34  C   UNL     1      -1.357  -1.003   5.248  0.00  0.00    -0.026 A 
ATOM     35  C   UNL     1      -0.189  -1.651   4.891  0.00  0.00    +0.009 A 
ATOM     36  C   UNL     1       0.521  -2.369   5.834  0.00  0.00    +0.046 A 
ATOM     37  C   UNL     1       0.054  -2.450   7.138  0.00  0.00    +0.120 A 
ATOM     38  C   UNL     1      -1.121  -1.803   7.493  0.00  0.00    +0.046 A 
ATOM     39  C   UNL     1      -1.824  -1.081   6.547  0.00  0.00    +0.009 A 
BRANCH  37  40
ATOM     40  O   UNL     1       0.747  -3.160   8.066  0.00  0.00    -0.495 OA
ATOM     41  C   UNL     1       1.948  -3.799   7.630  0.00  0.00    +0.277 C 
ENDBRANCH  37  40
ENDBRANCH  33  34
ENDBRANCH  32  33
ENDBRANCH   1  28
TORSDOF 6
