REMARK  Name = ZINC12063361
REMARK  8 active torsions:
REMARK  status: ('A' for Active; 'I' for Inactive)
REMARK    1  A    between atoms: C_1  and  N_2
REMARK    2  A    between atoms: N_15  and  C_16
REMARK    3  A    between atoms: C_16  and  C_18
REMARK    4  A    between atoms: C_21  and  S_24
REMARK    5  A    between atoms: S_24  and  N_27
REMARK    6  A    between atoms: N_27  and  C_28
REMARK    7  A    between atoms: N_27  and  C_29
REMARK    8  A    between atoms: C_29  and  C_30
REMARK                            x       y       z     vdW  Elec       q    Type
REMARK                         _______ _______ _______ _____ _____    ______ ____
ROOT
ATOM      1  C   UNL     1       5.083   7.705  -0.007  0.00  0.00    +0.269 C 
ATOM      2  O   UNL     1       3.902   8.004   0.006  0.00  0.00    -0.268 OA
ENDROOT
BRANCH   1  17
ATOM      3  C   UNL     1       6.047   3.556  -0.037  0.00  0.00    +0.151 C 
ATOM      4  N   UNL     1       4.694   4.118  -0.022  0.00  0.00    -0.324 N 
ATOM      5  C   UNL     1       3.598   3.276  -0.015  0.00  0.00    +0.058 A 
ATOM      6  C   UNL     1       3.592   1.860  -0.023  0.00  0.00    +0.027 A 
ATOM      7  C   UNL     1       2.439   1.150  -0.015  0.00  0.00    +0.010 A 
ATOM      8  C   UNL     1       1.191   1.797   0.000  0.00  0.00    -0.017 A 
ATOM      9  C   UNL     1      -0.013   1.076   0.008  0.00  0.00    +0.008 A 
ATOM     10  C   UNL     1      -1.199   1.744   0.017  0.00  0.00    +0.001 A 
ATOM     11  C   UNL     1      -1.236   3.136   0.030  0.00  0.00    +0.001 A 
ATOM     12  C   UNL     1      -0.087   3.868   0.023  0.00  0.00    +0.009 A 
ATOM     13  C   UNL     1       1.155   3.216   0.008  0.00  0.00    -0.002 A 
ATOM     14  C   UNL     1       2.363   3.920   0.000  0.00  0.00    +0.047 A 
ATOM     15  S   UNL     1       2.795   5.641   0.004  0.00  0.00    -0.051 S 
ATOM     16  C   UNL     1       4.520   5.466  -0.013  0.00  0.00    +0.166 A 
ATOM     17  N   UNL     1       5.447   6.420  -0.017  0.00  0.00    -0.152 NA
ENDBRANCH   1  17
BRANCH   1  18
ATOM     18  C   UNL     1       6.116   8.767  -0.011  0.00  0.00    +0.039 A 
ATOM     19  C   UNL     1       7.469   8.428  -0.020  0.00  0.00    +0.015 A 
ATOM     20  C   UNL     1       8.426   9.422  -0.030  0.00  0.00    +0.029 A 
ATOM     21  C   UNL     1       8.047  10.752  -0.019  0.00  0.00    +0.106 A 
ATOM     22  C   UNL     1       6.706  11.095  -0.005  0.00  0.00    +0.029 A 
ATOM     23  C   UNL     1       5.740  10.110  -0.001  0.00  0.00    +0.015 A 
BRANCH  21  24
ATOM     24  S   UNL     1       9.275  12.015  -0.024  0.00  0.00    +0.061 S 
ATOM     25  O   UNL     1      10.446  11.441  -0.589  0.00  0.00    -0.153 OA
ATOM     26  O   UNL     1       8.661  13.178  -0.563  0.00  0.00    -0.153 OA
BRANCH  24  27
ATOM     27  N   UNL     1       9.631  12.358   1.557  0.00  0.00    -0.177 NA
ATOM     28  C   UNL     1      10.698  11.624   2.243  0.00  0.00    +0.131 C 
BRANCH  27  29
ATOM     29  C   UNL     1       8.879  13.393   2.269  0.00  0.00    +0.140 C 
BRANCH  29  30
ATOM     30  C   UNL     1       7.733  12.746   3.049  0.00  0.00    +0.134 C 
ATOM     31  C   UNL     1       6.935  13.829   3.802  0.00  0.00    +0.035 C 
ATOM     32  C   UNL     1       5.493  13.684   3.259  0.00  0.00    +0.031 C 
ATOM     33  C   UNL     1       5.501  12.239   2.697  0.00  0.00    +0.160 C 
ATOM     34  O   UNL     1       6.825  12.102   2.139  0.00  0.00    -0.375 OA
ENDBRANCH  29  30
ENDBRANCH  27  29
ENDBRANCH  24  27
ENDBRANCH  21  24
ENDBRANCH   1  18
TORSDOF 6
