REMARK  Name = ZINC08971322
REMARK  8 active torsions:
REMARK  status: ('A' for Active; 'I' for Inactive)
REMARK    1  A    between atoms: C_1  and  C_2
REMARK    2  A    between atoms: C_4  and  C_38
REMARK    3  A    between atoms: C_13  and  C_15
REMARK    4  A    between atoms: C_15  and  C_16
REMARK    5  A    between atoms: N_28  and  C_31
REMARK    6  A    between atoms: C_31  and  C_32
REMARK    7  A    between atoms: C_32  and  O_33
REMARK    8  A    between atoms: O_33  and  C_34
REMARK                            x       y       z     vdW  Elec       q    Type
REMARK                         _______ _______ _______ _____ _____    ______ ____
ROOT
ATOM      1  C   UNL     1      -0.631   2.771   3.075  0.00  0.00    +0.044 C 
ATOM      2  C   UNL     1      -1.294   3.186   1.786  0.00  0.00    -0.050 A 
ATOM      3  C   UNL     1      -1.224   4.500   1.362  0.00  0.00    +0.008 A 
ATOM      4  C   UNL     1      -1.830   4.886   0.185  0.00  0.00    -0.029 A 
ATOM      5  C   UNL     1      -2.518   3.952  -0.587  0.00  0.00    +0.039 A 
ATOM      6  C   UNL     1      -2.579   2.634  -0.152  0.00  0.00    -0.027 A 
ATOM      7  C   UNL     1      -1.975   2.252   1.025  0.00  0.00    +0.008 A 
ATOM      8  C   UNL     1      -3.377   1.884  -1.190  0.00  0.00    +0.050 C 
ATOM      9  C   UNL     1      -4.516   1.141  -0.661  0.00  0.00    +0.088 C 
ATOM     10  C   UNL     1      -4.514  -0.239  -1.417  0.00  0.00    +0.073 C 
ATOM     11  C   UNL     1      -3.007  -0.477  -1.391  0.00  0.00    -0.053 C 
ATOM     12  C   UNL     1      -5.432  -0.961  -0.480  0.00  0.00    +0.224 C 
ATOM     13  O   UNL     1      -5.381  -2.128  -0.156  0.00  0.00    -0.275 OA
ATOM     14  N   UNL     1      -6.343  -0.023  -0.067  0.00  0.00    -0.240 N 
ATOM     15  C   UNL     1      -5.908   1.264  -0.274  0.00  0.00    +0.225 C 
ATOM     16  O   UNL     1      -6.550   2.287  -0.172  0.00  0.00    -0.275 OA
ATOM     17  C   UNL     1      -3.737   2.934  -2.216  0.00  0.00    +0.211 C 
ATOM     18  O   UNL     1      -4.384   2.762  -3.228  0.00  0.00    -0.277 OA
ATOM     19  N   UNL     1      -3.203   4.094  -1.795  0.00  0.00    -0.286 N 
ATOM     20  C   UNL     1      -1.748   6.321  -0.267  0.00  0.00    +0.045 C 
ATOM     21  H   UNL     1      -3.285   4.933  -2.275  0.00  0.00    +0.155 HD
ATOM     22  N   UNL     1      -2.508   0.861  -1.822  0.00  0.00    +0.394 N 
ATOM     23  H   UNL     1      -1.536   0.988  -1.516  0.00  0.00    -0.083 HD
ATOM     24  H   UNL     1      -2.558   0.941  -2.845  0.00  0.00    -0.083 HD
ENDROOT
BRANCH  11  25
ATOM     25  C   UNL     1      -2.527  -0.809   0.023  0.00  0.00    +0.022 C 
BRANCH  25  26
ATOM     26  C   UNL     1      -1.091  -1.266  -0.029  0.00  0.00    -0.024 A 
ATOM     27  C   UNL     1      -0.652  -2.530   0.065  0.00  0.00    +0.087 A 
ATOM     28  N   UNL     1       0.713  -2.558  -0.023  0.00  0.00    -0.360 N 
ATOM     29  H   UNL     1       1.258  -3.359   0.018  0.00  0.00    +0.165 HD
ATOM     30  C   UNL     1       1.198  -1.279  -0.179  0.00  0.00    +0.047 A 
ATOM     31  C   UNL     1       0.089  -0.413  -0.190  0.00  0.00    +0.003 A 
ATOM     32  C   UNL     1       0.280   0.962  -0.335  0.00  0.00    +0.010 A 
ATOM     33  C   UNL     1       1.546   1.461  -0.467  0.00  0.00    +0.001 A 
ATOM     34  C   UNL     1       2.643   0.611  -0.458  0.00  0.00    +0.002 A 
ATOM     35  C   UNL     1       2.477  -0.749  -0.315  0.00  0.00    +0.026 A 
ENDBRANCH  25  26
ENDBRANCH  11  25
BRANCH  14  36
ATOM     36  C   UNL     1      -7.638  -0.357   0.531  0.00  0.00    +0.144 C 
BRANCH  36  37
ATOM     37  C   UNL     1      -7.486  -0.465   2.050  0.00  0.00    +0.179 C 
BRANCH  37  38
ATOM     38  O   UNL     1      -7.140   0.814   2.586  0.00  0.00    -0.381 OA
ATOM     39  C   UNL     1      -6.973   0.823   4.006  0.00  0.00    +0.194 C 
ENDBRANCH  37  38
ENDBRANCH  36  37
ENDBRANCH  14  36
TORSDOF 5
