REMARK  Name = ZINC13639990
REMARK  11 active torsions:
REMARK  status: ('A' for Active; 'I' for Inactive)
REMARK    1  A    between atoms: C_1  and  C_2
REMARK    2  A    between atoms: C_2  and  C_3
REMARK    3  A    between atoms: C_3  and  N_4
REMARK    4  A    between atoms: N_4  and  C_5
REMARK    5  A    between atoms: N_4  and  S_8
REMARK    6  A    between atoms: C_5  and  C_6
REMARK    7  A    between atoms: C_6  and  C_7
REMARK    8  A    between atoms: S_8  and  C_11
REMARK    9  A    between atoms: C_24  and  C_27
REMARK   10  A    between atoms: C_30  and  O_34
REMARK   11  A    between atoms: C_32  and  O_33
REMARK                            x       y       z     vdW  Elec       q    Type
REMARK                         _______ _______ _______ _____ _____    ______ ____
ROOT
ATOM      1  C   UNL     1      -5.414   2.399   2.004  0.00  0.00    +0.106 A 
ATOM      2  C   UNL     1      -6.317   2.078   3.001  0.00  0.00    +0.030 A 
ATOM      3  C   UNL     1      -7.598   1.683   2.674  0.00  0.00    +0.025 A 
ATOM      4  C   UNL     1      -7.990   1.604   1.343  0.00  0.00    +0.031 A 
ATOM      5  C   UNL     1      -7.076   1.945   0.340  0.00  0.00    -0.018 A 
ATOM      6  C   UNL     1      -5.798   2.337   0.677  0.00  0.00    +0.034 A 
ATOM      7  C   UNL     1      -7.547   1.892  -1.060  0.00  0.00    +0.049 C 
ATOM      8  C   UNL     1      -6.619   1.660  -2.196  0.00  0.00    -0.023 C 
ATOM      9  C   UNL     1      -7.275   1.017  -3.155  0.00  0.00    -0.030 C 
ATOM     10  C   UNL     1      -8.712   0.737  -2.708  0.00  0.00    +0.033 C 
ATOM     11  C   UNL     1      -8.541   0.699  -1.187  0.00  0.00    +0.029 C 
ATOM     12  C   UNL     1      -9.755   1.093  -0.366  0.00  0.00    +0.108 C 
ATOM     13  N   UNL     1      -9.284   1.167   1.034  0.00  0.00    -0.336 N 
ATOM     14  H   UNL     1      -9.883   0.907   1.752  0.00  0.00    +0.147 HD
ENDROOT
BRANCH  12  15
ATOM     15  C   UNL     1     -10.271   2.437  -0.812  0.00  0.00    +0.015 A 
ATOM     16  C   UNL     1      -9.877   3.583  -0.149  0.00  0.00    +0.012 A 
ATOM     17  C   UNL     1     -10.345   4.817  -0.559  0.00  0.00    +0.046 A 
ATOM     18  C   UNL     1     -11.221   4.907  -1.632  0.00  0.00    +0.120 A 
ATOM     19  C   UNL     1     -11.622   3.758  -2.296  0.00  0.00    +0.091 A 
ATOM     20  C   UNL     1     -11.147   2.521  -1.886  0.00  0.00    +0.125 A 
BRANCH  20  21
ATOM     21  O   UNL     1     -11.538   1.393  -2.535  0.00  0.00    -0.506 OA
ATOM     22  H   UNL     1     -12.336   0.986  -2.171  0.00  0.00    +0.292 HD
ENDBRANCH  20  21
BRANCH  18  23
ATOM     23  O   UNL     1     -11.684   6.120  -2.032  0.00  0.00    -0.507 OA
ATOM     24  H   UNL     1     -12.504   6.391  -1.596  0.00  0.00    +0.292 HD
ENDBRANCH  18  23
ENDBRANCH  12  15
BRANCH   1  25
ATOM     25  S   UNL     1      -3.776   2.894   2.425  0.00  0.00    +0.061 S 
ATOM     26  O   UNL     1      -3.834   3.401   3.751  0.00  0.00    -0.153 OA
ATOM     27  O   UNL     1      -3.292   3.665   1.334  0.00  0.00    -0.153 OA
BRANCH  25  28
ATOM     28  N   UNL     1      -2.850   1.522   2.483  0.00  0.00    -0.177 NA
BRANCH  28  29
ATOM     29  C   UNL     1      -2.164   1.050   1.278  0.00  0.00    +0.109 C 
BRANCH  29  31
ATOM     30  C   UNL     1      -0.013   1.086   0.008  0.00  0.00    +0.005 C 
ATOM     31  C   UNL     1      -0.729   1.579   1.267  0.00  0.00    +0.014 C 
ENDBRANCH  29  31
ENDBRANCH  28  29
BRANCH  28  32
ATOM     32  C   UNL     1      -2.716   0.781   3.740  0.00  0.00    +0.109 C 
BRANCH  32  33
ATOM     33  C   UNL     1      -1.446   1.231   4.464  0.00  0.00    +0.014 C 
ATOM     34  C   UNL     1      -1.306   0.457   5.777  0.00  0.00    +0.005 C 
ENDBRANCH  32  33
ENDBRANCH  28  32
ENDBRANCH  25  28
ENDBRANCH   1  25
TORSDOF 9
