REMARK  Name = ZINC20102805
REMARK  7 active torsions:
REMARK  status: ('A' for Active; 'I' for Inactive)
REMARK    1  A    between atoms: C_1  and  N_2
REMARK    2  A    between atoms: C_13  and  C_16
REMARK    3  A    between atoms: C_19  and  O_24
REMARK    4  A    between atoms: C_20  and  O_22
REMARK    5  A    between atoms: O_22  and  C_23
REMARK    6  A    between atoms: O_24  and  C_25
REMARK    7  A    between atoms: C_25  and  C_27
REMARK                            x       y       z     vdW  Elec       q    Type
REMARK                         _______ _______ _______ _____ _____    ______ ____
ROOT
ATOM      1  C   UNL     1      -4.469   1.730   5.036  0.00  0.00    -0.006 A 
ATOM      2  C   UNL     1      -4.151   0.420   5.342  0.00  0.00    +0.011 A 
ATOM      3  C   UNL     1      -5.104  -0.574   5.219  0.00  0.00    +0.050 A 
ATOM      4  C   UNL     1      -6.382  -0.258   4.787  0.00  0.00    +0.173 A 
ATOM      5  C   UNL     1      -6.703   1.061   4.479  0.00  0.00    +0.163 A 
ATOM      6  C   UNL     1      -5.744   2.053   4.611  0.00  0.00    +0.056 A 
ENDROOT
BRANCH   1  19
ATOM      7  C   UNL     1      -0.108   1.417  -2.479  0.00  0.00    -0.096 C 
ATOM      8  N   UNL     1      -0.832   1.694  -1.231  0.00  0.00    +0.381 N 
ATOM      9  C   UNL     1      -1.104   3.131  -1.087  0.00  0.00    -0.074 C 
ATOM     10  C   UNL     1      -2.161   3.360  -0.004  0.00  0.00    +0.018 C 
ATOM     11  C   UNL     1      -1.722   2.621   1.256  0.00  0.00    -0.027 A 
ATOM     12  C   UNL     1      -0.782   1.650   1.177  0.00  0.00    -0.021 A 
ATOM     13  S   UNL     1      -0.578   1.075   2.840  0.00  0.00    -0.080 S 
ATOM     14  C   UNL     1      -1.710   2.098   3.617  0.00  0.00    +0.080 A 
ATOM     15  C   UNL     1      -2.248   2.881   2.584  0.00  0.00    +0.068 A 
ATOM     16  C   UNL     1      -3.273   3.886   2.950  0.00  0.00    +0.248 C 
ATOM     17  O   UNL     1      -3.696   4.685   2.135  0.00  0.00    -0.270 OA
ATOM     18  N   UNL     1      -3.719   3.878   4.223  0.00  0.00    -0.289 N 
ATOM     19  C   UNL     1      -3.426   2.809   5.172  0.00  0.00    +0.190 C 
ATOM     20  N   UNL     1      -2.094   2.227   4.927  0.00  0.00    -0.316 N 
ATOM     21  C   UNL     1      -0.086   1.185  -0.064  0.00  0.00    -0.036 C 
ATOM     22  H   UNL     1      -4.333   4.736   4.533  0.00  0.00    +0.151 HD
ATOM     23  H   UNL     1      -1.463   1.920   5.775  0.00  0.00    +0.149 HD
ATOM     24  H   UNL     1      -1.797   1.168  -1.281  0.00  0.00    -0.082 HD
ENDBRANCH   1  19
BRANCH   5  25
ATOM     25  O   UNL     1      -7.956   1.377   4.056  0.00  0.00    -0.491 OA
ATOM     26  C   UNL     1      -8.214   2.750   3.758  0.00  0.00    +0.277 C 
ENDBRANCH   5  25
BRANCH   4  27
ATOM     27  O   UNL     1      -7.321  -1.234   4.665  0.00  0.00    -0.419 OA
BRANCH  27  28
ATOM     28  C   UNL     1      -7.543  -1.717   3.427  0.00  0.00    +0.345 C 
ATOM     29  O   UNL     1      -6.853  -1.348   2.497  0.00  0.00    -0.245 OA
BRANCH  28  30
ATOM     30  C   UNL     1      -8.623  -2.693   3.200  0.00  0.00    +0.067 A 
ATOM     31  C   UNL     1      -9.497  -3.035   4.224  0.00  0.00    +0.015 A 
ATOM     32  C   UNL     1     -10.516  -3.952   4.007  0.00  0.00    +0.001 A 
ATOM     33  C   UNL     1     -10.694  -4.554   2.799  0.00  0.00    +0.008 A 
ATOM     34  C   UNL     1      -9.844  -4.261   1.719  0.00  0.00    -0.017 A 
ATOM     35  C   UNL     1      -8.793  -3.327   1.894  0.00  0.00    -0.004 A 
ATOM     36  C   UNL     1      -7.944  -3.032   0.821  0.00  0.00    +0.009 A 
ATOM     37  C   UNL     1      -8.138  -3.647  -0.380  0.00  0.00    +0.001 A 
ATOM     38  C   UNL     1      -9.171  -4.565  -0.555  0.00  0.00    +0.001 A 
ATOM     39  C   UNL     1     -10.015  -4.875   0.467  0.00  0.00    +0.008 A 
ENDBRANCH  28  30
ENDBRANCH  27  28
ENDBRANCH   4  27
TORSDOF 5
