REMARK  Name = ZINC63205831
REMARK  6 active torsions:
REMARK  status: ('A' for Active; 'I' for Inactive)
REMARK    1  A    between atoms: C_1  and  C_2
REMARK    2  A    between atoms: N_14  and  C_15
REMARK    3  A    between atoms: C_15  and  C_16
REMARK    4  A    between atoms: C_16  and  S_17
REMARK    5  A    between atoms: S_17  and  C_18
REMARK    6  A    between atoms: N_31  and  C_32
REMARK                            x       y       z     vdW  Elec       q    Type
REMARK                         _______ _______ _______ _____ _____    ______ ____
ROOT
ATOM      1  C   UNL     1      -0.604  -0.557  -2.529  0.00  0.00    +0.007 C 
ATOM      2  C   UNL     1      -0.497  -0.801  -1.022  0.00  0.00    -0.011 C 
ATOM      3  C   UNL     1       0.382  -2.027  -0.765  0.00  0.00    +0.022 C 
ATOM      4  C   UNL     1       0.516  -2.248   0.745  0.00  0.00    +0.108 C 
ATOM      5  N   UNL     1      -0.829  -2.336   1.330  0.00  0.00    -0.305 N 
ATOM      6  C   UNL     1      -1.785  -1.252   1.070  0.00  0.00    +0.108 C 
ATOM      7  C   UNL     1      -1.893  -1.042  -0.444  0.00  0.00    +0.022 C 
ATOM      8  C   UNL     1      -1.186  -3.413   2.107  0.00  0.00    +0.161 C 
ATOM      9  N   UNL     1      -2.392  -3.955   2.110  0.00  0.00    -0.340 N 
ATOM     10  C   UNL     1      -2.375  -5.017   3.089  0.00  0.00    +0.203 C 
ATOM     11  C   UNL     1      -0.862  -5.416   3.037  0.00  0.00    +0.205 C 
ATOM     12  N   UNL     1      -0.314  -4.068   2.982  0.00  0.00    -0.289 N 
ATOM     13  C   UNL     1      -0.647  -6.296   4.218  0.00  0.00    +0.264 C 
ATOM     14  N   UNL     1      -1.627  -7.178   4.489  0.00  0.00    -0.126 NA
ATOM     15  C   UNL     1      -2.769  -7.227   3.824  0.00  0.00    +0.330 C 
ATOM     16  O   UNL     1      -3.628  -8.236   4.057  0.00  0.00    -0.250 OA
ATOM     17  N   UNL     1      -3.077  -6.269   2.903  0.00  0.00    -0.264 N 
ATOM     18  C   UNL     1      -4.037  -6.503   1.822  0.00  0.00    +0.136 C 
ATOM     19  O   UNL     1       0.357  -6.222   4.899  0.00  0.00    -0.271 OA
ATOM     20  H   UNL     1      -3.145  -3.689   1.560  0.00  0.00    +0.164 HD
ENDROOT
BRANCH  12  21
ATOM     21  C   UNL     1       0.861  -3.533   3.675  0.00  0.00    +0.119 C 
BRANCH  21  22
ATOM     22  C   UNL     1       0.421  -2.851   4.972  0.00  0.00    +0.092 C 
BRANCH  22  23
ATOM     23  S   UNL     1       1.875  -2.188   5.830  0.00  0.00    -0.113 S 
BRANCH  23  24
ATOM     24  C   UNL     1       1.191  -1.424   7.326  0.00  0.00    +0.235 C 
ATOM     25  N   UNL     1       0.431  -2.416   8.097  0.00  0.00    -0.355 N 
ATOM     26  C   UNL     1      -0.798  -1.994   8.173  0.00  0.00    +0.061 A 
ATOM     27  C   UNL     1      -2.006  -2.544   8.804  0.00  0.00    +0.027 A 
ATOM     28  C   UNL     1      -3.168  -1.867   8.716  0.00  0.00    +0.002 A 
ATOM     29  C   UNL     1      -3.282  -0.641   8.037  0.00  0.00    +0.002 A 
ATOM     30  C   UNL     1      -2.237  -0.049   7.425  0.00  0.00    +0.027 A 
ATOM     31  C   UNL     1      -0.918  -0.696   7.455  0.00  0.00    +0.061 A 
ATOM     32  N   UNL     1       0.241  -0.366   6.963  0.00  0.00    -0.355 N 
ATOM     33  H   UNL     1       0.781  -3.236   8.479  0.00  0.00    +0.162 HD
ATOM     34  H   UNL     1       0.440   0.433   6.450  0.00  0.00    +0.162 HD
ENDBRANCH  23  24
ENDBRANCH  22  23
ENDBRANCH  21  22
ENDBRANCH  12  21
TORSDOF 4
