REMARK  Name = ZINC33788767
REMARK  8 active torsions:
REMARK  status: ('A' for Active; 'I' for Inactive)
REMARK    1  A    between atoms: C_1  and  C_2
REMARK    2  A    between atoms: C_9  and  C_19
REMARK    3  A    between atoms: C_10  and  N_11
REMARK    4  A    between atoms: N_11  and  C_12
REMARK    5  A    between atoms: C_12  and  C_13
REMARK    6  A    between atoms: C_22  and  O_25
REMARK    7  A    between atoms: O_25  and  S_26
REMARK    8  A    between atoms: S_26  and  C_29
REMARK                            x       y       z     vdW  Elec       q    Type
REMARK                         _______ _______ _______ _____ _____    ______ ____
ROOT
ATOM      1  C   UNL     1       9.088  -3.462   2.258  0.00  0.00    +0.044 C 
ATOM      2  C   UNL     1       8.058  -2.925   1.297  0.00  0.00    -0.046 A 
ATOM      3  C   UNL     1       6.847  -2.400   1.783  0.00  0.00    +0.021 A 
ATOM      4  C   UNL     1       5.922  -1.919   0.929  0.00  0.00    +0.094 A 
ATOM      5  N   UNL     1       6.146  -1.933  -0.422  0.00  0.00    -0.289 N 
ATOM      6  C   UNL     1       7.322  -2.441  -0.926  0.00  0.00    +0.117 A 
ATOM      7  C   UNL     1       8.296  -2.947  -0.041  0.00  0.00    +0.048 A 
ATOM      8  N   UNL     1       7.292  -2.342  -2.245  0.00  0.00    -0.338 N 
ATOM      9  C   UNL     1       6.125  -1.787  -2.622  0.00  0.00    +0.087 A 
ATOM     10  C   UNL     1       5.393  -1.518  -1.485  0.00  0.00    +0.129 A 
ATOM     11  H   UNL     1       8.146  -2.692  -2.843  0.00  0.00    +0.167 HD
ENDROOT
BRANCH   9  12
ATOM     12  C   UNL     1       5.702  -1.510  -4.015  0.00  0.00    +0.002 A 
ATOM     13  C   UNL     1       4.362  -1.641  -4.378  0.00  0.00    +0.014 A 
ATOM     14  C   UNL     1       3.971  -1.377  -5.674  0.00  0.00    +0.049 A 
ATOM     15  C   UNL     1       4.912  -0.993  -6.620  0.00  0.00    +0.157 A 
ATOM     16  C   UNL     1       6.248  -0.867  -6.264  0.00  0.00    +0.049 A 
ATOM     17  C   UNL     1       6.645  -1.124  -4.968  0.00  0.00    +0.014 A 
BRANCH  15  18
ATOM     18  O   UNL     1       4.524  -0.739  -7.898  0.00  0.00    -0.342 OA
BRANCH  18  19
ATOM     19  S   UNL     1       4.561  -1.957  -8.809  0.00  0.00    +0.151 S 
ATOM     20  O   UNL     1       4.334  -1.484 -10.130  0.00  0.00    -0.131 OA
ATOM     21  O   UNL     1       5.721  -2.696  -8.453  0.00  0.00    -0.131 OA
BRANCH  19  22
ATOM     22  C   UNL     1       3.175  -2.963  -8.390  0.00  0.00    +0.128 A 
ATOM     23  C   UNL     1       3.301  -3.944  -7.425  0.00  0.00    +0.033 A 
ATOM     24  C   UNL     1       2.214  -4.729  -7.092  0.00  0.00    +0.040 A 
ATOM     25  C   UNL     1       1.002  -4.541  -7.734  0.00  0.00    +0.124 A 
ATOM     26  C   UNL     1       0.879  -3.562  -8.705  0.00  0.00    +0.040 A 
ATOM     27  C   UNL     1       1.966  -2.774  -9.032  0.00  0.00    +0.033 A 
ATOM     28  F   UNL     1      -0.060  -5.312  -7.413  0.00  0.00    -0.205 F 
ENDBRANCH  19  22
ENDBRANCH  18  19
ENDBRANCH  15  18
ENDBRANCH   9  12
BRANCH  10  29
ATOM     29  N   UNL     1       4.124  -0.938  -1.430  0.00  0.00    -0.324 N 
ATOM     30  H   UNL     1       3.454  -0.660  -2.256  0.00  0.00    +0.148 HD
BRANCH  29  31
ATOM     31  C   UNL     1       3.712  -0.705  -0.039  0.00  0.00    +0.138 C 
BRANCH  31  32
ATOM     32  C   UNL     1       2.407   0.048  -0.022  0.00  0.00    -0.030 A 
ATOM     33  C   UNL     1       1.210  -0.644  -0.017  0.00  0.00    +0.005 A 
ATOM     34  C   UNL     1       0.013   0.046  -0.002  0.00  0.00    +0.000 A 
ATOM     35  C   UNL     1       0.012   1.429   0.009  0.00  0.00    +0.000 A 
ATOM     36  C   UNL     1       1.209   2.121   0.005  0.00  0.00    +0.000 A 
ATOM     37  C   UNL     1       2.406   1.430  -0.011  0.00  0.00    +0.005 A 
ENDBRANCH  31  32
ENDBRANCH  29  31
ENDBRANCH  10  29
TORSDOF 7
