REMARK  Name = ZINC06550138
REMARK  4 active torsions:
REMARK  status: ('A' for Active; 'I' for Inactive)
REMARK    1  A    between atoms: C_4  and  C_7
REMARK    2  A    between atoms: C_7  and  N_8
REMARK    3  A    between atoms: C_9  and  C_11
REMARK    4  A    between atoms: N_20  and  C_21
REMARK                            x       y       z     vdW  Elec       q    Type
REMARK                         _______ _______ _______ _____ _____    ______ ____
ROOT
ATOM      1  C   UNL     1      -1.329   1.946   0.016  0.00  0.00    +0.092 C 
ATOM      2  C   UNL     1      -2.479   0.936   0.015  0.00  0.00    +0.016 C 
ATOM      3  C   UNL     1      -3.816   1.682  -0.007  0.00  0.00    +0.020 C 
ATOM      4  C   UNL     1      -3.933   2.548   1.252  0.00  0.00    +0.109 C 
ATOM      5  N   UNL     1      -2.755   3.422   1.336  0.00  0.00    -0.285 N 
ATOM      6  C   UNL     1      -1.419   2.814   1.275  0.00  0.00    +0.122 C 
ATOM      7  C   UNL     1      -2.898   4.756   1.468  0.00  0.00    +0.302 C 
ATOM      8  O   UNL     1      -1.919   5.459   1.629  0.00  0.00    -0.253 OA
ATOM      9  N   UNL     1      -4.126   5.310   1.421  0.00  0.00    -0.296 N 
ATOM     10  H   UNL     1      -5.017   4.668   1.360  0.00  0.00    +0.151 HD
ENDROOT
BRANCH   9  11
ATOM     11  C   UNL     1      -4.273   6.767   1.453  0.00  0.00    +0.074 C 
ATOM     12  C   UNL     1      -4.271   7.248   2.905  0.00  0.00    +0.022 C 
ATOM     13  C   UNL     1      -4.425   8.770   2.938  0.00  0.00    +0.002 C 
ATOM     14  C   UNL     1      -5.745   9.164   2.272  0.00  0.00    +0.000 C 
ATOM     15  C   UNL     1      -5.747   8.682   0.820  0.00  0.00    +0.002 C 
ATOM     16  C   UNL     1      -5.593   7.160   0.787  0.00  0.00    +0.022 C 
ENDBRANCH   9  11
BRANCH   1  18
ATOM     17  N   UNL     1       1.144   1.900  -0.002  0.00  0.00    -0.315 N 
ATOM     18  C   UNL     1      -0.014   1.210   0.005  0.00  0.00    +0.218 C 
ATOM     19  O   UNL     1       0.002  -0.002  -0.003  0.00  0.00    -0.275 OA
ATOM     20  H   UNL     1       1.129   3.000   0.005  0.00  0.00    +0.149 HD
BRANCH  17  21
ATOM     21  C   UNL     1       2.422   1.185  -0.019  0.00  0.00    +0.107 C 
BRANCH  21  25
ATOM     22  C   UNL     1       6.021   3.265  -1.222  0.00  0.00    +0.000 C 
ATOM     23  C   UNL     1       6.053   2.462   0.080  0.00  0.00    +0.000 C 
ATOM     24  C   UNL     1       4.904   1.452   0.085  0.00  0.00    +0.005 C 
ATOM     25  C   UNL     1       3.571   2.195  -0.024  0.00  0.00    +0.006 C 
ATOM     26  C   UNL     1       3.539   2.998  -1.326  0.00  0.00    +0.005 C 
ATOM     27  C   UNL     1       4.689   4.008  -1.330  0.00  0.00    +0.000 C 
ENDBRANCH  21  25
ENDBRANCH  17  21
ENDBRANCH   1  18
TORSDOF 4
