REMARK  Name = ZINC42399249
REMARK  5 active torsions:
REMARK  status: ('A' for Active; 'I' for Inactive)
REMARK    1  A    between atoms: C_1  and  N_2
REMARK    2  A    between atoms: N_2  and  C_3
REMARK    3  A    between atoms: N_2  and  C_10
REMARK    4  A    between atoms: C_3  and  C_4
REMARK    5  A    between atoms: C_13  and  N_19
REMARK                            x       y       z     vdW  Elec       q    Type
REMARK                         _______ _______ _______ _____ _____    ______ ____
ROOT
ATOM      1  C   UNL     1       0.000  -0.696  -1.212  0.00  0.00    +0.061 A 
ATOM      2  C   UNL     1       1.174  -1.024  -1.815  0.00  0.00    +0.027 A 
ATOM      3  C   UNL     1       1.225  -1.714  -3.027  0.00  0.00    +0.027 A 
ATOM      4  C   UNL     1       0.105  -2.107  -3.691  0.00  0.00    +0.056 A 
ATOM      5  C   UNL     1      -1.213  -1.804  -3.127  0.00  0.00    +0.157 A 
ATOM      6  C   UNL     1      -1.268  -1.079  -1.841  0.00  0.00    +0.157 A 
ATOM      7  N   UNL     1      -2.527  -0.918  -1.517  0.00  0.00    -0.047 NA
ATOM      8  O   UNL     1      -3.319  -1.512  -2.532  0.00  0.00    -0.241 OA
ATOM      9  N   UNL     1      -2.443  -2.041  -3.513  0.00  0.00    -0.047 NA
ENDROOT
BRANCH   4  10
ATOM     10  N   UNL     1       0.211  -2.796  -4.902  0.00  0.00    -0.356 N 
ATOM     11  H   UNL     1       1.085  -2.994  -5.273  0.00  0.00    +0.142 HD
ATOM     12  H   UNL     1      -0.590  -3.075  -5.373  0.00  0.00    +0.142 HD
ENDBRANCH   4  10
BRANCH   1  14
ATOM     13  C   UNL     1      -0.018   1.461   0.010  0.00  0.00    +0.129 C 
ATOM     14  N   UNL     1       0.002  -0.004   0.002  0.00  0.00    -0.326 N 
BRANCH  14  15
ATOM     15  C   UNL     1       0.024  -0.743   1.267  0.00  0.00    +0.147 C 
BRANCH  15  16
ATOM     16  C   UNL     1      -1.389  -1.016   1.714  0.00  0.00    +0.008 A 
ATOM     17  C   UNL     1      -2.180  -2.082   1.440  0.00  0.00    +0.028 A 
ATOM     18  C   UNL     1      -3.459  -2.120   1.964  0.00  0.00    +0.025 A 
ATOM     19  C   UNL     1      -3.883  -1.090   2.737  0.00  0.00    +0.060 A 
ATOM     20  S   UNL     1      -2.452  -0.023   2.748  0.00  0.00    -0.099 S 
ATOM     21 BR   UNL     1      -4.599  -3.587   1.609  0.00  0.00    -0.050 Br
ENDBRANCH  15  16
ENDBRANCH  14  15
ENDBRANCH   1  14
TORSDOF 4
