REMARK  Name = ZINC63521451
REMARK  3 active torsions:
REMARK  status: ('A' for Active; 'I' for Inactive)
REMARK    1  A    between atoms: C_1  and  C_2
REMARK    2  A    between atoms: C_2  and  C_28
REMARK    3  A    between atoms: C_6  and  C_18
REMARK                            x       y       z     vdW  Elec       q    Type
REMARK                         _______ _______ _______ _____ _____    ______ ____
ROOT
ATOM      1  C   UNL     1      -0.019   1.526   0.010  0.00  0.00    +0.011 C 
ATOM      2  C   UNL     1       0.002  -0.004   0.002  0.00  0.00    -0.023 C 
ATOM      3  C   UNL     1       0.742  -0.503  -1.241  0.00  0.00    +0.058 C 
ATOM      4  C   UNL     1       2.168  -0.007  -1.216  0.00  0.00    +0.016 C 
ATOM      5  C   UNL     1       2.818   0.178  -0.050  0.00  0.00    +0.021 C 
ATOM      6  C   UNL     1       4.253   0.647   0.006  0.00  0.00    +0.073 C 
ATOM      7  C   UNL     1       4.628   1.367  -1.291  0.00  0.00    +0.148 C 
ATOM      8  C   UNL     1       4.108   0.534  -2.439  0.00  0.00    +0.106 C 
ATOM      9  N   UNL     1       4.881   0.092  -3.382  0.00  0.00    -0.151 NA
ATOM     10  C   UNL     1       6.202   0.317  -3.397  0.00  0.00    +0.331 C 
ATOM     11  O   UNL     1       6.865  -0.105  -4.326  0.00  0.00    -0.250 OA
ATOM     12  N   UNL     1       6.811   0.998  -2.414  0.00  0.00    -0.238 N 
ATOM     13  C   UNL     1       6.118   1.521  -1.383  0.00  0.00    +0.231 C 
ATOM     14  O   UNL     1       6.706   2.123  -0.510  0.00  0.00    -0.275 OA
ATOM     15  N   UNL     1       2.769   0.255  -2.427  0.00  0.00    -0.307 N 
ATOM     16  C   UNL     1       2.173  -0.060   1.181  0.00  0.00    +0.162 C 
ATOM     17  O   UNL     1       2.788   0.107   2.215  0.00  0.00    -0.292 OA
ATOM     18  C   UNL     1       0.742  -0.517   1.242  0.00  0.00    +0.086 C 
ATOM     19  C   UNL     1      -1.431  -0.539  -0.001  0.00  0.00    +0.011 C 
ATOM     20  H   UNL     1       7.773   1.120  -2.446  0.00  0.00    +0.159 HD
ATOM     21  H   UNL     1       2.256   0.241  -3.251  0.00  0.00    +0.153 HD
ENDROOT
BRANCH   6  22
ATOM     22  C   UNL     1       5.160  -0.542   0.192  0.00  0.00    -0.038 A 
ATOM     23  C   UNL     1       5.177  -1.552  -0.752  0.00  0.00    +0.004 A 
ATOM     24  C   UNL     1       6.009  -2.643  -0.582  0.00  0.00    +0.001 A 
ATOM     25  C   UNL     1       6.822  -2.726   0.532  0.00  0.00    +0.015 A 
ATOM     26  C   UNL     1       6.805  -1.716   1.477  0.00  0.00    +0.018 A 
ATOM     27  C   UNL     1       5.977  -0.621   1.303  0.00  0.00    +0.019 A 
ATOM     28 BR   UNL     1       7.918  -1.828   3.002  0.00  0.00    -0.050 Br
ENDBRANCH   6  22
TORSDOF 1
