REMARK  Name = ZINC39666449
REMARK  7 active torsions:
REMARK  status: ('A' for Active; 'I' for Inactive)
REMARK    1  A    between atoms: C_1  and  C_2
REMARK    2  A    between atoms: C_2  and  C_4
REMARK    3  A    between atoms: C_2  and  O_28
REMARK    4  A    between atoms: C_4  and  N_5
REMARK    5  A    between atoms: C_6  and  C_8
REMARK    6  A    between atoms: C_19  and  C_21
REMARK    7  A    between atoms: O_28  and  C_29
REMARK                            x       y       z     vdW  Elec       q    Type
REMARK                         _______ _______ _______ _____ _____    ______ ____
ROOT
ATOM      1  C   UNL     1       0.913  -3.875  -2.330  0.00  0.00    +0.100 C 
ATOM      2  C   UNL     1       1.529  -4.498  -1.057  0.00  0.00    +0.121 C 
ATOM      3  N   UNL     1       2.191  -5.737  -1.529  0.00  0.00    -0.296 N 
ATOM      4  C   UNL     1       2.796  -5.359  -2.829  0.00  0.00    +0.115 C 
ATOM      5  C   UNL     1       1.748  -4.442  -3.490  0.00  0.00    -0.004 C 
ATOM      6  C   UNL     1       0.861  -5.248  -4.434  0.00  0.00    -0.010 C 
ATOM      7  C   UNL     1       1.702  -5.754  -5.610  0.00  0.00    -0.082 C 
ATOM      8  N   UNL     1       2.293  -4.612  -6.318  0.00  0.00    +0.379 N 
ATOM      9  C   UNL     1       3.216  -3.895  -5.430  0.00  0.00    -0.082 C 
ATOM     10  C   UNL     1       2.439  -3.311  -4.246  0.00  0.00    -0.010 C 
ATOM     11  C   UNL     1       2.234  -6.936  -0.916  0.00  0.00    +0.247 C 
ATOM     12  O   UNL     1       1.595  -7.122   0.101  0.00  0.00    -0.270 OA
ATOM     13  H   UNL     1       2.796  -4.943  -7.127  0.00  0.00    -0.086 HD
ATOM     14  H   UNL     1       1.560  -3.985  -6.614  0.00  0.00    -0.086 HD
ENDROOT
BRANCH  11  15
ATOM     15  C   UNL     1       3.059  -8.026  -1.480  0.00  0.00    +0.038 A 
ATOM     16  C   UNL     1       4.158  -7.727  -2.288  0.00  0.00    +0.013 A 
ATOM     17  C   UNL     1       4.924  -8.748  -2.811  0.00  0.00    +0.002 A 
ATOM     18  C   UNL     1       4.606 -10.066  -2.537  0.00  0.00    +0.020 A 
ATOM     19  C   UNL     1       3.518 -10.370  -1.736  0.00  0.00    +0.042 A 
ATOM     20  C   UNL     1       2.747  -9.357  -1.202  0.00  0.00    +0.033 A 
ATOM     21 CL   UNL     1       3.128 -12.027  -1.397  0.00  0.00    -0.084 Cl
ENDBRANCH  11  15
BRANCH   1  23
ATOM     22  N   UNL     1       0.098  -1.608  -2.892  0.00  0.00    -0.312 N 
ATOM     23  C   UNL     1       1.028  -2.373  -2.286  0.00  0.00    +0.218 C 
ATOM     24  O   UNL     1       1.956  -1.852  -1.706  0.00  0.00    -0.275 OA
ATOM     25  H   UNL     1      -0.645  -2.025  -3.357  0.00  0.00    +0.149 HD
BRANCH  22  26
ATOM     26  C   UNL     1       0.208  -0.148  -2.850  0.00  0.00    +0.148 C 
BRANCH  26  28
ATOM     27  C   UNL     1      -0.784   1.992  -3.671  0.00  0.00    +0.053 C 
ATOM     28  C   UNL     1      -0.966   0.475  -3.608  0.00  0.00    +0.187 C 
BRANCH  28  29
ATOM     29  O   UNL     1      -2.186   0.168  -2.931  0.00  0.00    -0.486 OA
BRANCH  29  30
ATOM     30  C   UNL     1      -3.323   0.172  -3.677  0.00  0.00    +0.139 A 
ATOM     31  C   UNL     1      -3.253   0.366  -5.048  0.00  0.00    +0.047 A 
ATOM     32  C   UNL     1      -4.410   0.369  -5.804  0.00  0.00    +0.004 A 
ATOM     33  C   UNL     1      -5.637   0.179  -5.195  0.00  0.00    +0.002 A 
ATOM     34  C   UNL     1      -5.710  -0.013  -3.828  0.00  0.00    +0.023 A 
ATOM     35  C   UNL     1      -4.555  -0.023  -3.067  0.00  0.00    +0.083 A 
ATOM     36 CL   UNL     1      -4.646  -0.273  -1.352  0.00  0.00    -0.080 Cl
ENDBRANCH  29  30
ENDBRANCH  28  29
ENDBRANCH  26  28
ENDBRANCH  22  26
ENDBRANCH   1  23
TORSDOF 6
