REMARK  Name = ZINC40045424
REMARK  8 active torsions:
REMARK  status: ('A' for Active; 'I' for Inactive)
REMARK    1  A    between atoms: C_1  and  C_2
REMARK    2  A    between atoms: C_4  and  C_37
REMARK    3  A    between atoms: C_16  and  C_18
REMARK    4  A    between atoms: C_22  and  N_24
REMARK    5  A    between atoms: C_29  and  C_36
REMARK    6  A    between atoms: C_30  and  C_32
REMARK    7  A    between atoms: C_32  and  O_34
REMARK    8  A    between atoms: O_34  and  C_35
REMARK                            x       y       z     vdW  Elec       q    Type
REMARK                         _______ _______ _______ _____ _____    ______ ____
ROOT
ATOM      1  C   UNL     1      -0.018   1.503   0.010  0.00  0.00    +0.044 C 
ATOM      2  C   UNL     1       0.002  -0.004   0.002  0.00  0.00    -0.049 A 
ATOM      3  C   UNL     1       0.006  -0.689  -1.205  0.00  0.00    +0.010 A 
ATOM      4  C   UNL     1       0.022  -2.065  -1.235  0.00  0.00    -0.007 A 
ATOM      5  C   UNL     1       0.035  -2.790  -0.043  0.00  0.00    +0.142 A 
ATOM      6  C   UNL     1       0.037  -2.086   1.172  0.00  0.00    +0.065 A 
ATOM      7  C   UNL     1       0.023  -0.692   1.183  0.00  0.00    +0.018 A 
ATOM      8  C   UNL     1       0.068  -2.849   2.446  0.00  0.00    +0.199 A 
ATOM      9  O   UNL     1      -0.097  -2.332   3.537  0.00  0.00    -0.287 OA
ATOM     10  C   UNL     1       0.315  -4.283   2.265  0.00  0.00    +0.072 A 
ATOM     11  C   UNL     1       0.295  -4.850   1.022  0.00  0.00    +0.199 A 
ATOM     12  O   UNL     1       0.044  -4.142  -0.096  0.00  0.00    -0.449 OA
ATOM     13  C   UNL     1       0.584  -6.287   1.166  0.00  0.00    +0.289 C 
ATOM     14  O   UNL     1       0.644  -7.080   0.247  0.00  0.00    -0.266 OA
ATOM     15  N   UNL     1       0.771  -6.595   2.465  0.00  0.00    -0.232 N 
ATOM     16  C   UNL     1       0.615  -5.362   3.253  0.00  0.00    +0.151 C 
ATOM     17  C   UNL     1       1.060  -7.849   2.969  0.00  0.00    +0.169 A 
ATOM     18  N   UNL     1       1.215  -8.981   2.305  0.00  0.00    -0.229 NA
ATOM     19  C   UNL     1       1.489 -10.103   2.919  0.00  0.00    +0.062 A 
ATOM     20  C   UNL     1       1.607 -10.036   4.302  0.00  0.00    +0.120 A 
ATOM     21  S   UNL     1       1.304  -8.296   4.573  0.00  0.00    -0.045 S 
ATOM     22  C   UNL     1       1.667 -11.398   2.169  0.00  0.00    +0.067 C 
ATOM     23  C   UNL     1       0.024  -2.790  -2.557  0.00  0.00    +0.047 C 
ENDROOT
BRANCH  16  24
ATOM     24  C   UNL     1       1.892  -5.051   3.991  0.00  0.00    -0.020 A 
ATOM     25  C   UNL     1       3.113  -5.307   3.397  0.00  0.00    +0.006 A 
ATOM     26  C   UNL     1       4.284  -5.022   4.074  0.00  0.00    +0.003 A 
ATOM     27  C   UNL     1       4.234  -4.479   5.344  0.00  0.00    +0.033 A 
ATOM     28  C   UNL     1       3.012  -4.222   5.938  0.00  0.00    +0.127 A 
ATOM     29  C   UNL     1       1.841  -4.503   5.259  0.00  0.00    +0.038 A 
BRANCH  28  30
ATOM     30  N   UNL     1       2.958  -3.641   7.298  0.00  0.00    +0.056 N 
ATOM     31  O   UNL     1       3.983  -3.392   7.891  0.00  0.00    -0.126 OA
ATOM     32  O   UNL     1       1.890  -3.416   7.817  0.00  0.00    -0.126 OA
ENDBRANCH  28  30
ENDBRANCH  16  24
BRANCH  20  33
ATOM     33  C   UNL     1       1.902 -11.093   5.266  0.00  0.00    +0.347 C 
ATOM     34  O   UNL     1       2.085 -12.233   4.882  0.00  0.00    -0.244 OA
BRANCH  33  35
ATOM     35  O   UNL     1       1.971 -10.806   6.583  0.00  0.00    -0.464 OA
ATOM     36  C   UNL     1       2.264 -11.888   7.469  0.00  0.00    +0.280 C 
ENDBRANCH  33  35
ENDBRANCH  20  33
TORSDOF 4
