REMARK  Name = ZINC08899191
REMARK  9 active torsions:
REMARK  status: ('A' for Active; 'I' for Inactive)
REMARK    1  A    between atoms: C_1  and  O_2
REMARK    2  A    between atoms: O_2  and  C_3
REMARK    3  A    between atoms: C_8  and  O_9
REMARK    4  A    between atoms: O_9  and  C_10
REMARK    5  A    between atoms: C_11  and  C_27
REMARK    6  A    between atoms: C_15  and  C_16
REMARK    7  A    between atoms: C_15  and  N_54
REMARK    8  A    between atoms: N_18  and  C_19
REMARK    9  A    between atoms: C_20  and  C_24
REMARK                            x       y       z     vdW  Elec       q    Type
REMARK                         _______ _______ _______ _____ _____    ______ ____
ROOT
ATOM      1  C   UNL     1       3.152   6.598  -3.733  0.00  0.00    +0.162 A 
ATOM      2  C   UNL     1       3.090   7.318  -2.553  0.00  0.00    +0.053 A 
ATOM      3  C   UNL     1       2.846   6.673  -1.349  0.00  0.00    -0.043 A 
ATOM      4  C   UNL     1       2.667   5.306  -1.324  0.00  0.00    -0.049 A 
ATOM      5  C   UNL     1       2.727   4.580  -2.505  0.00  0.00    +0.052 A 
ATOM      6  C   UNL     1       2.968   5.218  -3.708  0.00  0.00    +0.162 A 
ATOM      7  C   UNL     1       2.405   4.562  -0.041  0.00  0.00    +0.001 C 
ATOM      8  C   UNL     1       2.923   6.601   1.135  0.00  0.00    -0.072 C 
ATOM      9  C   UNL     1       2.783   7.502  -0.092  0.00  0.00    +0.017 C 
ATOM     10  N   UNL     1       1.949   5.499   1.000  0.00  0.00    +0.393 N 
ATOM     11  H   UNL     1       1.038   5.887   0.727  0.00  0.00    -0.080 HD
ENDROOT
BRANCH   7  12
ATOM     12  C   UNL     1       1.331   3.531  -0.273  0.00  0.00    -0.019 A 
ATOM     13  C   UNL     1       1.460   2.201  -0.504  0.00  0.00    +0.010 A 
ATOM     14  C   UNL     1       0.322   1.440  -0.690  0.00  0.00    +0.008 A 
ATOM     15  C   UNL     1      -0.890   2.046  -0.642  0.00  0.00    +0.045 A 
ATOM     16  S   UNL     1      -0.441   3.743  -0.314  0.00  0.00    -0.103 S 
ENDBRANCH   7  12
BRANCH   1  18
ATOM     17  C   UNL     1       3.570   8.651  -4.857  0.00  0.00    +0.277 C 
ATOM     18  O   UNL     1       3.391   7.234  -4.910  0.00  0.00    -0.491 OA
ENDBRANCH   1  18
BRANCH   6  19
ATOM     19  O   UNL     1       3.025   4.502  -4.863  0.00  0.00    -0.491 OA
ATOM     20  C   UNL     1       2.827   3.090  -4.760  0.00  0.00    +0.277 C 
ENDBRANCH   6  19
BRANCH  10  21
ATOM     21  C   UNL     1       1.802   4.790   2.291  0.00  0.00    +0.020 C 
BRANCH  21  22
ATOM     22  C   UNL     1       3.141   4.295   2.771  0.00  0.00    +0.201 C 
ATOM     23  O   UNL     1       4.119   4.408   2.063  0.00  0.00    -0.278 OA
ATOM     24  N   UNL     1       3.253   3.726   3.988  0.00  0.00    -0.281 N 
ATOM     25  H   UNL     1       2.471   3.635   4.554  0.00  0.00    +0.155 HD
BRANCH  24  26
ATOM     26  C   UNL     1       4.486   3.270   4.429  0.00  0.00    +0.084 A 
ATOM     27  C   UNL     1       4.799   2.667   5.642  0.00  0.00    +0.065 A 
ATOM     28  C   UNL     1       6.177   2.284   5.839  0.00  0.00    +0.022 A 
ATOM     29  C   UNL     1       7.038   2.552   4.841  0.00  0.00    +0.048 A 
ATOM     30  S   UNL     1       6.009   3.320   3.608  0.00  0.00    -0.081 S 
BRANCH  27  31
ATOM     31  C   UNL     1       3.780   2.428   6.668  0.00  0.00    +0.244 C 
ATOM     32  O   UNL     1       2.626   2.760   6.469  0.00  0.00    -0.270 OA
ATOM     33  N   UNL     1       4.120   1.840   7.833  0.00  0.00    -0.325 N 
ATOM     34  H   UNL     1       5.040   1.576   7.991  0.00  0.00    +0.145 HD
ATOM     35  H   UNL     1       3.446   1.682   8.512  0.00  0.00    +0.145 HD
ENDBRANCH  27  31
ENDBRANCH  24  26
ENDBRANCH  21  22
ENDBRANCH  10  21
TORSDOF 7
