REMARK  Name = ZINC08870888
REMARK  8 active torsions:
REMARK  status: ('A' for Active; 'I' for Inactive)
REMARK    1  A    between atoms: C_1  and  C_2
REMARK    2  A    between atoms: C_2  and  C_3
REMARK    3  A    between atoms: C_6  and  S_9
REMARK    4  A    between atoms: S_9  and  N_12
REMARK    5  A    between atoms: N_12  and  C_13
REMARK    6  A    between atoms: C_15  and  S_21
REMARK    7  A    between atoms: C_16  and  O_20
REMARK    8  A    between atoms: S_21  and  C_22
REMARK                            x       y       z     vdW  Elec       q    Type
REMARK                         _______ _______ _______ _____ _____    ______ ____
ROOT
ATOM      1  C   UNL     1       4.317   0.265  -5.370  0.00  0.00    +0.050 A 
ATOM      2  C   UNL     1       4.110   1.636  -5.429  0.00  0.00    +0.043 A 
ATOM      3  C   UNL     1       4.990   2.497  -4.791  0.00  0.00    +0.060 A 
ATOM      4  C   UNL     1       6.080   1.983  -4.091  0.00  0.00    +0.145 A 
ATOM      5  C   UNL     1       6.283   0.614  -4.034  0.00  0.00    +0.062 A 
ATOM      6  C   UNL     1       5.401  -0.244  -4.667  0.00  0.00    +0.043 A 
ATOM      7 BR   UNL     1       7.762  -0.083  -3.085  0.00  0.00    -0.046 Br
ENDROOT
BRANCH   1   8
ATOM      8  N   UNL     1       3.430  -0.605  -6.013  0.00  0.00    -0.216 N 
ATOM      9  H   UNL     1       3.136  -0.416  -6.918  0.00  0.00    +0.174 HD
BRANCH   8  10
ATOM     10  S   UNL     1       2.882  -1.958  -5.230  0.00  0.00    +0.072 S 
ATOM     11  O   UNL     1       4.025  -2.604  -4.687  0.00  0.00    -0.150 OA
ATOM     12  O   UNL     1       1.990  -2.610  -6.123  0.00  0.00    -0.150 OA
BRANCH  10  16
ATOM     13  C   UNL     1       0.398  -0.557  -1.715  0.00  0.00    -0.048 A 
ATOM     14  C   UNL     1      -0.201  -0.773  -2.942  0.00  0.00    +0.005 A 
ATOM     15  C   UNL     1       0.558  -1.201  -4.015  0.00  0.00    +0.029 A 
ATOM     16  C   UNL     1       1.915  -1.412  -3.862  0.00  0.00    +0.109 A 
ATOM     17  C   UNL     1       2.514  -1.195  -2.635  0.00  0.00    +0.029 A 
ATOM     18  C   UNL     1       1.756  -0.763  -1.563  0.00  0.00    +0.005 A 
BRANCH  13  20
ATOM     19  C   UNL     1      -0.460   1.438  -0.518  0.00  0.00    +0.009 C 
ATOM     20  C   UNL     1      -0.430  -0.092  -0.544  0.00  0.00    +0.032 C 
ENDBRANCH  13  20
ENDBRANCH  10  16
ENDBRANCH   8  10
ENDBRANCH   1   8
BRANCH   4  21
ATOM     21  O   UNL     1       6.946   2.826  -3.464  0.00  0.00    -0.505 OA
ATOM     22  H   UNL     1       6.705   3.028  -2.549  0.00  0.00    +0.292 HD
ENDBRANCH   4  21
BRANCH   3  23
ATOM     23  S   UNL     1       4.731   4.239  -4.864  0.00  0.00    -0.047 S 
BRANCH  23  24
ATOM     24  C   UNL     1       5.934   4.800  -6.023  0.00  0.00    +0.189 A 
ATOM     25  H   UNL     1       5.747   6.874  -5.989  0.00  0.00    +0.191 HD
ATOM     26  N   UNL     1       6.743   4.040  -6.731  0.00  0.00    -0.209 NA
ATOM     27  C   UNL     1       7.517   4.803  -7.502  0.00  0.00    +0.245 A 
ATOM     28  N   UNL     1       7.218   6.058  -7.300  0.00  0.00    -0.160 NA
ATOM     29  N   UNL     1       6.188   6.087  -6.346  0.00  0.00    -0.254 N 
ENDBRANCH  23  24
ENDBRANCH   3  23
TORSDOF 7
