REMARK  Name = ZINC48866652
REMARK  5 active torsions:
REMARK  status: ('A' for Active; 'I' for Inactive)
REMARK    1  A    between atoms: C_1  and  C_2
REMARK    2  A    between atoms: C_5  and  N_21
REMARK    3  A    between atoms: C_7  and  C_8
REMARK    4  A    between atoms: N_12  and  C_13
REMARK    5  A    between atoms: C_13  and  C_14
REMARK                            x       y       z     vdW  Elec       q    Type
REMARK                         _______ _______ _______ _____ _____    ______ ____
ROOT
ATOM      1  C   UNL     1       0.025   0.023   2.493  0.00  0.00    +0.183 A 
ATOM      2  N   UNL     1       0.095   1.328   2.652  0.00  0.00    -0.108 NA
ATOM      3  N   UNL     1       0.073   1.631   3.900  0.00  0.00    -0.023 NA
ATOM      4  N   UNL     1      -0.011   0.565   4.619  0.00  0.00    -0.043 NA
ATOM      5  N   UNL     1      -0.051  -0.524   3.732  0.00  0.00    -0.221 N 
ENDROOT
BRANCH   1  12
ATOM      6  C   UNL     1      -0.081   1.501   0.011  0.00  0.00    +0.044 C 
ATOM      7  C   UNL     1      -0.027  -0.005   0.002  0.00  0.00    -0.040 A 
ATOM      8  C   UNL     1      -0.022  -0.689  -1.197  0.00  0.00    +0.006 A 
ATOM      9  C   UNL     1       0.028  -2.070  -1.210  0.00  0.00    +0.023 A 
ATOM     10  C   UNL     1       0.072  -2.779  -0.016  0.00  0.00    +0.025 A 
ATOM     11  C   UNL     1       0.068  -2.101   1.194  0.00  0.00    +0.034 A 
ATOM     12  C   UNL     1       0.024  -0.708   1.206  0.00  0.00    +0.025 A 
BRANCH  10  13
ATOM     13  N   UNL     1       0.121  -4.175  -0.034  0.00  0.00    -0.358 N 
ATOM     14  H   UNL     1       0.124  -4.650  -0.880  0.00  0.00    +0.142 HD
ATOM     15  H   UNL     1       0.153  -4.670   0.800  0.00  0.00    +0.142 HD
ENDBRANCH  10  13
ENDBRANCH   1  12
BRANCH   5  16
ATOM     16  C   UNL     1      -0.151  -1.946   4.071  0.00  0.00    +0.182 C 
BRANCH  16  17
ATOM     17  C   UNL     1      -0.334  -2.095   5.560  0.00  0.00    -0.025 A 
ATOM     18  C   UNL     1       0.768  -2.104   6.394  0.00  0.00    +0.005 A 
ATOM     19  C   UNL     1       0.601  -2.241   7.760  0.00  0.00    +0.001 A 
ATOM     20  C   UNL     1      -0.669  -2.368   8.291  0.00  0.00    +0.015 A 
ATOM     21  C   UNL     1      -1.772  -2.358   7.457  0.00  0.00    +0.018 A 
ATOM     22  C   UNL     1      -1.604  -2.216   6.091  0.00  0.00    +0.020 A 
ATOM     23 BR   UNL     1      -3.509  -2.534   8.183  0.00  0.00    -0.050 Br
ENDBRANCH  16  17
ENDBRANCH   5  16
TORSDOF 4
