REMARK  Name = ZINC20412765
REMARK  7 active torsions:
REMARK  status: ('A' for Active; 'I' for Inactive)
REMARK    1  A    between atoms: C_1  and  C_2
REMARK    2  A    between atoms: C_10  and  C_14
REMARK    3  A    between atoms: C_18  and  C_20
REMARK    4  A    between atoms: C_20  and  N_21
REMARK    5  A    between atoms: N_24  and  C_27
REMARK    6  A    between atoms: C_27  and  C_29
REMARK    7  A    between atoms: C_27  and  C_35
REMARK                            x       y       z     vdW  Elec       q    Type
REMARK                         _______ _______ _______ _____ _____    ______ ____
ROOT
ATOM      1  N   UNL     1       0.275   3.428  -0.424  0.00  0.00    +0.382 N 
ATOM      2  C   UNL     1       0.438   1.984  -0.646  0.00  0.00    -0.063 C 
ATOM      3  C   UNL     1       1.128   1.359   0.569  0.00  0.00    +0.067 C 
ATOM      4  N   UNL     1       0.324   1.616   1.772  0.00  0.00    -0.295 NA
ATOM      5  C   UNL     1       0.161   3.059   1.994  0.00  0.00    +0.067 C 
ATOM      6  C   UNL     1      -0.528   3.685   0.779  0.00  0.00    -0.063 C 
ATOM      7  H   UNL     1       1.274   3.862  -0.265  0.00  0.00    -0.082 HD
ENDROOT
BRANCH   1   8
ATOM      8  C   UNL     1      -0.316   4.079  -1.601  0.00  0.00    -0.064 C 
BRANCH   8  24
ATOM      9  C   UNL     1      -4.608   8.118  -2.859  0.00  0.00    +0.039 C 
ATOM     10  C   UNL     1      -3.407   8.823  -3.434  0.00  0.00    -0.073 C 
ATOM     11  C   UNL     1      -2.224   8.483  -3.019  0.00  0.00    -0.064 C 
ATOM     12  C   UNL     1      -2.091   7.368  -2.002  0.00  0.00    +0.039 C 
ATOM     13  C   UNL     1      -1.161   6.280  -2.542  0.00  0.00    +0.046 C 
ATOM     14  C   UNL     1       0.139   6.888  -3.109  0.00  0.00    +0.181 C 
ATOM     15  C   UNL     1      -0.073   8.011  -4.091  0.00  0.00    +0.056 C 
ATOM     16  C   UNL     1      -0.947   9.117  -3.495  0.00  0.00    -0.007 C 
ATOM     17  C   UNL     1      -1.164  10.228  -4.503  0.00  0.00    +0.011 C 
ATOM     18  C   UNL     1      -2.389   9.953  -5.374  0.00  0.00    +0.005 C 
ATOM     19  C   UNL     1      -3.623   9.895  -4.467  0.00  0.00    +0.030 C 
ATOM     20  C   UNL     1      -0.219   9.708  -2.286  0.00  0.00    +0.016 C 
ATOM     21  O   UNL     1       0.884   7.275  -1.921  0.00  0.00    -0.461 OA
ATOM     22  C   UNL     1       0.732   6.277  -1.020  0.00  0.00    +0.309 C 
ATOM     23  O   UNL     1       1.512   6.006  -0.138  0.00  0.00    -0.251 OA
ATOM     24  C   UNL     1      -0.574   5.554  -1.292  0.00  0.00    +0.088 C 
ENDBRANCH   8  24
ENDBRANCH   1   8
BRANCH   4  25
ATOM     25  C   UNL     1       0.916   0.965   2.949  0.00  0.00    +0.117 C 
BRANCH  25  26
ATOM     26  C   UNL     1       0.950  -0.526   2.735  0.00  0.00    -0.026 A 
ATOM     27  C   UNL     1      -0.134  -1.167   2.164  0.00  0.00    +0.007 A 
ATOM     28  C   UNL     1      -0.101  -2.534   1.962  0.00  0.00    +0.020 A 
ATOM     29  C   UNL     1       1.013  -3.262   2.341  0.00  0.00    +0.041 A 
ATOM     30  C   UNL     1       2.095  -2.621   2.917  0.00  0.00    +0.020 A 
ATOM     31  C   UNL     1       2.063  -1.253   3.113  0.00  0.00    +0.007 A 
ATOM     32 CL   UNL     1       1.053  -4.980   2.093  0.00  0.00    -0.084 Cl
ENDBRANCH  25  26
BRANCH  25  33
ATOM     33  C   UNL     1       0.085   1.279   4.167  0.00  0.00    -0.026 A 
ATOM     34  C   UNL     1      -1.294   1.212   4.098  0.00  0.00    +0.005 A 
ATOM     35  C   UNL     1      -2.056   1.495   5.217  0.00  0.00    +0.000 A 
ATOM     36  C   UNL     1      -1.439   1.854   6.400  0.00  0.00    +0.000 A 
ATOM     37  C   UNL     1      -0.060   1.926   6.467  0.00  0.00    +0.000 A 
ATOM     38  C   UNL     1       0.702   1.638   5.350  0.00  0.00    +0.005 A 
ENDBRANCH  25  33
ENDBRANCH   4  25
TORSDOF 5
