REMARK  Name = ZINC44737313
REMARK  7 active torsions:
REMARK  status: ('A' for Active; 'I' for Inactive)
REMARK    1  A    between atoms: C_1  and  C_2
REMARK    2  A    between atoms: C_9  and  C_11
REMARK    3  A    between atoms: C_11  and  C_13
REMARK    4  A    between atoms: C_11  and  N_14
REMARK    5  A    between atoms: C_15  and  C_17
REMARK    6  A    between atoms: C_28  and  C_30
REMARK    7  A    between atoms: C_36  and  C_38
REMARK                            x       y       z     vdW  Elec       q    Type
REMARK                         _______ _______ _______ _____ _____    ______ ____
ROOT
ATOM      1  C   UNL     1       1.878  -8.733   0.984  0.00  0.00    +0.100 C 
ATOM      2  C   UNL     1       2.964  -8.094   0.090  0.00  0.00    +0.121 C 
ATOM      3  N   UNL     1       4.235  -8.339   0.812  0.00  0.00    -0.300 N 
ATOM      4  C   UNL     1       4.091  -9.712   1.355  0.00  0.00    +0.115 C 
ATOM      5  C   UNL     1       2.621  -9.797   1.809  0.00  0.00    -0.004 C 
ATOM      6  C   UNL     1       2.057 -11.184   1.515  0.00  0.00    -0.010 C 
ATOM      7  C   UNL     1       2.772 -12.217   2.390  0.00  0.00    -0.082 C 
ATOM      8  N   UNL     1       2.580 -11.879   3.806  0.00  0.00    +0.379 N 
ATOM      9  C   UNL     1       3.207 -10.585   4.101  0.00  0.00    -0.082 C 
ATOM     10  C   UNL     1       2.511  -9.483   3.298  0.00  0.00    -0.010 C 
ATOM     11  C   UNL     1       5.284  -7.504   0.945  0.00  0.00    +0.219 C 
ATOM     12  O   UNL     1       6.262  -7.853   1.572  0.00  0.00    -0.275 OA
ATOM     13  H   UNL     1       1.592 -11.826   4.007  0.00  0.00    -0.086 HD
ATOM     14  H   UNL     1       2.999 -12.594   4.381  0.00  0.00    -0.086 HD
ENDROOT
BRANCH  11  15
ATOM     15  C   UNL     1       5.242  -6.135   0.315  0.00  0.00    +0.078 C 
ATOM     16  C   UNL     1       5.069  -6.276  -1.199  0.00  0.00    +0.032 C 
ATOM     17  C   UNL     1       4.992  -4.883  -1.831  0.00  0.00    +0.108 C 
ATOM     18  N   UNL     1       6.177  -4.114  -1.428  0.00  0.00    -0.302 N 
ATOM     19  C   UNL     1       6.488  -3.993   0.003  0.00  0.00    +0.108 C 
ATOM     20  C   UNL     1       6.548  -5.396   0.615  0.00  0.00    +0.032 C 
ATOM     21  C   UNL     1       6.965  -3.532  -2.353  0.00  0.00    +0.212 C 
ATOM     22  O   UNL     1       6.699  -3.640  -3.532  0.00  0.00    -0.276 OA
ATOM     23  C   UNL     1       8.178  -2.747  -1.924  0.00  0.00    +0.109 C 
ENDBRANCH  11  15
BRANCH   1  25
ATOM     24  N   UNL     1      -0.004  -7.836   2.315  0.00  0.00    -0.305 N 
ATOM     25  C   UNL     1       1.268  -7.697   1.892  0.00  0.00    +0.219 C 
ATOM     26  O   UNL     1       1.922  -6.737   2.242  0.00  0.00    -0.275 OA
ATOM     27  H   UNL     1      -0.527  -8.603   2.035  0.00  0.00    +0.149 HD
BRANCH  24  28
ATOM     28  C   UNL     1      -0.597  -6.828   3.197  0.00  0.00    +0.136 C 
ATOM     29  C   UNL     1      -0.234  -7.145   4.650  0.00  0.00    +0.036 C 
BRANCH  28  38
ATOM     30  C   UNL     1      -7.933  -5.626   2.835  0.00  0.00    +0.044 C 
ATOM     31  C   UNL     1      -6.582  -6.291   2.758  0.00  0.00    -0.048 A 
ATOM     32  C   UNL     1      -6.486  -7.610   2.340  0.00  0.00    +0.005 A 
ATOM     33  C   UNL     1      -5.271  -8.230   2.263  0.00  0.00    +0.030 A 
ATOM     34  C   UNL     1      -4.111  -7.533   2.608  0.00  0.00    +0.089 A 
ATOM     35  C   UNL     1      -4.207  -6.197   3.032  0.00  0.00    +0.067 A 
ATOM     36  C   UNL     1      -5.450  -5.582   3.099  0.00  0.00    +0.031 A 
ATOM     37  N   UNL     1      -2.916  -5.787   3.297  0.00  0.00    -0.340 N 
ATOM     38  C   UNL     1      -2.096  -6.841   3.040  0.00  0.00    +0.128 A 
ATOM     39  N   UNL     1      -2.794  -7.863   2.637  0.00  0.00    -0.231 NA
ATOM     40  H   UNL     1      -2.644  -4.910   3.610  0.00  0.00    +0.167 HD
ENDBRANCH  28  38
ENDBRANCH  24  28
ENDBRANCH   1  25
TORSDOF 4
