REMARK  Name = ZINC04889916
REMARK  8 active torsions:
REMARK  status: ('A' for Active; 'I' for Inactive)
REMARK    1  A    between atoms: C_1  and  C_2
REMARK    2  A    between atoms: C_7  and  C_8
REMARK    3  A    between atoms: C_8  and  C_10
REMARK    4  A    between atoms: C_14  and  N_15
REMARK    5  A    between atoms: C_16  and  C_18
REMARK    6  A    between atoms: C_18  and  N_62
REMARK    7  A    between atoms: C_19  and  N_62
REMARK    8  A    between atoms: C_20  and  N_62
REMARK                            x       y       z     vdW  Elec       q    Type
REMARK                         _______ _______ _______ _____ _____    ______ ____
ROOT
ATOM      1  C   UNL     1      -3.173   1.173   2.346  0.00  0.00    +0.054 A 
ATOM      2  C   UNL     1      -2.494   1.262   1.065  0.00  0.00    -0.024 A 
ATOM      3  C   UNL     1      -3.200   0.809   0.006  0.00  0.00    -0.005 A 
ATOM      4  S   UNL     1      -4.742   0.270   0.687  0.00  0.00    -0.077 S 
ATOM      5  C   UNL     1      -4.457   0.640   2.356  0.00  0.00    +0.083 A 
ATOM      6  C   UNL     1      -2.760   0.776  -1.425  0.00  0.00    +0.043 C 
ATOM      7  C   UNL     1      -1.528   1.680  -1.574  0.00  0.00    +0.005 C 
ATOM      8  C   UNL     1      -0.534   1.347  -0.457  0.00  0.00    +0.005 C 
ATOM      9  C   UNL     1      -1.088   1.819   0.888  0.00  0.00    +0.037 C 
ENDROOT
BRANCH   5  10
ATOM     10  N   UNL     1      -5.303   0.451   3.436  0.00  0.00    -0.281 N 
ATOM     11  C   UNL     1      -6.576   0.057   3.234  0.00  0.00    +0.201 C 
ATOM     12  O   UNL     1      -6.981  -0.132   2.107  0.00  0.00    -0.278 OA
ATOM     13  H   UNL     1      -4.979   0.601   4.338  0.00  0.00    +0.155 HD
BRANCH  11  14
ATOM     14  C   UNL     1      -7.497  -0.149   4.410  0.00  0.00    +0.019 C 
BRANCH  14  16
ATOM     15  C   UNL     1      -9.467   0.496   3.160  0.00  0.00    -0.095 C 
ATOM     16  N   UNL     1      -8.814  -0.597   3.911  0.00  0.00    +0.385 N 
ATOM     17  H   UNL     1      -8.679  -1.398   3.284  0.00  0.00    -0.081 HD
BRANCH  16  18
ATOM     18  C   UNL     1      -9.668  -1.012   5.043  0.00  0.00    -0.068 C 
ATOM     19  C   UNL     1      -9.005  -2.191   5.759  0.00  0.00    -0.015 C 
ATOM     20  C   UNL     1      -9.890  -2.647   6.920  0.00  0.00    -0.002 C 
ATOM     21  C   UNL     1     -11.255  -3.080   6.381  0.00  0.00    -0.000 C 
ATOM     22  C   UNL     1     -11.919  -1.902   5.665  0.00  0.00    -0.002 C 
ATOM     23  C   UNL     1     -11.033  -1.446   4.504  0.00  0.00    -0.015 C 
ENDBRANCH  16  18
ENDBRANCH  14  16
ENDBRANCH  11  14
ENDBRANCH   5  10
BRANCH   1  24
ATOM     24  C   UNL     1      -2.529   1.627   3.581  0.00  0.00    +0.196 C 
ATOM     25  O   UNL     1      -1.817   0.867   4.211  0.00  0.00    -0.287 OA
BRANCH  24  32
ATOM     26  C   UNL     1      -1.473   2.428   6.153  0.00  0.00    +0.044 C 
ATOM     27  C   UNL     1      -2.240   3.406   5.302  0.00  0.00    -0.040 A 
ATOM     28  C   UNL     1      -2.441   4.698   5.743  0.00  0.00    +0.004 A 
ATOM     29  C   UNL     1      -3.150   5.596   4.965  0.00  0.00    +0.000 A 
ATOM     30  C   UNL     1      -3.659   5.206   3.738  0.00  0.00    +0.001 A 
ATOM     31  C   UNL     1      -3.461   3.919   3.283  0.00  0.00    +0.012 A 
ATOM     32  C   UNL     1      -2.745   3.009   4.063  0.00  0.00    +0.025 A 
ENDBRANCH  24  32
ENDBRANCH   1  24
TORSDOF 6
