REMARK  Name = ZINC64678188
REMARK  9 active torsions:
REMARK  status: ('A' for Active; 'I' for Inactive)
REMARK    1  A    between atoms: C_1  and  C_2
REMARK    2  A    between atoms: C_2  and  C_3
REMARK    3  A    between atoms: C_2  and  C_4
REMARK    4  A    between atoms: C_7  and  C_10
REMARK    5  A    between atoms: N_12  and  C_13
REMARK    6  A    between atoms: N_12  and  C_14
REMARK    7  A    between atoms: C_14  and  C_15
REMARK    8  A    between atoms: C_15  and  C_16
REMARK    9  A    between atoms: C_19  and  C_22
REMARK                            x       y       z     vdW  Elec       q    Type
REMARK                         _______ _______ _______ _____ _____    ______ ____
ROOT
ATOM      1  C   UNL     1      -9.456  -1.907  -1.849  0.00  0.00    +0.139 C 
ATOM      2  N   UNL     1     -10.048  -2.993  -1.507  0.00  0.00    -0.072 NA
ATOM      3  O   UNL     1     -11.440  -2.911  -1.747  0.00  0.00    -0.367 OA
ATOM      4  C   UNL     1     -11.678  -1.606  -2.298  0.00  0.00    +0.318 C 
ATOM      5  N   UNL     1     -10.346  -0.982  -2.342  0.00  0.00    -0.291 N 
ATOM      6  H   UNL     1     -10.136  -0.089  -2.659  0.00  0.00    +0.151 HD
ENDROOT
BRANCH   4   7
ATOM      7  C   UNL     1     -12.270  -1.720  -3.705  0.00  0.00    +0.165 C 
ATOM      8  C   UNL     1     -11.360  -2.543  -4.588  0.00  0.00    +0.012 C 
ATOM      9  C   UNL     1     -12.088  -3.613  -4.982  0.00  0.00    -0.004 A 
ATOM     10  C   UNL     1     -11.779  -4.765  -5.838  0.00  0.00    +0.010 A 
ATOM     11  C   UNL     1     -12.735  -5.697  -6.054  0.00  0.00    +0.001 A 
ATOM     12  C   UNL     1     -14.010  -5.591  -5.482  0.00  0.00    +0.002 A 
ATOM     13  C   UNL     1     -14.368  -4.562  -4.685  0.00  0.00    +0.026 A 
ATOM     14  C   UNL     1     -13.441  -3.524  -4.390  0.00  0.00    +0.043 A 
ATOM     15  N   UNL     1     -13.548  -2.440  -3.659  0.00  0.00    -0.373 N 
ATOM     16  H   UNL     1     -14.338  -2.160  -3.170  0.00  0.00    +0.160 HD
ENDBRANCH   4   7
BRANCH   1  17
ATOM     17  C   UNL     1      -7.973  -1.672  -1.721  0.00  0.00    +0.094 C 
BRANCH  17  18
ATOM     18  C   UNL     1      -7.308  -2.920  -1.136  0.00  0.00    +0.115 C 
BRANCH  18  21
ATOM     19  C   UNL     1      -5.363  -2.166   0.123  0.00  0.00    +0.246 C 
ATOM     20  O   UNL     1      -6.091  -1.964   1.075  0.00  0.00    -0.270 OA
ATOM     21  N   UNL     1      -5.867  -2.691  -1.012  0.00  0.00    -0.300 N 
ATOM     22  C   UNL     1      -4.972  -3.034  -2.120  0.00  0.00    +0.132 C 
BRANCH  19  26
ATOM     23  C   UNL     1      -1.230  -1.218   0.372  0.00  0.00    -0.045 A 
ATOM     24  C   UNL     1      -1.634  -2.368  -0.282  0.00  0.00    +0.004 A 
ATOM     25  C   UNL     1      -2.975  -2.682  -0.366  0.00  0.00    +0.013 A 
ATOM     26  C   UNL     1      -3.924  -1.836   0.210  0.00  0.00    +0.037 A 
ATOM     27  C   UNL     1      -3.510  -0.677   0.868  0.00  0.00    +0.013 A 
ATOM     28  C   UNL     1      -2.165  -0.378   0.950  0.00  0.00    +0.004 A 
BRANCH  23  30
ATOM     29  C   UNL     1       0.975  -2.006   1.186  0.00  0.00    +0.012 C 
ATOM     30  C   UNL     1       0.236  -0.881   0.460  0.00  0.00    +0.013 C 
ATOM     31  C   UNL     1       0.809  -0.722  -0.950  0.00  0.00    +0.012 C 
ENDBRANCH  23  30
ENDBRANCH  19  26
ENDBRANCH  18  21
ENDBRANCH  17  18
ENDBRANCH   1  17
TORSDOF 6
