REMARK  Name = ZINC04601169
REMARK  6 active torsions:
REMARK  status: ('A' for Active; 'I' for Inactive)
REMARK    1  A    between atoms: C_1  and  N_2
REMARK    2  A    between atoms: C_3  and  C_5
REMARK    3  A    between atoms: C_5  and  N_21
REMARK    4  A    between atoms: C_6  and  C_7
REMARK    5  A    between atoms: N_19  and  C_20
REMARK    6  A    between atoms: C_22  and  C_24
REMARK                            x       y       z     vdW  Elec       q    Type
REMARK                         _______ _______ _______ _____ _____    ______ ____
ROOT
ATOM      1  C   UNL     1      -0.117   9.983   0.120  0.00  0.00    +0.097 C 
ATOM      2  C   UNL     1      -0.686   8.757   0.034  0.00  0.00    +0.036 C 
ENDROOT
BRANCH   2   3
ATOM      3  C   UNL     1       0.145   7.551   0.156  0.00  0.00    -0.022 A 
ATOM      4  C   UNL     1      -0.229   6.371  -0.504  0.00  0.00    +0.010 A 
ATOM      5  C   UNL     1       0.535   5.246  -0.397  0.00  0.00    +0.027 A 
ATOM      6  C   UNL     1       1.699   5.254   0.371  0.00  0.00    +0.050 A 
ATOM      7  C   UNL     1       2.083   6.430   1.037  0.00  0.00    +0.008 A 
ATOM      8  C   UNL     1       1.307   7.577   0.929  0.00  0.00    +0.018 A 
ATOM      9  C   UNL     1       3.335   6.116   1.751  0.00  0.00    +0.008 A 
ATOM     10  C   UNL     1       4.183   6.857   2.570  0.00  0.00    +0.010 A 
ATOM     11  C   UNL     1       5.306   6.265   3.107  0.00  0.00    +0.001 A 
ATOM     12  C   UNL     1       5.598   4.939   2.827  0.00  0.00    +0.002 A 
ATOM     13  C   UNL     1       4.767   4.194   2.018  0.00  0.00    +0.026 A 
ATOM     14  C   UNL     1       3.626   4.773   1.470  0.00  0.00    +0.050 A 
ATOM     15  N   UNL     1       2.635   4.275   0.643  0.00  0.00    -0.343 N 
ATOM     16  C   UNL     1       2.586   2.905   0.128  0.00  0.00    +0.149 C 
ENDBRANCH   2   3
BRANCH   1  19
ATOM     17  C   UNL     1       3.530   9.837  -0.903  0.00  0.00    +0.128 C 
ATOM     18  N   UNL     1       2.066   9.812  -0.957  0.00  0.00    -0.313 N 
ATOM     19  C   UNL     1       1.346  10.113   0.142  0.00  0.00    +0.258 C 
ATOM     20  O   UNL     1       1.908  10.492   1.153  0.00  0.00    -0.269 OA
ATOM     21  H   UNL     1       1.615   9.580  -1.783  0.00  0.00    +0.149 HD
ENDBRANCH   1  19
BRANCH   1  22
ATOM     22  N   UNL     1      -0.922  11.125   0.188  0.00  0.00    -0.277 N 
ATOM     23  C   UNL     1      -0.356  12.341   0.321  0.00  0.00    +0.248 C 
ATOM     24  O   UNL     1       0.854  12.454   0.304  0.00  0.00    -0.270 OA
ATOM     25  H   UNL     1      -1.887  11.042   0.140  0.00  0.00    +0.155 HD
BRANCH  23  26
ATOM     26  C   UNL     1      -1.208  13.538   0.489  0.00  0.00    +0.037 A 
ATOM     27  C   UNL     1      -2.598  13.413   0.504  0.00  0.00    +0.013 A 
ATOM     28  C   UNL     1      -3.386  14.533   0.664  0.00  0.00    +0.001 A 
ATOM     29  C   UNL     1      -2.803  15.780   0.801  0.00  0.00    +0.000 A 
ATOM     30  C   UNL     1      -1.425  15.912   0.782  0.00  0.00    +0.001 A 
ATOM     31  C   UNL     1      -0.625  14.799   0.627  0.00  0.00    +0.013 A 
ENDBRANCH  23  26
ENDBRANCH   1  22
TORSDOF 4
