REMARK  Name = ZINC40701969
REMARK  6 active torsions:
REMARK  status: ('A' for Active; 'I' for Inactive)
REMARK    1  A    between atoms: C_1  and  C_2
REMARK    2  A    between atoms: C_2  and  N_3
REMARK    3  A    between atoms: N_3  and  C_4
REMARK    4  A    between atoms: C_15  and  N_31
REMARK    5  A    between atoms: C_16  and  N_20
REMARK    6  A    between atoms: N_20  and  C_21
REMARK                            x       y       z     vdW  Elec       q    Type
REMARK                         _______ _______ _______ _____ _____    ______ ____
ROOT
ATOM      1  N   UNL     1       0.698  -0.568   1.159  0.00  0.00    -0.285 N 
ATOM      2  C   UNL     1       2.075  -0.712   1.025  0.00  0.00    +0.129 A 
ATOM      3  C   UNL     1       2.713  -0.345  -0.162  0.00  0.00    +0.104 A 
ATOM      4  C   UNL     1       4.097  -0.511  -0.244  0.00  0.00    +0.145 A 
ATOM      5  N   UNL     1       4.750  -1.008   0.804  0.00  0.00    -0.221 NA
ATOM      6  C   UNL     1       4.109  -1.341   1.906  0.00  0.00    +0.200 A 
ATOM      7  N   UNL     1       2.805  -1.196   2.027  0.00  0.00    -0.332 N 
ATOM      8  H   UNL     1       2.370  -1.450   2.856  0.00  0.00    +0.168 HD
ENDROOT
BRANCH   1   9
ATOM      9  C   UNL     1      -0.143  -1.653   0.920  0.00  0.00    +0.043 A 
ATOM     10  C   UNL     1      -0.637  -1.884  -0.346  0.00  0.00    +0.024 A 
ATOM     11  C   UNL     1      -1.478  -2.965  -0.596  0.00  0.00    +0.002 A 
ATOM     12  C   UNL     1      -1.835  -3.822   0.400  0.00  0.00    +0.008 A 
ATOM     13  C   UNL     1      -1.352  -3.623   1.704  0.00  0.00    -0.016 A 
ATOM     14  C   UNL     1      -0.491  -2.530   1.970  0.00  0.00    +0.003 A 
ATOM     15  C   UNL     1      -0.006  -2.335   3.273  0.00  0.00    +0.010 A 
ATOM     16  C   UNL     1      -0.364  -3.200   4.261  0.00  0.00    +0.001 A 
ATOM     17  C   UNL     1      -1.206  -4.279   4.000  0.00  0.00    +0.001 A 
ATOM     18  C   UNL     1      -1.704  -4.492   2.752  0.00  0.00    +0.008 A 
ENDBRANCH   1   9
BRANCH   3  19
ATOM     19  N   UNL     1       1.983   0.175  -1.242  0.00  0.00    -0.353 N 
ATOM     20  H   UNL     1       1.041   0.379  -1.138  0.00  0.00    +0.143 HD
ATOM     21  H   UNL     1       2.422   0.330  -2.094  0.00  0.00    +0.143 HD
ENDBRANCH   3  19
BRANCH   1  23
ATOM     22  C   UNL     1      -0.002   0.780   3.076  0.00  0.00    +0.025 C 
ATOM     23  C   UNL     1       0.132   0.725   1.553  0.00  0.00    +0.109 C 
ENDBRANCH   1  23
BRANCH   4  24
ATOM     24  N   UNL     1       4.782  -0.162  -1.401  0.00  0.00    -0.322 N 
ATOM     25  H   UNL     1       4.298   0.199  -2.161  0.00  0.00    +0.148 HD
BRANCH  24  26
ATOM     26  C   UNL     1       6.234  -0.340  -1.475  0.00  0.00    +0.034 C 
ATOM     27  C   UNL     1       6.577  -1.817  -1.273  0.00  0.00    +0.029 C 
ATOM     28  C   UNL     1       8.094  -2.003  -1.350  0.00  0.00    -0.008 C 
ATOM     29  C   UNL     1       8.595  -1.547  -2.722  0.00  0.00    +0.007 C 
ATOM     30  C   UNL     1       8.252  -0.069  -2.924  0.00  0.00    -0.008 C 
ATOM     31  C   UNL     1       6.735   0.117  -2.847  0.00  0.00    +0.029 C 
ATOM     32  C   UNL     1       8.924   0.765  -1.832  0.00  0.00    +0.007 C 
ATOM     33  C   UNL     1       8.423   0.308  -0.460  0.00  0.00    -0.008 C 
ATOM     34  C   UNL     1       8.767  -1.169  -0.258  0.00  0.00    +0.007 C 
ATOM     35  C   UNL     1       6.906   0.494  -0.383  0.00  0.00    +0.029 C 
ENDBRANCH  24  26
ENDBRANCH   4  24
TORSDOF 5
