REMARK  Name = ZINC22567511
REMARK  7 active torsions:
REMARK  status: ('A' for Active; 'I' for Inactive)
REMARK    1  A    between atoms: C_4  and  O_7
REMARK    2  A    between atoms: O_7  and  C_8
REMARK    3  A    between atoms: C_11  and  N_14
REMARK    4  A    between atoms: C_18  and  N_22
REMARK    5  A    between atoms: N_22  and  C_23
REMARK    6  A    between atoms: C_23  and  C_24
REMARK    7  A    between atoms: C_24  and  C_25
REMARK                            x       y       z     vdW  Elec       q    Type
REMARK                         _______ _______ _______ _____ _____    ______ ____
ROOT
ATOM      1  N   UNL     1       5.964   6.160   0.396  0.00  0.00    -0.212 N 
ATOM      2  C   UNL     1       6.035   7.480   0.607  0.00  0.00    +0.225 C 
ATOM      3  O   UNL     1       5.085   8.223   0.735  0.00  0.00    -0.275 OA
ATOM      4  C   UNL     1       7.488   7.898   0.659  0.00  0.00    +0.090 C 
ATOM      5  C   UNL     1       8.253   6.577   0.441  0.00  0.00    +0.026 C 
ATOM      6  C   UNL     1       7.151   5.550   0.293  0.00  0.00    +0.213 C 
ATOM      7  O   UNL     1       7.317   4.364   0.108  0.00  0.00    -0.277 OA
ENDROOT
BRANCH   1  11
ATOM      8  C   UNL     1       2.341   4.113   0.103  0.00  0.00    +0.129 A 
ATOM      9  C   UNL     1       2.960   4.253   1.337  0.00  0.00    +0.048 A 
ATOM     10  C   UNL     1       4.162   4.925   1.433  0.00  0.00    +0.027 A 
ATOM     11  C   UNL     1       4.745   5.471   0.297  0.00  0.00    +0.044 A 
ATOM     12  C   UNL     1       4.122   5.336  -0.936  0.00  0.00    +0.027 A 
ATOM     13  C   UNL     1       2.923   4.658  -1.032  0.00  0.00    +0.048 A 
BRANCH   8  14
ATOM     14  O   UNL     1       1.160   3.446   0.008  0.00  0.00    -0.456 OA
BRANCH  14  18
ATOM     15  C   UNL     1       1.233  -0.670   0.283  0.00  0.00    +0.000 A 
ATOM     16  C   UNL     1       2.418   0.042   0.265  0.00  0.00    +0.004 A 
ATOM     17  C   UNL     1       2.397   1.420   0.172  0.00  0.00    +0.046 A 
ATOM     18  C   UNL     1       1.184   2.090   0.098  0.00  0.00    +0.128 A 
ATOM     19  C   UNL     1      -0.004   1.374   0.116  0.00  0.00    +0.046 A 
ATOM     20  C   UNL     1       0.023  -0.004   0.209  0.00  0.00    +0.004 A 
ENDBRANCH  14  18
ENDBRANCH   8  14
ENDBRANCH   1  11
BRANCH   5  21
ATOM     21  N   UNL     1       9.070   6.648  -0.777  0.00  0.00    +0.387 N 
ATOM     22  H   UNL     1       8.454   6.384  -1.649  0.00  0.00    -0.085 HD
ATOM     23  H   UNL     1       9.458   7.670  -0.899  0.00  0.00    -0.085 HD
BRANCH  21  24
ATOM     24  C   UNL     1      10.206   5.719  -0.704  0.00  0.00    -0.077 C 
BRANCH  24  25
ATOM     25  C   UNL     1      11.032   5.822  -1.988  0.00  0.00    +0.018 C 
BRANCH  25  26
ATOM     26  C   UNL     1      12.197   4.869  -1.913  0.00  0.00    -0.024 A 
ATOM     27  C   UNL     1      13.444   5.162  -1.509  0.00  0.00    +0.087 A 
ATOM     28  N   UNL     1      14.230   4.044  -1.576  0.00  0.00    -0.360 N 
ATOM     29  H   UNL     1      15.288   4.098  -1.281  0.00  0.00    +0.165 HD
ATOM     30  C   UNL     1      13.490   2.977  -2.035  0.00  0.00    +0.047 A 
ATOM     31  C   UNL     1      12.182   3.446  -2.261  0.00  0.00    +0.004 A 
ATOM     32  C   UNL     1      11.203   2.575  -2.742  0.00  0.00    +0.030 A 
ATOM     33  C   UNL     1      11.521   1.257  -2.981  0.00  0.00    +0.042 A 
ATOM     34  C   UNL     1      12.811   0.793  -2.753  0.00  0.00    +0.022 A 
ATOM     35  C   UNL     1      13.789   1.642  -2.284  0.00  0.00    +0.027 A 
ATOM     36 CL   UNL     1      10.305   0.169  -3.572  0.00  0.00    -0.084 Cl
ENDBRANCH  25  26
ENDBRANCH  24  25
ENDBRANCH  21  24
ENDBRANCH   5  21
TORSDOF 7
