REMARK  Name = ZINC40661875
REMARK  8 active torsions:
REMARK  status: ('A' for Active; 'I' for Inactive)
REMARK    1  A    between atoms: C_1  and  C_2
REMARK    2  A    between atoms: C_2  and  N_3
REMARK    3  A    between atoms: N_3  and  C_4
REMARK    4  A    between atoms: C_8  and  C_10
REMARK    5  A    between atoms: C_12  and  N_28
REMARK    6  A    between atoms: C_13  and  N_17
REMARK    7  A    between atoms: N_17  and  N_18
REMARK    8  A    between atoms: C_19  and  C_21
REMARK                            x       y       z     vdW  Elec       q    Type
REMARK                         _______ _______ _______ _____ _____    ______ ____
ROOT
ATOM      1  N   UNL     1       0.685  -0.472  -1.201  0.00  0.00    -0.284 N 
ATOM      2  C   UNL     1      -0.121  -0.677  -2.315  0.00  0.00    +0.151 A 
ATOM      3  C   UNL     1      -1.485  -0.381  -2.268  0.00  0.00    +0.107 A 
ATOM      4  C   UNL     1      -2.248  -0.606  -3.414  0.00  0.00    +0.161 A 
ATOM      5  N   UNL     1      -1.652  -1.091  -4.501  0.00  0.00    -0.217 NA
ATOM      6  C   UNL     1      -0.362  -1.357  -4.504  0.00  0.00    +0.225 A 
ATOM      7  N   UNL     1       0.396  -1.155  -3.445  0.00  0.00    -0.218 NA
ENDROOT
BRANCH   1   8
ATOM      8  C   UNL     1       0.941  -1.526  -0.320  0.00  0.00    +0.035 A 
ATOM      9  C   UNL     1       1.656  -1.297   0.850  0.00  0.00    +0.023 A 
ATOM     10  C   UNL     1       1.907  -2.340   1.719  0.00  0.00    +0.002 A 
ATOM     11  C   UNL     1       1.447  -3.612   1.426  0.00  0.00    +0.003 A 
ATOM     12  C   UNL     1       0.736  -3.843   0.263  0.00  0.00    -0.049 A 
ATOM     13  C   UNL     1       0.477  -2.802  -0.608  0.00  0.00    +0.026 A 
ATOM     14  C   UNL     1       0.237  -5.230  -0.051  0.00  0.00    +0.044 C 
ENDBRANCH   1   8
BRANCH   3  15
ATOM     15  N   UNL     1      -2.072   0.129  -1.098  0.00  0.00    -0.353 N 
ATOM     16  H   UNL     1      -1.546   0.210  -0.287  0.00  0.00    +0.143 HD
ATOM     17  H   UNL     1      -3.003   0.399  -1.102  0.00  0.00    +0.143 HD
ENDBRANCH   3  15
BRANCH   1  19
ATOM     18  C   UNL     1       2.686   0.898  -1.522  0.00  0.00    +0.025 C 
ATOM     19  C   UNL     1       1.267   0.850  -0.952  0.00  0.00    +0.109 C 
ENDBRANCH   1  19
BRANCH   4  20
ATOM     20  N   UNL     1      -3.610  -0.328  -3.421  0.00  0.00    -0.247 N 
ATOM     21  H   UNL     1      -4.037   0.024  -2.624  0.00  0.00    +0.172 HD
BRANCH  20  22
ATOM     22  N   UNL     1      -4.366  -0.558  -4.578  0.00  0.00    -0.231 N 
ATOM     23  C   UNL     1      -5.687  -0.289  -4.584  0.00  0.00    +0.261 C 
ATOM     24  O   UNL     1      -6.222   0.153  -3.586  0.00  0.00    -0.269 OA
ATOM     25  H   UNL     1      -3.940  -0.911  -5.374  0.00  0.00    +0.173 HD
BRANCH  23  26
ATOM     26  C   UNL     1      -6.485  -0.531  -5.804  0.00  0.00    +0.052 A 
ATOM     27  C   UNL     1      -5.875  -1.044  -6.950  0.00  0.00    +0.014 A 
ATOM     28  C   UNL     1      -6.625  -1.269  -8.086  0.00  0.00    +0.001 A 
ATOM     29  C   UNL     1      -7.980  -0.987  -8.091  0.00  0.00    +0.001 A 
ATOM     30  C   UNL     1      -8.591  -0.478  -6.960  0.00  0.00    +0.016 A 
ATOM     31  C   UNL     1      -7.853  -0.254  -5.814  0.00  0.00    +0.030 A 
ATOM     32 BR   UNL     1      -8.693   0.435  -4.266  0.00  0.00    -0.050 Br
ENDBRANCH  23  26
ENDBRANCH  20  22
ENDBRANCH   4  20
TORSDOF 6
