REMARK  Name = ZINC39352666
REMARK  7 active torsions:
REMARK  status: ('A' for Active; 'I' for Inactive)
REMARK    1  A    between atoms: C_2  and  C_3
REMARK    2  A    between atoms: C_3  and  N_4
REMARK    3  A    between atoms: C_7  and  C_9
REMARK    4  A    between atoms: C_18  and  N_22
REMARK    5  A    between atoms: N_22  and  C_23
REMARK    6  A    between atoms: C_23  and  C_24
REMARK    7  A    between atoms: C_24  and  N_29
REMARK                            x       y       z     vdW  Elec       q    Type
REMARK                         _______ _______ _______ _____ _____    ______ ____
ROOT
ATOM      1  N   UNL     1       1.743  -0.933  -0.069  0.00  0.00    -0.264 N 
ATOM      2  C   UNL     1       2.297  -0.836   1.151  0.00  0.00    +0.043 A 
ATOM      3  C   UNL     1       2.087  -2.018   1.782  0.00  0.00    +0.004 A 
ATOM      4  C   UNL     1       1.377  -2.820   0.873  0.00  0.00    +0.151 A 
ATOM      5  N   UNL     1       1.203  -2.093  -0.218  0.00  0.00    -0.166 NA
ATOM      6  C   UNL     1       2.553  -2.336   3.176  0.00  0.00    +0.023 C 
ATOM      7  C   UNL     1       3.615  -1.303   3.577  0.00  0.00    -0.067 C 
ATOM      8  C   UNL     1       3.092   0.106   3.286  0.00  0.00    -0.009 C 
ATOM      9  C   UNL     1       3.026   0.329   1.770  0.00  0.00    +0.054 C 
ENDROOT
BRANCH   4  10
ATOM     10  C   UNL     1       0.910  -4.203   1.095  0.00  0.00    +0.267 C 
ATOM     11  O   UNL     1       1.037  -4.719   2.189  0.00  0.00    -0.268 OA
ATOM     12  N   UNL     1       0.342  -4.893   0.086  0.00  0.00    -0.292 N 
ATOM     13  C   UNL     1       0.309  -4.348  -1.280  0.00  0.00    +0.136 C 
ATOM     14  C   UNL     1       0.844  -5.416  -2.240  0.00  0.00    +0.179 C 
ATOM     15  O   UNL     1       0.133  -6.638  -2.027  0.00  0.00    -0.377 OA
ATOM     16  C   UNL     1       0.300  -7.192  -0.720  0.00  0.00    +0.179 C 
ATOM     17  C   UNL     1      -0.257  -6.217   0.317  0.00  0.00    +0.136 C 
ENDBRANCH   4  10
BRANCH   7  18
ATOM     18  N   UNL     1       3.905  -1.431   5.011  0.00  0.00    +0.380 N 
ATOM     19  H   UNL     1       3.083  -1.189   5.543  0.00  0.00    -0.086 HD
ATOM     20  H   UNL     1       4.172  -2.382   5.217  0.00  0.00    -0.086 HD
BRANCH  18  21
ATOM     21  C   UNL     1       5.005  -0.526   5.370  0.00  0.00    -0.095 C 
BRANCH  21  22
ATOM     22  C   UNL     1       5.381  -0.738   6.838  0.00  0.00    -0.081 C 
ATOM     23  C   UNL     1       4.216  -0.299   7.750  0.00  0.00    -0.014 C 
ATOM     24  C   UNL     1       4.914   0.346   8.973  0.00  0.00    -0.001 C 
ATOM     25  C   UNL     1       6.110   1.091   8.331  0.00  0.00    -0.001 C 
ATOM     26  C   UNL     1       6.585   0.146   7.207  0.00  0.00    -0.014 C 
BRANCH  22  27
ATOM     27  N   UNL     1       5.703  -2.151   7.076  0.00  0.00    +0.382 N 
ATOM     28  C   UNL     1       6.151  -2.323   8.463  0.00  0.00    -0.078 C 
ATOM     29  C   UNL     1       6.410  -3.805   8.740  0.00  0.00    -0.019 C 
ATOM     30  C   UNL     1       7.494  -4.315   7.785  0.00  0.00    -0.004 C 
ATOM     31  C   UNL     1       7.048  -4.063   6.341  0.00  0.00    -0.019 C 
ATOM     32  C   UNL     1       6.765  -2.571   6.154  0.00  0.00    -0.078 C 
ATOM     33  H   UNL     1       4.880  -2.713   6.919  0.00  0.00    -0.081 HD
ENDBRANCH  22  27
ENDBRANCH  21  22
ENDBRANCH  18  21
ENDBRANCH   7  18
BRANCH   1  34
ATOM     34  C   UNL     1       1.746   0.128  -1.079  0.00  0.00    +0.170 C 
BRANCH  34  36
ATOM     35  C   UNL     1       0.654   2.287  -0.750  0.00  0.00    +0.006 C 
ATOM     36  C   UNL     1       0.524   0.993  -0.903  0.00  0.00    -0.012 C 
ENDBRANCH  34  36
ENDBRANCH   1  34
TORSDOF 7
