REMARK  Name = ZINC43212497
REMARK  14 active torsions:
REMARK  status: ('A' for Active; 'I' for Inactive)
REMARK    1  A    between atoms: C_1  and  C_2
REMARK    2  A    between atoms: C_3  and  C_34
REMARK    3  A    between atoms: C_5  and  C_21
REMARK    4  A    between atoms: N_6  and  C_7
REMARK    5  A    between atoms: C_7  and  C_8
REMARK    6  A    between atoms: C_8  and  C_9
REMARK    7  A    between atoms: C_9  and  C_10
REMARK    8  A    between atoms: C_10  and  C_11
REMARK    9  A    between atoms: C_11  and  C_13
REMARK   10  A    between atoms: C_11  and  N_17
REMARK   11  A    between atoms: C_13  and  O_15
REMARK   12  A    between atoms: O_15  and  C_16
REMARK   13  A    between atoms: C_18  and  C_20
REMARK   14  A    between atoms: C_24  and  C_26
REMARK                            x       y       z     vdW  Elec       q    Type
REMARK                         _______ _______ _______ _____ _____    ______ ____
ROOT
ATOM      1  C   UNL     1       0.379   1.470  -0.246  0.00  0.00    +0.064 C 
ATOM      2  C   UNL     1       0.177  -0.018  -0.110  0.00  0.00    +0.028 A 
ATOM      3  C   UNL     1      -0.087  -0.894  -1.139  0.00  0.00    +0.058 A 
ATOM      4  C   UNL     1      -0.202  -2.187  -0.564  0.00  0.00    +0.042 A 
ATOM      5  C   UNL     1      -0.005  -2.047   0.772  0.00  0.00    +0.069 A 
ATOM      6  N   UNL     1       0.231  -0.721   1.040  0.00  0.00    -0.342 N 
ENDROOT
BRANCH   5   7
ATOM      7  C   UNL     1      -0.035  -3.139   1.770  0.00  0.00    +0.095 A 
ATOM      8  C   UNL     1       0.050  -2.856   3.110  0.00  0.00    +0.077 A 
ATOM      9  S   UNL     1      -0.035  -4.503   3.802  0.00  0.00    -0.075 S 
ATOM     10  C   UNL     1      -0.173  -5.388   2.255  0.00  0.00    +0.109 A 
ATOM     11  N   UNL     1      -0.149  -4.396   1.379  0.00  0.00    -0.238 NA
BRANCH  10  12
ATOM     12  C   UNL     1      -0.288  -6.843   2.017  0.00  0.00    +0.009 A 
ATOM     13  C   UNL     1      -0.380  -7.334   0.714  0.00  0.00    +0.013 A 
ATOM     14  C   UNL     1      -0.487  -8.691   0.496  0.00  0.00    +0.040 A 
ATOM     15  C   UNL     1      -0.505  -9.568   1.569  0.00  0.00    +0.142 A 
ATOM     16  C   UNL     1      -0.414  -9.086   2.866  0.00  0.00    +0.077 A 
ATOM     17  C   UNL     1      -0.301  -7.729   3.094  0.00  0.00    +0.033 A 
ATOM     18 CL   UNL     1      -0.438 -10.191   4.205  0.00  0.00    -0.081 Cl
ATOM     19  F   UNL     1      -0.611 -10.897   1.351  0.00  0.00    -0.204 F 
ENDBRANCH  10  12
ENDBRANCH   5   7
BRANCH   3  20
ATOM     20  C   UNL     1      -0.225  -0.554  -2.566  0.00  0.00    +0.243 C 
ATOM     21  O   UNL     1      -0.104   0.600  -2.931  0.00  0.00    -0.270 OA
ATOM     22  N   UNL     1      -0.487  -1.521  -3.467  0.00  0.00    -0.325 N 
ATOM     23  H   UNL     1      -0.584  -2.442  -3.176  0.00  0.00    +0.145 HD
ATOM     24  H   UNL     1      -0.578  -1.298  -4.407  0.00  0.00    +0.145 HD
ENDBRANCH   3  20
BRANCH   6  25
ATOM     25  C   UNL     1       0.496  -0.159   2.367  0.00  0.00    +0.122 C 
BRANCH  25  26
ATOM     26  C   UNL     1      -0.831   0.108   3.082  0.00  0.00    +0.022 C 
BRANCH  26  27
ATOM     27  C   UNL     1      -0.554   0.695   4.467  0.00  0.00    +0.004 C 
BRANCH  27  28
ATOM     28  C   UNL     1      -1.880   0.962   5.182  0.00  0.00    +0.034 C 
BRANCH  28  29
ATOM     29  C   UNL     1      -1.604   1.549   6.568  0.00  0.00    +0.182 C 
BRANCH  29  30
ATOM     30  N   UNL     1      -0.912   0.554   7.391  0.00  0.00    -0.303 N 
ATOM     31  C   UNL     1      -1.500  -0.631   7.651  0.00  0.00    +0.211 C 
ATOM     32  O   UNL     1      -2.601  -0.873   7.204  0.00  0.00    -0.276 OA
ATOM     33  C   UNL     1      -0.789  -1.655   8.498  0.00  0.00    +0.109 C 
ATOM     34  H   UNL     1      -0.032   0.747   7.749  0.00  0.00    +0.149 HD
ENDBRANCH  29  30
BRANCH  29  35
ATOM     35  C   UNL     1      -2.908   1.925   7.223  0.00  0.00    +0.327 C 
ATOM     36  O   UNL     1      -3.404   1.192   8.045  0.00  0.00    -0.249 OA
BRANCH  35  37
ATOM     37  O   UNL     1      -3.517   3.075   6.894  0.00  0.00    -0.467 OA
ATOM     38  C   UNL     1      -4.750   3.368   7.555  0.00  0.00    +0.280 C 
ENDBRANCH  35  37
ENDBRANCH  29  35
ENDBRANCH  28  29
ENDBRANCH  27  28
ENDBRANCH  26  27
ENDBRANCH  25  26
ENDBRANCH   6  25
TORSDOF 11
