REMARK  Name = ZINC59392030
REMARK  7 active torsions:
REMARK  status: ('A' for Active; 'I' for Inactive)
REMARK    1  A    between atoms: C_8  and  S_10
REMARK    2  A    between atoms: S_10  and  C_11
REMARK    3  A    between atoms: C_14  and  C_20
REMARK    4  A    between atoms: C_16  and  N_17
REMARK    5  A    between atoms: N_21  and  N_22
REMARK    6  A    between atoms: N_22  and  C_23
REMARK    7  A    between atoms: C_23  and  N_25
REMARK                            x       y       z     vdW  Elec       q    Type
REMARK                         _______ _______ _______ _____ _____    ______ ____
ROOT
ATOM      1  C   UNL     1       5.137  -4.298  -1.601  0.00  0.00    +0.045 A 
ATOM      2  C   UNL     1       6.054  -3.260  -1.734  0.00  0.00    +0.018 A 
ATOM      3  C   UNL     1       7.326  -3.393  -1.224  0.00  0.00    +0.011 A 
ATOM      4  C   UNL     1       7.696  -4.574  -0.573  0.00  0.00    -0.003 A 
ATOM      5  C   UNL     1       6.772  -5.614  -0.441  0.00  0.00    +0.043 A 
ATOM      6  C   UNL     1       5.500  -5.471  -0.948  0.00  0.00    +0.141 A 
ENDROOT
BRANCH   6   7
ATOM      7  N   UNL     1       4.517  -6.573  -0.803  0.00  0.00    +0.058 N 
ATOM      8  O   UNL     1       4.831  -7.593  -0.236  0.00  0.00    -0.126 OA
ATOM      9  O   UNL     1       3.401  -6.450  -1.252  0.00  0.00    -0.126 OA
ENDBRANCH   6   7
BRANCH   4  10
ATOM     10  C   UNL     1       9.057  -4.720  -0.026  0.00  0.00    +0.138 C 
ATOM     11  N   UNL     1       9.776  -3.667   0.217  0.00  0.00    -0.188 NA
BRANCH  11  12
ATOM     12  N   UNL     1       9.168  -2.408   0.301  0.00  0.00    -0.219 N 
ATOM     13  H   UNL     1       8.200  -2.335   0.289  0.00  0.00    +0.176 HD
BRANCH  12  14
ATOM     14  C   UNL     1       9.926  -1.298   0.398  0.00  0.00    +0.147 C 
ATOM     15  S   UNL     1       9.183   0.241   0.500  0.00  0.00    -0.017 S 
BRANCH  14  16
ATOM     16  N   UNL     1      11.270  -1.400   0.414  0.00  0.00    -0.339 N 
ATOM     17  H   UNL     1      11.691  -2.272   0.356  0.00  0.00    +0.144 HD
ATOM     18  H   UNL     1      11.816  -0.601   0.484  0.00  0.00    +0.144 HD
ENDBRANCH  14  16
ENDBRANCH  12  14
ENDBRANCH  11  12
ENDBRANCH   4  10
BRANCH   1  19
ATOM     19  S   UNL     1       3.510  -4.122  -2.254  0.00  0.00    -0.060 S 
BRANCH  19  27
ATOM     20  C   UNL     1       2.011  -7.464  -7.553  0.00  0.00    +0.002 A 
ATOM     21  C   UNL     1       3.302  -7.939  -7.729  0.00  0.00    +0.001 A 
ATOM     22  C   UNL     1       4.287  -7.571  -6.831  0.00  0.00    +0.017 A 
ATOM     23  C   UNL     1       3.973  -6.744  -5.782  0.00  0.00    +0.040 A 
ATOM     24  C   UNL     1       2.670  -6.241  -5.571  0.00  0.00    +0.079 A 
ATOM     25  C   UNL     1       1.688  -6.637  -6.509  0.00  0.00    +0.029 A 
ATOM     26  N   UNL     1       2.519  -5.439  -4.495  0.00  0.00    -0.232 NA
ATOM     27  C   UNL     1       3.515  -5.141  -3.692  0.00  0.00    +0.140 A 
ATOM     28  S   UNL     1       4.878  -6.032  -4.429  0.00  0.00    -0.061 S 
ENDBRANCH  19  27
ENDBRANCH   1  19
TORSDOF 7
