REMARK  Name = ZINC12502497
REMARK  7 active torsions:
REMARK  status: ('A' for Active; 'I' for Inactive)
REMARK    1  A    between atoms: C_4  and  C_7
REMARK    2  A    between atoms: C_7  and  C_8
REMARK    3  A    between atoms: C_7  and  C_14
REMARK    4  A    between atoms: N_16  and  N_17
REMARK    5  A    between atoms: N_17  and  C_18
REMARK    6  A    between atoms: C_18  and  N_20
REMARK    7  A    between atoms: C_21  and  C_23
REMARK                            x       y       z     vdW  Elec       q    Type
REMARK                         _______ _______ _______ _____ _____    ______ ____
ROOT
ATOM      1  N   UNL     1      -0.482  -2.847   2.425  0.00  0.00    -0.246 N 
ATOM      2  H   UNL     1      -0.839  -2.390   3.203  0.00  0.00    +0.172 HD
ENDROOT
BRANCH   1   5
ATOM      3  C   UNL     1      -0.345  -0.786   1.243  0.00  0.00    +0.241 C 
ATOM      4  O   UNL     1      -0.791  -0.214   2.215  0.00  0.00    -0.273 OA
ATOM      5  N   UNL     1      -0.159  -2.121   1.272  0.00  0.00    -0.234 N 
ATOM      6  H   UNL     1       0.198  -2.578   0.495  0.00  0.00    +0.173 HD
BRANCH   3   7
ATOM      7  C   UNL     1       0.002  -0.004   0.002  0.00  0.00    +0.136 C 
BRANCH   7  11
ATOM      8  C   UNL     1      -0.846   4.133   0.642  0.00  0.00    +0.000 A 
ATOM      9  C   UNL     1       0.406   3.744   0.204  0.00  0.00    +0.000 A 
ATOM     10  C   UNL     1       0.680   2.405  -0.003  0.00  0.00    +0.005 A 
ATOM     11  C   UNL     1      -0.297   1.456   0.228  0.00  0.00    -0.031 A 
ATOM     12  C   UNL     1      -1.551   1.845   0.661  0.00  0.00    +0.005 A 
ATOM     13  C   UNL     1      -1.824   3.183   0.873  0.00  0.00    +0.000 A 
ENDBRANCH   7  11
BRANCH   7  14
ATOM     14  C   UNL     1      -0.817  -0.511  -1.157  0.00  0.00    -0.031 A 
ATOM     15  C   UNL     1      -2.184  -0.668  -1.021  0.00  0.00    +0.005 A 
ATOM     16  C   UNL     1      -2.936  -1.129  -2.086  0.00  0.00    +0.000 A 
ATOM     17  C   UNL     1      -2.320  -1.442  -3.283  0.00  0.00    +0.000 A 
ATOM     18  C   UNL     1      -0.952  -1.291  -3.417  0.00  0.00    +0.000 A 
ATOM     19  C   UNL     1      -0.201  -0.825  -2.354  0.00  0.00    +0.005 A 
ENDBRANCH   7  14
ENDBRANCH   3   7
ENDBRANCH   1   5
BRANCH   1  20
ATOM     20  C   UNL     1      -0.296  -4.182   2.455  0.00  0.00    +0.153 C 
ATOM     21  S   UNL     1      -0.690  -5.070   3.864  0.00  0.00    -0.017 S 
BRANCH  20  22
ATOM     22  N   UNL     1       0.200  -4.817   1.375  0.00  0.00    -0.262 N 
ATOM     23  C   UNL     1       0.386  -6.152   1.404  0.00  0.00    +0.258 C 
ATOM     24  O   UNL     1       0.105  -6.783   2.406  0.00  0.00    -0.269 OA
ATOM     25  H   UNL     1       0.423  -4.314   0.576  0.00  0.00    +0.157 HD
BRANCH  23  26
ATOM     26  C   UNL     1       0.925  -6.844   0.228  0.00  0.00    +0.094 A 
ATOM     27  C   UNL     1       1.186  -8.171   0.070  0.00  0.00    +0.068 A 
ATOM     28  C   UNL     1       1.704  -8.642  -1.151  0.00  0.00    +0.008 A 
ATOM     29  C   UNL     1       2.033  -9.975  -1.509  0.00  0.00    +0.010 A 
ATOM     30  C   UNL     1       2.534 -10.261  -2.738  0.00  0.00    +0.001 A 
ATOM     31  C   UNL     1       2.742  -9.268  -3.689  0.00  0.00    +0.001 A 
ATOM     32  C   UNL     1       2.435  -7.958  -3.382  0.00  0.00    +0.016 A 
ATOM     33  C   UNL     1       1.926  -7.653  -2.138  0.00  0.00    +0.021 A 
ATOM     34  S   UNL     1       1.410  -6.152  -1.344  0.00  0.00    -0.082 S 
ATOM     35 CL   UNL     1       0.875  -9.279   1.369  0.00  0.00    -0.082 Cl
ENDBRANCH  23  26
ENDBRANCH  20  22
ENDBRANCH   1  20
TORSDOF 7
