REMARK  Name = ZINC08668217
REMARK  7 active torsions:
REMARK  status: ('A' for Active; 'I' for Inactive)
REMARK    1  A    between atoms: C_1  and  C_2
REMARK    2  A    between atoms: C_2  and  C_4
REMARK    3  A    between atoms: C_2  and  O_18
REMARK    4  A    between atoms: C_9  and  C_12
REMARK    5  A    between atoms: O_18  and  C_19
REMARK    6  A    between atoms: C_19  and  C_21
REMARK    7  A    between atoms: N_30  and  C_32
REMARK                            x       y       z     vdW  Elec       q    Type
REMARK                         _______ _______ _______ _____ _____    ______ ____
ROOT
ATOM      1  C   UNL     1      -3.695   3.247  -0.665  0.00  0.00    +0.361 C 
ATOM      2  O   UNL     1      -3.747   2.034  -0.704  0.00  0.00    -0.243 OA
ENDROOT
BRANCH   1   3
ATOM      3  C   UNL     1      -2.434   3.920  -0.303  0.00  0.00    +0.176 A 
ATOM      4  C   UNL     1      -1.232   3.131   0.013  0.00  0.00    +0.021 A 
ATOM      5  C   UNL     1      -1.215   1.741  -0.015  0.00  0.00    +0.011 A 
ATOM      6  C   UNL     1      -0.051   1.072   0.299  0.00  0.00    +0.001 A 
ATOM      7  C   UNL     1       1.102   1.770   0.632  0.00  0.00    +0.001 A 
ATOM      8  C   UNL     1       1.109   3.148   0.661  0.00  0.00    +0.014 A 
ATOM      9  C   UNL     1      -0.058   3.842   0.352  0.00  0.00    +0.051 A 
ATOM     10  C   UNL     1      -0.139   5.309   0.359  0.00  0.00    +0.280 A 
ATOM     11  O   UNL     1       0.833   5.985   0.641  0.00  0.00    -0.265 OA
ATOM     12  N   UNL     1      -1.316   5.889   0.045  0.00  0.00    -0.196 N 
ATOM     13  N   UNL     1      -2.369   5.230  -0.259  0.00  0.00    -0.156 NA
BRANCH  12  14
ATOM     14  C   UNL     1      -1.388   7.286   0.054  0.00  0.00    +0.069 A 
ATOM     15  C   UNL     1      -0.912   8.001   1.145  0.00  0.00    +0.028 A 
ATOM     16  C   UNL     1      -0.980   9.380   1.148  0.00  0.00    +0.002 A 
ATOM     17  C   UNL     1      -1.532  10.049   0.071  0.00  0.00    +0.000 A 
ATOM     18  C   UNL     1      -2.012   9.340  -1.015  0.00  0.00    +0.002 A 
ATOM     19  C   UNL     1      -1.942   7.961  -1.027  0.00  0.00    +0.028 A 
ENDBRANCH  12  14
ENDBRANCH   1   3
BRANCH   1  20
ATOM     20  O   UNL     1      -4.791   3.978  -0.953  0.00  0.00    -0.448 OA
BRANCH  20  22
ATOM     21  C   UNL     1      -6.037   3.020  -2.812  0.00  0.00    +0.062 C 
ATOM     22  C   UNL     1      -5.997   3.248  -1.300  0.00  0.00    +0.259 C 
BRANCH  22  23
ATOM     23  C   UNL     1      -7.205   4.045  -0.880  0.00  0.00    +0.259 C 
ATOM     24  O   UNL     1      -7.067   5.161  -0.424  0.00  0.00    -0.271 OA
ATOM     25  N   UNL     1      -8.439   3.519  -1.011  0.00  0.00    -0.262 N 
ATOM     26  C   UNL     1      -9.552   4.254  -0.624  0.00  0.00    +0.165 A 
ATOM     27  N   UNL     1     -10.829   3.923  -0.671  0.00  0.00    -0.225 NA
ATOM     28  C   UNL     1     -11.771   4.756  -0.255  0.00  0.00    +0.080 A 
ATOM     29  C   UNL     1     -11.415   5.983   0.232  0.00  0.00    +0.076 A 
ATOM     30  S   UNL     1      -9.636   5.897   0.076  0.00  0.00    -0.060 S 
ATOM     31  H   UNL     1      -8.549   2.627  -1.376  0.00  0.00    +0.157 HD
BRANCH  28  32
ATOM     32  C   UNL     1     -13.200   4.362  -0.318  0.00  0.00    +0.001 A 
ATOM     33  C   UNL     1     -14.188   5.239   0.126  0.00  0.00    +0.010 A 
ATOM     34  C   UNL     1     -15.516   4.869   0.060  0.00  0.00    +0.001 A 
ATOM     35  C   UNL     1     -15.866   3.625  -0.434  0.00  0.00    +0.000 A 
ATOM     36  C   UNL     1     -14.890   2.748  -0.870  0.00  0.00    +0.001 A 
ATOM     37  C   UNL     1     -13.559   3.110  -0.815  0.00  0.00    +0.010 A 
ENDBRANCH  28  32
ENDBRANCH  22  23
ENDBRANCH  20  22
ENDBRANCH   1  20
TORSDOF 6
