REMARK  Name = ZINC08328586
REMARK  3 active torsions:
REMARK  status: ('A' for Active; 'I' for Inactive)
REMARK    1  A    between atoms: C_1  and  C_2
REMARK    2  A    between atoms: N_11  and  C_15
REMARK    3  A    between atoms: C_15  and  C_16
REMARK                            x       y       z     vdW  Elec       q    Type
REMARK                         _______ _______ _______ _____ _____    ______ ____
ROOT
ATOM      1  C   UNL     1       1.696   7.162   2.630  0.00  0.00    +0.010 C 
ATOM      2  C   UNL     1       2.245   6.241   3.721  0.00  0.00    +0.018 C 
ATOM      3  C   UNL     1       1.726   6.700   5.086  0.00  0.00    +0.006 C 
ATOM      4  C   UNL     1       2.259   5.766   6.174  0.00  0.00    +0.000 C 
ATOM      5  C   UNL     1       1.772   4.341   5.907  0.00  0.00    +0.003 C 
ATOM      6  C   UNL     1       2.291   3.871   4.546  0.00  0.00    +0.035 C 
ATOM      7  C   UNL     1       1.788   4.811   3.455  0.00  0.00    +0.115 C 
ATOM      8  C   UNL     1       2.268   4.348   2.099  0.00  0.00    +0.247 C 
ATOM      9  O   UNL     1       3.416   4.239   1.724  0.00  0.00    -0.273 OA
ATOM     10  N   UNL     1       1.150   4.080   1.393  0.00  0.00    -0.220 N 
ATOM     11  C   UNL     1       0.045   4.315   2.112  0.00  0.00    +0.310 C 
ATOM     12  O   UNL     1      -1.083   4.153   1.690  0.00  0.00    -0.252 OA
ATOM     13  N   UNL     1       0.325   4.748   3.356  0.00  0.00    -0.285 N 
ATOM     14  H   UNL     1      -0.315   4.976   4.049  0.00  0.00    +0.151 HD
ENDROOT
BRANCH  10  15
ATOM     15  C   UNL     1       1.145   3.599   0.009  0.00  0.00    +0.153 C 
BRANCH  15  16
ATOM     16  C   UNL     1       1.170   2.092   0.002  0.00  0.00    -0.025 A 
ATOM     17  C   UNL     1      -0.017   1.383   0.010  0.00  0.00    +0.054 A 
ATOM     18  C   UNL     1       0.002  -0.004   0.002  0.00  0.00    +0.164 A 
ATOM     19  C   UNL     1       1.217  -0.679  -0.014  0.00  0.00    +0.180 A 
ATOM     20  C   UNL     1       2.405   0.039  -0.020  0.00  0.00    +0.086 A 
ATOM     21  C   UNL     1       2.378   1.422  -0.012  0.00  0.00    +0.029 A 
ATOM     22 CL   UNL     1       3.924  -0.800  -0.037  0.00  0.00    -0.080 Cl
ATOM     23  O   UNL     1       1.258  -2.039  -0.026  0.00  0.00    -0.483 OA
ATOM     24  C   UNL     1       0.060  -2.723   0.358  0.00  0.00    +0.270 C 
ATOM     25  C   UNL     1      -1.121  -2.067  -0.370  0.00  0.00    +0.270 C 
ATOM     26  O   UNL     1      -1.175  -0.688   0.013  0.00  0.00    -0.485 OA
ENDBRANCH  15  16
ENDBRANCH  10  15
TORSDOF 2
