REMARK  Name = ZINC04044900
REMARK  6 active torsions:
REMARK  status: ('A' for Active; 'I' for Inactive)
REMARK    1  A    between atoms: C_1  and  C_2
REMARK    2  A    between atoms: C_2  and  C_37
REMARK    3  A    between atoms: C_6  and  C_19
REMARK    4  A    between atoms: C_22  and  N_28
REMARK    5  A    between atoms: C_23  and  N_25
REMARK    6  A    between atoms: C_33  and  N_69
REMARK                            x       y       z     vdW  Elec       q    Type
REMARK                         _______ _______ _______ _____ _____    ______ ____
ROOT
ATOM      1  C   UNL     1      -0.124   8.175  -5.290  0.00  0.00    +0.011 C 
ATOM      2  C   UNL     1      -1.032   8.770  -6.365  0.00  0.00    -0.024 C 
ATOM      3  C   UNL     1      -1.099   7.846  -7.582  0.00  0.00    +0.043 C 
ATOM      4  C   UNL     1      -1.637   6.500  -7.185  0.00  0.00    -0.029 C 
ATOM      5  C   UNL     1      -2.625   6.437  -6.243  0.00  0.00    +0.023 C 
ATOM      6  C   UNL     1      -3.264   5.120  -5.880  0.00  0.00    +0.135 C 
ATOM      7  N   UNL     1      -3.119   4.153  -6.969  0.00  0.00    -0.332 N 
ATOM      8  C   UNL     1      -1.980   4.167  -7.755  0.00  0.00    +0.036 A 
ATOM      9  C   UNL     1      -1.171   5.313  -7.792  0.00  0.00    +0.007 A 
ATOM     10  C   UNL     1       0.132   5.204  -8.443  0.00  0.00    -0.009 A 
ATOM     11  C   UNL     1       1.175   6.106  -8.239  0.00  0.00    +0.009 A 
ATOM     12  C   UNL     1       2.306   6.035  -9.003  0.00  0.00    +0.001 A 
ATOM     13  C   UNL     1       2.467   5.026  -9.947  0.00  0.00    +0.001 A 
ATOM     14  C   UNL     1       1.518   4.061 -10.096  0.00  0.00    +0.008 A 
ATOM     15  C   UNL     1       0.362   4.094  -9.300  0.00  0.00    -0.017 A 
ATOM     16  C   UNL     1      -0.548   3.021  -9.309  0.00  0.00    +0.010 A 
ATOM     17  C   UNL     1      -1.665   3.054  -8.539  0.00  0.00    +0.024 A 
ATOM     18  C   UNL     1      -3.072   7.593  -5.586  0.00  0.00    +0.162 C 
ATOM     19  O   UNL     1      -4.005   7.503  -4.805  0.00  0.00    -0.292 OA
ATOM     20  C   UNL     1      -2.450   8.942  -5.812  0.00  0.00    +0.086 C 
ATOM     21  C   UNL     1      -0.486  10.136  -6.793  0.00  0.00    +0.011 C 
ATOM     22  H   UNL     1      -3.822   3.499  -7.141  0.00  0.00    +0.147 HD
ENDROOT
BRANCH   6  23
ATOM     23  C   UNL     1      -2.612   4.569  -4.636  0.00  0.00    -0.021 A 
ATOM     24  C   UNL     1      -1.413   3.886  -4.730  0.00  0.00    +0.008 A 
ATOM     25  C   UNL     1      -0.811   3.386  -3.592  0.00  0.00    +0.026 A 
ATOM     26  C   UNL     1      -1.417   3.559  -2.354  0.00  0.00    +0.060 A 
ATOM     27  C   UNL     1      -2.621   4.244  -2.264  0.00  0.00    +0.147 A 
ATOM     28  C   UNL     1      -3.215   4.747  -3.405  0.00  0.00    +0.040 A 
BRANCH  26  29
ATOM     29  N   UNL     1      -0.814   3.049  -1.202  0.00  0.00    -0.332 N 
ATOM     30  C   UNL     1       0.473   3.711  -0.945  0.00  0.00    +0.086 C 
ATOM     31  C   UNL     1       1.062   3.182   0.365  0.00  0.00    -0.060 C 
ATOM     32  C   UNL     1      -0.054   1.063   0.012  0.00  0.00    -0.060 C 
ATOM     33  C   UNL     1      -0.643   1.592  -1.298  0.00  0.00    +0.086 C 
ATOM     34  C   UNL     1       1.867   1.190   1.482  0.00  0.00    -0.096 C 
ATOM     35  N   UNL     1       1.249   1.721   0.248  0.00  0.00    +0.380 N 
ATOM     36  H   UNL     1       1.870   1.526  -0.546  0.00  0.00    -0.082 HD
ENDBRANCH  26  29
BRANCH  27  37
ATOM     37  N   UNL     1      -3.267   4.436  -0.946  0.00  0.00    +0.058 N 
ATOM     38  O   UNL     1      -4.369   4.951  -0.877  0.00  0.00    -0.126 OA
ATOM     39  O   UNL     1      -2.697   4.080   0.070  0.00  0.00    -0.126 OA
ENDBRANCH  27  37
ENDBRANCH   6  23
TORSDOF 3
