REMARK  Name = ZINC49546488
REMARK  7 active torsions:
REMARK  status: ('A' for Active; 'I' for Inactive)
REMARK    1  A    between atoms: C_1  and  C_2
REMARK    2  A    between atoms: C_3  and  C_8
REMARK    3  A    between atoms: C_4  and  C_7
REMARK    4  A    between atoms: N_13  and  C_20
REMARK    5  A    between atoms: C_20  and  C_21
REMARK    6  A    between atoms: C_20  and  C_22
REMARK    7  A    between atoms: C_20  and  C_23
REMARK                            x       y       z     vdW  Elec       q    Type
REMARK                         _______ _______ _______ _____ _____    ______ ____
ROOT
ATOM      1  C   UNL     1      -0.044  -0.556  -2.594  0.00  0.00    +0.117 C 
ATOM      2  C   UNL     1       1.343  -0.591  -3.154  0.00  0.00    +0.029 A 
ATOM      3  C   UNL     1       2.483  -0.421  -2.340  0.00  0.00    +0.141 A 
ATOM      4  N   UNL     1       3.546  -0.501  -3.088  0.00  0.00    -0.177 NA
ATOM      5  N   UNL     1       3.135  -0.724  -4.402  0.00  0.00    -0.245 N 
ATOM      6  C   UNL     1       1.767  -0.774  -4.423  0.00  0.00    +0.128 A 
ATOM      7  N   UNL     1       1.083  -0.977  -5.599  0.00  0.00    -0.270 N 
ATOM      8  C   UNL     1      -0.168  -1.116  -5.920  0.00  0.00    +0.228 C 
ATOM      9  O   UNL     1      -0.367  -1.389  -7.085  0.00  0.00    -0.275 OA
ATOM     10  C   UNL     1      -1.386  -0.995  -5.092  0.00  0.00    +0.166 C 
ATOM     11  S   UNL     1      -1.176  -1.665  -3.436  0.00  0.00    -0.138 S 
ATOM     12  H   UNL     1       1.673  -1.026  -6.368  0.00  0.00    +0.156 HD
ENDROOT
BRANCH   1  15
ATOM     13  C   UNL     1      -0.243   1.444  -0.134  0.00  0.00    +0.069 C 
ATOM     14  C   UNL     1      -0.076  -0.051  -0.048  0.00  0.00    +0.085 A 
ATOM     15  C   UNL     1       0.013  -0.937  -1.137  0.00  0.00    +0.034 A 
ATOM     16  C   UNL     1       0.156  -2.185  -0.651  0.00  0.00    +0.139 A 
ATOM     17  O   UNL     1       0.161  -2.111   0.688  0.00  0.00    -0.359 OA
ATOM     18  N   UNL     1       0.018  -0.749   1.049  0.00  0.00    -0.083 NA
ATOM     19  C   UNL     1       0.288  -3.444  -1.470  0.00  0.00    +0.089 C 
ENDBRANCH   1  15
BRANCH   5  20
ATOM     20  C   UNL     1       4.018  -0.878  -5.561  0.00  0.00    +0.057 C 
ATOM     21  C   UNL     1       5.476  -0.789  -5.108  0.00  0.00    +0.036 C 
ATOM     22  C   UNL     1       3.769  -2.239  -6.215  0.00  0.00    +0.036 C 
ATOM     23  C   UNL     1       3.729   0.234  -6.573  0.00  0.00    +0.036 C 
ENDBRANCH   5  20
TORSDOF 2
