REMARK  Name = ZINC59599260
REMARK  10 active torsions:
REMARK  status: ('A' for Active; 'I' for Inactive)
REMARK    1  A    between atoms: C_1  and  C_2
REMARK    2  A    between atoms: C_2  and  O_3
REMARK    3  A    between atoms: O_3  and  C_4
REMARK    4  A    between atoms: C_6  and  C_22
REMARK    5  A    between atoms: C_9  and  O_10
REMARK    6  A    between atoms: O_10  and  C_11
REMARK    7  A    between atoms: C_12  and  N_21
REMARK    8  A    between atoms: N_13  and  C_20
REMARK    9  A    between atoms: N_16  and  C_19
REMARK   10  A    between atoms: N_23  and  N_24
REMARK                            x       y       z     vdW  Elec       q    Type
REMARK                         _______ _______ _______ _____ _____    ______ ____
ROOT
ATOM      1  C   UNL     1      -1.503  -1.863   0.136  0.00  0.00    +0.163 A 
ATOM      2  C   UNL     1      -0.405  -2.692   0.272  0.00  0.00    +0.059 A 
ATOM      3  C   UNL     1      -0.588  -4.068   0.425  0.00  0.00    -0.002 A 
ATOM      4  C   UNL     1      -1.880  -4.601   0.440  0.00  0.00    +0.013 A 
ATOM      5  C   UNL     1      -2.970  -3.768   0.304  0.00  0.00    +0.050 A 
ATOM      6  C   UNL     1      -2.789  -2.400   0.158  0.00  0.00    +0.170 A 
ENDROOT
BRANCH   3   7
ATOM      7  C   UNL     1       0.580  -4.957   0.569  0.00  0.00    +0.138 C 
ATOM      8  N   UNL     1       0.408  -6.236   0.711  0.00  0.00    -0.189 NA
BRANCH   8   9
ATOM      9  N   UNL     1       1.517  -7.080   0.849  0.00  0.00    -0.221 N 
ATOM     10  C   UNL     1       1.334  -8.446   1.000  0.00  0.00    +0.139 A 
ATOM     11  C   UNL     1       2.456  -9.276   1.143  0.00  0.00    +0.046 A 
ATOM     12  C   UNL     1       2.291 -10.620   1.293  0.00  0.00    +0.013 A 
ATOM     13  C   UNL     1       0.979 -11.136   1.300  0.00  0.00    +0.001 A 
ATOM     14  C   UNL     1       0.738 -12.510   1.452  0.00  0.00    +0.010 A 
ATOM     15  C   UNL     1      -0.543 -12.973   1.455  0.00  0.00    +0.001 A 
ATOM     16  C   UNL     1      -1.619 -12.099   1.310  0.00  0.00    +0.002 A 
ATOM     17  C   UNL     1      -1.421 -10.761   1.161  0.00  0.00    +0.028 A 
ATOM     18  C   UNL     1      -0.113 -10.246   1.153  0.00  0.00    +0.073 A 
ATOM     19  N   UNL     1       0.110  -8.934   1.013  0.00  0.00    -0.231 NA
ATOM     20  H   UNL     1       2.414  -6.710   0.838  0.00  0.00    +0.176 HD
ENDBRANCH   8   9
ENDBRANCH   3   7
BRANCH   1  21
ATOM     21  O   UNL     1      -1.329  -0.522  -0.013  0.00  0.00    -0.489 OA
BRANCH  21  23
ATOM     22  C   UNL     1       0.012   1.479  -0.202  0.00  0.00    +0.048 C 
ATOM     23  C   UNL     1       0.016  -0.041  -0.027  0.00  0.00    +0.226 C 
ENDBRANCH  21  23
ENDBRANCH   1  21
BRANCH   6  24
ATOM     24  O   UNL     1      -3.867  -1.583   0.030  0.00  0.00    -0.443 OA
BRANCH  24  25
ATOM     25  C   UNL     1      -5.099  -2.159  -0.066  0.00  0.00    +0.230 A 
ATOM     26  C   UNL     1      -6.021  -1.998   0.932  0.00  0.00    +0.149 A 
ATOM     27  N   UNL     1      -7.257  -2.590   0.812  0.00  0.00    -0.282 N 
ATOM     28  C   UNL     1      -7.558  -3.321  -0.277  0.00  0.00    +0.333 A 
ATOM     29  O   UNL     1      -8.656  -3.837  -0.367  0.00  0.00    -0.246 OA
ATOM     30  N   UNL     1      -6.664  -3.490  -1.268  0.00  0.00    -0.261 N 
ATOM     31  C   UNL     1      -5.443  -2.924  -1.194  0.00  0.00    +0.301 A 
ATOM     32  O   UNL     1      -4.640  -3.078  -2.099  0.00  0.00    -0.263 OA
ATOM     33  C   UNL     1      -7.022  -4.293  -2.440  0.00  0.00    +0.157 C 
ATOM     34  C   UNL     1      -8.251  -2.423   1.875  0.00  0.00    +0.155 C 
BRANCH  26  35
ATOM     35  N   UNL     1      -5.714  -1.251   2.046  0.00  0.00    -0.341 N 
ATOM     36  H   UNL     1      -4.870  -0.777   2.095  0.00  0.00    +0.144 HD
ATOM     37  H   UNL     1      -6.343  -1.199   2.783  0.00  0.00    +0.144 HD
ENDBRANCH  26  35
ENDBRANCH  24  25
ENDBRANCH   6  24
TORSDOF 7
