REMARK  Name = ZINC48337015
REMARK  7 active torsions:
REMARK  status: ('A' for Active; 'I' for Inactive)
REMARK    1  A    between atoms: C_1  and  C_2
REMARK    2  A    between atoms: C_3  and  C_21
REMARK    3  A    between atoms: C_7  and  N_11
REMARK    4  A    between atoms: N_11  and  C_12
REMARK    5  A    between atoms: C_12  and  C_14
REMARK    6  A    between atoms: C_12  and  C_15
REMARK    7  A    between atoms: N_19  and  C_20
REMARK                            x       y       z     vdW  Elec       q    Type
REMARK                         _______ _______ _______ _____ _____    ______ ____
ROOT
ATOM      1  C   UNL     1      -0.556   1.486   0.114  0.00  0.00    +0.045 C 
ATOM      2  C   UNL     1      -0.484  -0.020   0.096  0.00  0.00    -0.028 A 
ATOM      3  C   UNL     1      -0.771  -0.699  -1.024  0.00  0.00    -0.008 A 
ATOM      4  S   UNL     1      -0.546  -2.402  -0.548  0.00  0.00    -0.074 S 
ATOM      5  C   UNL     1      -0.073  -2.156   1.143  0.00  0.00    +0.114 A 
ATOM      6  C   UNL     1      -0.097  -0.751   1.289  0.00  0.00    +0.051 A 
ATOM      7  C   UNL     1       0.255  -0.267   2.579  0.00  0.00    +0.131 A 
ATOM      8  N   UNL     1       0.577  -1.132   3.527  0.00  0.00    -0.220 NA
ATOM      9  C   UNL     1       0.583  -2.436   3.318  0.00  0.00    +0.224 A 
ATOM     10  N   UNL     1       0.256  -2.946   2.146  0.00  0.00    -0.228 NA
ATOM     11  C   UNL     1      -1.185  -0.153  -2.366  0.00  0.00    +0.052 C 
ENDROOT
BRANCH   7  12
ATOM     12  N   UNL     1       0.262   1.092   2.839  0.00  0.00    -0.319 N 
ATOM     13  H   UNL     1       0.110   1.724   2.119  0.00  0.00    +0.148 HD
BRANCH  12  14
ATOM     14  C   UNL     1       0.498   1.576   4.201  0.00  0.00    +0.137 C 
ATOM     15  C   UNL     1       2.004   1.669   4.456  0.00  0.00    +0.036 C 
BRANCH  14  16
ATOM     16  C   UNL     1      -0.124   2.939   4.365  0.00  0.00    +0.153 A 
ATOM     17  N   UNL     1      -0.049   3.930   3.519  0.00  0.00    -0.133 NA
ATOM     18  N   UNL     1      -0.697   4.941   3.979  0.00  0.00    -0.138 NA
ATOM     19  C   UNL     1      -1.214   4.641   5.139  0.00  0.00    +0.224 A 
ATOM     20  N   UNL     1      -0.870   3.360   5.415  0.00  0.00    -0.319 N 
ATOM     21  C   UNL     1      -1.229   2.588   6.607  0.00  0.00    +0.151 C 
ENDBRANCH  14  16
ENDBRANCH  12  14
ENDBRANCH   7  12
TORSDOF 3
