REMARK  Name = ZINC65399119
REMARK  3 active torsions:
REMARK  status: ('A' for Active; 'I' for Inactive)
REMARK    1  A    between atoms: C_1  and  O_2
REMARK    2  A    between atoms: O_2  and  C_3
REMARK    3  A    between atoms: C_6  and  C_10
REMARK                            x       y       z     vdW  Elec       q    Type
REMARK                         _______ _______ _______ _____ _____    ______ ____
ROOT
ATOM      1  C   UNL     1      -4.983  -2.631   0.035  0.00  0.00    +0.060 C 
ATOM      2  C   UNL     1      -4.856  -3.973  -0.688  0.00  0.00    +0.109 C 
ATOM      3  C   UNL     1      -4.695  -3.745  -2.167  0.00  0.00    +0.218 C 
ATOM      4  O   UNL     1      -3.985  -4.485  -2.814  0.00  0.00    -0.275 OA
ATOM      5  N   UNL     1      -5.331  -2.730  -2.781  0.00  0.00    -0.285 N 
ATOM      6  C   UNL     1      -6.143  -1.855  -2.049  0.00  0.00    +0.041 A 
ATOM      7  C   UNL     1      -6.006  -1.776  -0.667  0.00  0.00    -0.016 A 
ATOM      8  C   UNL     1      -6.804  -0.917   0.060  0.00  0.00    +0.035 A 
ATOM      9  C   UNL     1      -7.744  -0.131  -0.589  0.00  0.00    +0.088 A 
ATOM     10  C   UNL     1      -7.885  -0.206  -1.974  0.00  0.00    +0.159 A 
ATOM     11  C   UNL     1      -7.081  -1.069  -2.701  0.00  0.00    +0.072 A 
ATOM     12  O   UNL     1      -8.864   0.662  -2.328  0.00  0.00    -0.408 OA
ATOM     13  C   UNL     1      -9.335   1.268  -1.227  0.00  0.00    +0.419 A 
ATOM     14  O   UNL     1     -10.220   2.102  -1.209  0.00  0.00    -0.223 OA
ATOM     15  N   UNL     1      -8.675   0.810  -0.145  0.00  0.00    -0.288 N 
ATOM     16  H   UNL     1      -8.821   1.084   0.774  0.00  0.00    +0.172 HD
ATOM     17  H   UNL     1      -5.226  -2.603  -3.737  0.00  0.00    +0.155 HD
ENDROOT
BRANCH   1  21
ATOM     18  C   UNL     1      -1.201  -0.638   0.010  0.00  0.00    +0.173 A 
ATOM     19  C   UNL     1      -1.808  -0.964   1.216  0.00  0.00    +0.167 A 
ATOM     20  C   UNL     1      -3.032  -1.608   1.221  0.00  0.00    +0.046 A 
ATOM     21  C   UNL     1      -3.650  -1.929   0.026  0.00  0.00    -0.035 A 
ATOM     22  C   UNL     1      -3.048  -1.606  -1.175  0.00  0.00    +0.028 A 
ATOM     23  C   UNL     1      -1.827  -0.955  -1.186  0.00  0.00    +0.086 A 
ATOM     24 CL   UNL     1      -1.076  -0.543  -2.696  0.00  0.00    -0.080 Cl
ATOM     25  F   UNL     1      -1.203  -0.651   2.384  0.00  0.00    -0.202 F 
BRANCH  18  27
ATOM     26  C   UNL     1      -0.017   1.425   0.010  0.00  0.00    +0.277 C 
ATOM     27  O   UNL     1       0.002  -0.004   0.002  0.00  0.00    -0.491 OA
ENDBRANCH  18  27
ENDBRANCH   1  21
TORSDOF 2
