REMARK  Name = ZINC25390412
REMARK  8 active torsions:
REMARK  status: ('A' for Active; 'I' for Inactive)
REMARK    1  A    between atoms: C_1  and  C_2
REMARK    2  A    between atoms: C_9  and  N_13
REMARK    3  A    between atoms: C_10  and  C_11
REMARK    4  A    between atoms: C_14  and  C_16
REMARK    5  A    between atoms: C_16  and  O_17
REMARK    6  A    between atoms: O_17  and  C_18
REMARK    7  A    between atoms: C_18  and  C_20
REMARK    8  A    between atoms: C_21  and  C_22
REMARK                            x       y       z     vdW  Elec       q    Type
REMARK                         _______ _______ _______ _____ _____    ______ ____
ROOT
ATOM      1  N   UNL     1       9.711   1.454  -0.081  0.00  0.00    -0.276 N 
ATOM      2  C   UNL     1       8.457   1.947  -0.067  0.00  0.00    +0.255 C 
ATOM      3  O   UNL     1       8.276   3.146  -0.059  0.00  0.00    -0.272 OA
ATOM      4  H   UNL     1       9.875   0.367  -0.088  0.00  0.00    +0.155 HD
ENDROOT
BRANCH   1  12
ATOM      5  C   UNL     1      15.552   6.660  -0.205  0.00  0.00    +0.008 C 
ATOM      6  C   UNL     1      14.720   5.407  -0.487  0.00  0.00    -0.009 C 
ATOM      7  C   UNL     1      15.260   4.236   0.339  0.00  0.00    +0.008 C 
ATOM      8  C   UNL     1      14.606   2.931  -0.119  0.00  0.00    +0.037 C 
ATOM      9  C   UNL     1      13.093   3.110  -0.104  0.00  0.00    -0.018 A 
ATOM     10  C   UNL     1      12.538   4.343  -0.093  0.00  0.00    -0.004 A 
ATOM     11  S   UNL     1      10.792   4.053  -0.086  0.00  0.00    -0.077 S 
ATOM     12  C   UNL     1      10.797   2.320  -0.087  0.00  0.00    +0.090 A 
ATOM     13  C   UNL     1      12.148   2.007  -0.101  0.00  0.00    +0.084 A 
ATOM     14  C   UNL     1      13.257   5.657  -0.094  0.00  0.00    +0.046 C 
BRANCH  13  15
ATOM     15  C   UNL     1      12.595   0.647  -0.112  0.00  0.00    +0.102 C 
ATOM     16  N   UNL     1      12.950  -0.432  -0.120  0.00  0.00    -0.191 NA
ENDBRANCH  13  15
ENDBRANCH   1  12
BRANCH   2  17
ATOM     17  C   UNL     1       7.279   1.007  -0.061  0.00  0.00    +0.328 C 
BRANCH  17  18
ATOM     18  O   UNL     1       6.066   1.764  -0.045  0.00  0.00    -0.452 OA
BRANCH  18  19
ATOM     19  C   UNL     1       4.910   1.068  -0.038  0.00  0.00    +0.332 C 
ATOM     20  O   UNL     1       4.933  -0.148  -0.045  0.00  0.00    -0.246 OA
BRANCH  19  21
ATOM     21  C   UNL     1       3.631   1.776  -0.023  0.00  0.00    +0.092 C 
ATOM     22  C   UNL     1       2.475   1.081  -0.015  0.00  0.00    +0.015 C 
BRANCH  22  23
ATOM     23  C   UNL     1       1.188   1.793   0.000  0.00  0.00    -0.024 A 
ATOM     24  C   UNL     1       1.158   3.192   0.008  0.00  0.00    +0.008 A 
ATOM     25  C   UNL     1      -0.052   3.853   0.023  0.00  0.00    +0.002 A 
ATOM     26  C   UNL     1      -1.236   3.136   0.031  0.00  0.00    +0.015 A 
ATOM     27  C   UNL     1      -1.216   1.752   0.017  0.00  0.00    +0.018 A 
ATOM     28  C   UNL     1      -0.013   1.076   0.008  0.00  0.00    +0.023 A 
ATOM     29 BR   UNL     1      -2.841   0.784   0.019  0.00  0.00    -0.050 Br
ENDBRANCH  22  23
ENDBRANCH  19  21
ENDBRANCH  18  19
ENDBRANCH  17  18
ENDBRANCH   2  17
TORSDOF 7
