REMARK  Name = ZINC39683601
REMARK  8 active torsions:
REMARK  status: ('A' for Active; 'I' for Inactive)
REMARK    1  A    between atoms: C_1  and  C_2
REMARK    2  A    between atoms: C_2  and  C_3
REMARK    3  A    between atoms: C_3  and  C_4
REMARK    4  A    between atoms: C_4  and  N_5
REMARK    5  A    between atoms: C_8  and  C_11
REMARK    6  A    between atoms: C_11  and  N_12
REMARK    7  A    between atoms: C_13  and  C_15
REMARK    8  A    between atoms: C_26  and  C_28
REMARK                            x       y       z     vdW  Elec       q    Type
REMARK                         _______ _______ _______ _____ _____    ______ ____
ROOT
ATOM      1  C   UNL     1      -7.712  -8.223   0.837  0.00  0.00    +0.100 C 
ATOM      2  C   UNL     1      -7.102  -8.753  -0.481  0.00  0.00    +0.121 C 
ATOM      3  N   UNL     1      -7.951  -9.911  -0.847  0.00  0.00    -0.295 N 
ATOM      4  C   UNL     1      -9.328  -9.482  -0.505  0.00  0.00    +0.115 C 
ATOM      5  C   UNL     1      -9.173  -8.703   0.816  0.00  0.00    -0.004 C 
ATOM      6  C   UNL     1     -10.121  -7.508   0.839  0.00  0.00    -0.010 C 
ATOM      7  C   UNL     1     -11.568  -8.011   0.877  0.00  0.00    -0.082 C 
ATOM      8  N   UNL     1     -11.767  -8.842   2.070  0.00  0.00    +0.379 N 
ATOM      9  C   UNL     1     -10.918 -10.037   1.996  0.00  0.00    -0.082 C 
ATOM     10  C   UNL     1      -9.445  -9.620   2.005  0.00  0.00    -0.010 C 
ATOM     11  C   UNL     1      -7.559 -11.089  -1.373  0.00  0.00    +0.265 C 
ATOM     12  O   UNL     1      -8.389 -11.914  -1.699  0.00  0.00    -0.268 OA
ATOM     13  H   UNL     1     -11.526  -8.310   2.893  0.00  0.00    -0.086 HD
ATOM     14  H   UNL     1     -12.735  -9.121   2.126  0.00  0.00    -0.086 HD
ENDROOT
BRANCH  11  15
ATOM     15  C   UNL     1      -6.116 -11.377  -1.553  0.00  0.00    +0.126 A 
ATOM     16  C   UNL     1      -5.729 -12.558  -2.204  0.00  0.00    +0.033 A 
ATOM     17  C   UNL     1      -4.404 -12.835  -2.377  0.00  0.00    +0.012 A 
ATOM     18  C   UNL     1      -3.461 -11.911  -1.887  0.00  0.00    +0.000 A 
ATOM     19  C   UNL     1      -2.082 -12.132  -2.030  0.00  0.00    +0.010 A 
ATOM     20  C   UNL     1      -1.199 -11.217  -1.544  0.00  0.00    +0.001 A 
ATOM     21  C   UNL     1      -1.645 -10.061  -0.905  0.00  0.00    +0.002 A 
ATOM     22  C   UNL     1      -2.974  -9.813  -0.748  0.00  0.00    +0.028 A 
ATOM     23  C   UNL     1      -3.918 -10.736  -1.237  0.00  0.00    +0.072 A 
ATOM     24  N   UNL     1      -5.226 -10.515  -1.101  0.00  0.00    -0.242 NA
ENDBRANCH  11  15
BRANCH   1  26
ATOM     25  N   UNL     1      -7.730  -6.070   2.053  0.00  0.00    -0.315 N 
ATOM     26  C   UNL     1      -7.654  -6.718   0.874  0.00  0.00    +0.218 C 
ATOM     27  O   UNL     1      -7.539  -6.090  -0.158  0.00  0.00    -0.275 OA
ATOM     28  H   UNL     1      -7.822  -6.572   2.877  0.00  0.00    +0.149 HD
BRANCH  25  29
ATOM     29  C   UNL     1      -7.673  -4.606   2.089  0.00  0.00    +0.107 C 
BRANCH  29  33
ATOM     30  N   UNL     1      -6.657  -2.574   5.710  0.00  0.00    +0.380 N 
ATOM     31  C   UNL     1      -7.872  -2.122   5.023  0.00  0.00    -0.079 C 
ATOM     32  C   UNL     1      -7.846  -2.598   3.568  0.00  0.00    -0.014 C 
ATOM     33  C   UNL     1      -7.780  -4.127   3.538  0.00  0.00    +0.003 C 
ATOM     34  C   UNL     1      -6.548  -4.590   4.322  0.00  0.00    -0.014 C 
ATOM     35  C   UNL     1      -6.622  -4.041   5.748  0.00  0.00    -0.079 C 
ATOM     36  H   UNL     1      -5.846  -2.232   5.216  0.00  0.00    -0.082 HD
BRANCH  30  37
ATOM     37  C   UNL     1      -6.649  -2.050   7.083  0.00  0.00    -0.079 C 
BRANCH  37  38
ATOM     38  C   UNL     1      -6.559  -0.523   7.045  0.00  0.00    -0.019 C 
BRANCH  38  40
ATOM     39  C   UNL     1      -6.462   1.550   8.437  0.00  0.00    +0.004 C 
ATOM     40  C   UNL     1      -6.551   0.023   8.474  0.00  0.00    -0.005 C 
ENDBRANCH  38  40
ENDBRANCH  37  38
ENDBRANCH  30  37
ENDBRANCH  29  33
ENDBRANCH  25  29
ENDBRANCH   1  26
TORSDOF 7
