REMARK  Name = ZINC39665384
REMARK  9 active torsions:
REMARK  status: ('A' for Active; 'I' for Inactive)
REMARK    1  A    between atoms: C_1  and  C_2
REMARK    2  A    between atoms: C_2  and  C_4
REMARK    3  A    between atoms: C_2  and  O_31
REMARK    4  A    between atoms: C_4  and  N_5
REMARK    5  A    between atoms: C_6  and  C_8
REMARK    6  A    between atoms: C_19  and  C_21
REMARK    7  A    between atoms: C_24  and  O_28
REMARK    8  A    between atoms: O_28  and  C_29
REMARK    9  A    between atoms: O_31  and  C_32
REMARK                            x       y       z     vdW  Elec       q    Type
REMARK                         _______ _______ _______ _____ _____    ______ ____
ROOT
ATOM      1  C   UNL     1       1.779  -4.186   2.059  0.00  0.00    +0.100 C 
ATOM      2  C   UNL     1       2.781  -4.599   0.959  0.00  0.00    +0.121 C 
ATOM      3  N   UNL     1       4.069  -4.770   1.671  0.00  0.00    -0.296 N 
ATOM      4  C   UNL     1       3.699  -5.415   2.953  0.00  0.00    +0.115 C 
ATOM      5  C   UNL     1       2.382  -4.727   3.366  0.00  0.00    -0.004 C 
ATOM      6  C   UNL     1       1.437  -5.738   4.007  0.00  0.00    -0.010 C 
ATOM      7  C   UNL     1       2.032  -6.218   5.334  0.00  0.00    -0.082 C 
ATOM      8  N   UNL     1       2.231  -5.069   6.227  0.00  0.00    +0.379 N 
ATOM      9  C   UNL     1       3.213  -4.147   5.645  0.00  0.00    -0.082 C 
ATOM     10  C   UNL     1       2.668  -3.580   4.331  0.00  0.00    -0.010 C 
ATOM     11  C   UNL     1       5.300  -4.420   1.247  0.00  0.00    +0.247 C 
ATOM     12  O   UNL     1       5.432  -3.798   0.211  0.00  0.00    -0.270 OA
ATOM     13  H   UNL     1       1.353  -4.588   6.354  0.00  0.00    -0.086 HD
ATOM     14  H   UNL     1       2.566  -5.395   7.121  0.00  0.00    -0.086 HD
ENDROOT
BRANCH  11  15
ATOM     15  C   UNL     1       6.487  -4.791   2.042  0.00  0.00    +0.040 A 
ATOM     16  C   UNL     1       6.439  -5.892   2.901  0.00  0.00    +0.036 A 
ATOM     17  C   UNL     1       7.549  -6.236   3.641  0.00  0.00    +0.085 A 
ATOM     18  C   UNL     1       8.717  -5.488   3.535  0.00  0.00    +0.157 A 
ATOM     19  C   UNL     1       8.768  -4.391   2.682  0.00  0.00    +0.085 A 
ATOM     20  C   UNL     1       7.664  -4.045   1.933  0.00  0.00    +0.036 A 
ATOM     21 CL   UNL     1      10.228  -3.460   2.554  0.00  0.00    -0.080 Cl
ATOM     22 CL   UNL     1       7.490  -7.604   4.708  0.00  0.00    -0.080 Cl
BRANCH  18  23
ATOM     23  O   UNL     1       9.808  -5.828   4.267  0.00  0.00    -0.492 OA
ATOM     24  C   UNL     1      10.728  -6.746   3.671  0.00  0.00    +0.277 C 
ENDBRANCH  18  23
ENDBRANCH  11  15
BRANCH   1  26
ATOM     25  N   UNL     1       0.570  -2.122   2.688  0.00  0.00    -0.312 N 
ATOM     26  C   UNL     1       1.654  -2.686   2.120  0.00  0.00    +0.218 C 
ATOM     27  O   UNL     1       2.530  -1.985   1.659  0.00  0.00    -0.275 OA
ATOM     28  H   UNL     1      -0.131  -2.682   3.058  0.00  0.00    +0.149 HD
BRANCH  25  29
ATOM     29  C   UNL     1       0.449  -0.663   2.747  0.00  0.00    +0.148 C 
BRANCH  29  31
ATOM     30  C   UNL     1      -1.051   1.230   3.387  0.00  0.00    +0.053 C 
ATOM     31  C   UNL     1      -0.865  -0.288   3.436  0.00  0.00    +0.187 C 
BRANCH  31  32
ATOM     32  O   UNL     1      -0.830  -0.720   4.798  0.00  0.00    -0.488 OA
BRANCH  32  33
ATOM     33  C   UNL     1      -2.024  -0.948   5.404  0.00  0.00    +0.121 A 
ATOM     34  C   UNL     1      -3.201  -0.862   4.675  0.00  0.00    +0.045 A 
ATOM     35  C   UNL     1      -4.414  -1.094   5.293  0.00  0.00    +0.004 A 
ATOM     36  C   UNL     1      -4.456  -1.412   6.638  0.00  0.00    +0.000 A 
ATOM     37  C   UNL     1      -3.284  -1.497   7.368  0.00  0.00    +0.004 A 
ATOM     38  C   UNL     1      -2.068  -1.272   6.752  0.00  0.00    +0.045 A 
ENDBRANCH  32  33
ENDBRANCH  31  32
ENDBRANCH  29  31
ENDBRANCH  25  29
ENDBRANCH   1  26
TORSDOF 7
