REMARK  Name = ZINC40780694
REMARK  5 active torsions:
REMARK  status: ('A' for Active; 'I' for Inactive)
REMARK    1  A    between atoms: C_12  and  N_29
REMARK    2  A    between atoms: C_13  and  N_17
REMARK    3  A    between atoms: N_17  and  C_18
REMARK    4  A    between atoms: C_21  and  O_24
REMARK    5  A    between atoms: O_24  and  C_25
REMARK                            x       y       z     vdW  Elec       q    Type
REMARK                         _______ _______ _______ _____ _____    ______ ____
ROOT
ATOM      1  C   UNL     1      -1.219  -2.018  -1.465  0.00  0.00    +0.000 A 
ATOM      2  C   UNL     1      -1.306  -1.326  -0.271  0.00  0.00    +0.000 A 
ATOM      3  C   UNL     1      -0.166  -1.097   0.471  0.00  0.00    +0.005 A 
ATOM      4  C   UNL     1       1.067  -1.559   0.030  0.00  0.00    -0.027 A 
ATOM      5  C   UNL     1       1.153  -2.256  -1.154  0.00  0.00    -0.041 A 
ATOM      6  C   UNL     1       0.004  -2.479  -1.903  0.00  0.00    +0.004 A 
ATOM      7  C   UNL     1       2.449  -2.814  -1.681  0.00  0.00    +0.054 C 
ATOM      8  C   UNL     1       3.645  -2.105  -1.046  0.00  0.00    +0.111 C 
ATOM      9  N   UNL     1       3.419  -2.049   0.407  0.00  0.00    -0.309 N 
ATOM     10  C   UNL     1       2.275  -1.263   0.882  0.00  0.00    +0.142 C 
ATOM     11  C   UNL     1       4.256  -2.715   1.295  0.00  0.00    +0.148 A 
ATOM     12  C   UNL     1       5.426  -2.108   1.757  0.00  0.00    +0.106 A 
ATOM     13  C   UNL     1       6.230  -2.821   2.648  0.00  0.00    +0.149 A 
ATOM     14  N   UNL     1       5.855  -4.043   3.019  0.00  0.00    -0.219 NA
ATOM     15  C   UNL     1       4.743  -4.579   2.559  0.00  0.00    +0.225 A 
ATOM     16  N   UNL     1       3.953  -3.938   1.722  0.00  0.00    -0.219 NA
ENDROOT
BRANCH  12  17
ATOM     17  N   UNL     1       5.783  -0.817   1.337  0.00  0.00    -0.353 N 
ATOM     18  H   UNL     1       5.172  -0.298   0.791  0.00  0.00    +0.143 HD
ATOM     19  H   UNL     1       6.641  -0.444   1.593  0.00  0.00    +0.143 HD
ENDBRANCH  12  17
BRANCH  13  20
ATOM     20  N   UNL     1       7.406  -2.264   3.138  0.00  0.00    -0.298 N 
ATOM     21  H   UNL     1       7.634  -1.346   2.923  0.00  0.00    +0.154 HD
BRANCH  20  22
ATOM     22  C   UNL     1       8.260  -3.028   3.942  0.00  0.00    +0.033 A 
ATOM     23  C   UNL     1       8.999  -2.417   4.947  0.00  0.00    +0.027 A 
ATOM     24  C   UNL     1       9.842  -3.171   5.739  0.00  0.00    +0.048 A 
ATOM     25  C   UNL     1       9.950  -4.539   5.532  0.00  0.00    +0.130 A 
ATOM     26  C   UNL     1       9.213  -5.149   4.528  0.00  0.00    +0.048 A 
ATOM     27  C   UNL     1       8.365  -4.398   3.739  0.00  0.00    +0.027 A 
BRANCH  25  28
ATOM     28  O   UNL     1      10.780  -5.281   6.312  0.00  0.00    -0.406 OA
BRANCH  28  29
ATOM     29  C   UNL     1      10.843  -6.683   6.043  0.00  0.00    +0.575 C 
ATOM     30  F   UNL     1      11.280  -6.886   4.730  0.00  0.00    -0.133 F 
ATOM     31  F   UNL     1      11.738  -7.289   6.932  0.00  0.00    -0.133 F 
ATOM     32  F   UNL     1       9.573  -7.246   6.205  0.00  0.00    -0.133 F 
ENDBRANCH  28  29
ENDBRANCH  25  28
ENDBRANCH  20  22
ENDBRANCH  13  20
TORSDOF 5
