REMARK  Name = ZINC59816564
REMARK  6 active torsions:
REMARK  status: ('A' for Active; 'I' for Inactive)
REMARK    1  A    between atoms: C_1  and  C_2
REMARK    2  A    between atoms: C_9  and  C_11
REMARK    3  A    between atoms: C_11  and  S_12
REMARK    4  A    between atoms: S_12  and  C_13
REMARK    5  A    between atoms: N_18  and  N_19
REMARK    6  A    between atoms: C_20  and  C_21
REMARK                            x       y       z     vdW  Elec       q    Type
REMARK                         _______ _______ _______ _____ _____    ______ ____
ROOT
ATOM      1  C   UNL     1       0.102  -6.762   3.259  0.00  0.00    +0.211 A 
ATOM      2  N   UNL     1      -0.232  -7.735   4.113  0.00  0.00    -0.186 NA
ATOM      3  C   UNL     1       0.091  -8.904   3.601  0.00  0.00    +0.232 A 
ATOM      4  N   UNL     1       0.646  -8.688   2.389  0.00  0.00    -0.245 N 
ATOM      5  N   UNL     1       0.636  -7.299   2.188  0.00  0.00    -0.144 NA
ATOM      6  N   UNL     1      -0.103 -10.135   4.198  0.00  0.00    -0.205 N 
ATOM      7  H   UNL     1       0.170 -10.945   3.740  0.00  0.00    +0.177 HD
ATOM      8  H   UNL     1       0.982  -9.361   1.776  0.00  0.00    +0.192 HD
ENDROOT
BRANCH   6   9
ATOM      9  N   UNL     1      -0.694 -10.213   5.466  0.00  0.00    -0.188 NA
ATOM     10  C   UNL     1      -0.878 -11.373   6.029  0.00  0.00    +0.139 C 
BRANCH  10  11
ATOM     11  C   UNL     1      -1.496 -11.454   7.355  0.00  0.00    +0.010 A 
ATOM     12  C   UNL     1      -1.803 -12.708   7.923  0.00  0.00    -0.009 A 
ATOM     13  C   UNL     1      -1.526 -13.903   7.237  0.00  0.00    +0.009 A 
ATOM     14  C   UNL     1      -1.835 -15.096   7.814  0.00  0.00    +0.001 A 
ATOM     15  C   UNL     1      -2.423 -15.168   9.075  0.00  0.00    +0.001 A 
ATOM     16  C   UNL     1      -2.717 -14.050   9.790  0.00  0.00    +0.008 A 
ATOM     17  C   UNL     1      -2.421 -12.781   9.249  0.00  0.00    -0.017 A 
ATOM     18  C   UNL     1      -2.709 -11.614   9.957  0.00  0.00    +0.017 A 
ATOM     19  C   UNL     1      -2.408 -10.369   9.403  0.00  0.00    -0.017 A 
ATOM     20  C   UNL     1      -1.785 -10.280   8.080  0.00  0.00    -0.009 A 
ATOM     21  C   UNL     1      -1.491  -9.010   7.554  0.00  0.00    +0.009 A 
ATOM     22  C   UNL     1      -1.782  -7.898   8.280  0.00  0.00    +0.001 A 
ATOM     23  C   UNL     1      -2.370  -7.980   9.541  0.00  0.00    +0.001 A 
ATOM     24  C   UNL     1      -2.690  -9.175  10.101  0.00  0.00    +0.008 A 
ENDBRANCH  10  11
ENDBRANCH   6   9
BRANCH   1  25
ATOM     25  S   UNL     1      -0.145  -5.037   3.525  0.00  0.00    -0.075 S 
BRANCH  25  26
ATOM     26  C   UNL     1       0.501  -4.264   2.017  0.00  0.00    +0.173 C 
BRANCH  26  34
ATOM     27  C   UNL     1      -0.165   1.502  -0.059  0.00  0.00    +0.009 C 
ATOM     28  C   UNL     1      -0.127  -0.028  -0.059  0.00  0.00    +0.003 C 
ATOM     29  C   UNL     1       0.598  -0.520  -1.314  0.00  0.00    +0.006 C 
ATOM     30  C   UNL     1       0.608  -2.050  -1.332  0.00  0.00    +0.019 C 
ATOM     31  C   UNL     1       1.364  -2.566  -0.103  0.00  0.00    +0.108 C 
ATOM     32  N   UNL     1       0.763  -1.980   1.102  0.00  0.00    -0.301 N 
ATOM     33  C   UNL     1       0.621  -0.520   1.184  0.00  0.00    +0.111 C 
ATOM     34  C   UNL     1       0.349  -2.768   2.115  0.00  0.00    +0.226 C 
ATOM     35  O   UNL     1      -0.146  -2.272   3.105  0.00  0.00    -0.275 OA
ENDBRANCH  26  34
ENDBRANCH  25  26
ENDBRANCH   1  25
TORSDOF 5
