REMARK  Name = ZINC39655802
REMARK  9 active torsions:
REMARK  status: ('A' for Active; 'I' for Inactive)
REMARK    1  A    between atoms: C_1  and  C_2
REMARK    2  A    between atoms: C_8  and  C_11
REMARK    3  A    between atoms: C_11  and  C_12
REMARK    4  A    between atoms: C_12  and  N_13
REMARK    5  A    between atoms: C_14  and  C_16
REMARK    6  A    between atoms: C_27  and  C_29
REMARK    7  A    between atoms: C_34  and  O_35
REMARK    8  A    between atoms: O_35  and  C_36
REMARK    9  A    between atoms: C_36  and  C_38
REMARK                            x       y       z     vdW  Elec       q    Type
REMARK                         _______ _______ _______ _____ _____    ______ ____
ROOT
ATOM      1  C   UNL     1       4.274  -0.455  -7.322  0.00  0.00    +0.100 C 
ATOM      2  C   UNL     1       5.338   0.131  -6.367  0.00  0.00    +0.121 C 
ATOM      3  N   UNL     1       6.002  -1.053  -5.774  0.00  0.00    -0.296 N 
ATOM      4  C   UNL     1       6.113  -2.015  -6.897  0.00  0.00    +0.115 C 
ATOM      5  C   UNL     1       4.788  -1.862  -7.670  0.00  0.00    -0.004 C 
ATOM      6  C   UNL     1       5.037  -1.977  -9.171  0.00  0.00    -0.010 C 
ATOM      7  C   UNL     1       5.491  -3.402  -9.501  0.00  0.00    -0.082 C 
ATOM      8  N   UNL     1       4.459  -4.357  -9.081  0.00  0.00    +0.379 N 
ATOM      9  C   UNL     1       4.292  -4.305  -7.623  0.00  0.00    -0.082 C 
ATOM     10  C   UNL     1       3.787  -2.919  -7.214  0.00  0.00    -0.010 C 
ATOM     11  C   UNL     1       6.412  -1.219  -4.501  0.00  0.00    +0.250 C 
ATOM     12  O   UNL     1       7.029  -2.218  -4.186  0.00  0.00    -0.270 OA
ATOM     13  H   UNL     1       3.584  -4.122  -9.526  0.00  0.00    -0.086 HD
ATOM     14  H   UNL     1       4.733  -5.288  -9.354  0.00  0.00    -0.086 HD
ENDROOT
BRANCH  11  15
ATOM     15  C   UNL     1       6.112  -0.188  -3.488  0.00  0.00    +0.079 A 
ATOM     16  C   UNL     1       6.101   1.163  -3.844  0.00  0.00    +0.017 A 
ATOM     17  C   UNL     1       5.820   2.121  -2.894  0.00  0.00    +0.001 A 
ATOM     18  C   UNL     1       5.547   1.750  -1.587  0.00  0.00    +0.004 A 
ATOM     19  C   UNL     1       5.554   0.418  -1.223  0.00  0.00    +0.047 A 
ATOM     20  C   UNL     1       5.830  -0.559  -2.167  0.00  0.00    +0.144 A 
BRANCH  20  21
ATOM     21  O   UNL     1       5.832  -1.869  -1.812  0.00  0.00    -0.425 OA
BRANCH  21  22
ATOM     22  C   UNL     1       4.698  -2.569  -1.979  0.00  0.00    +0.309 C 
ATOM     23  O   UNL     1       3.745  -2.057  -2.516  0.00  0.00    -0.251 OA
ATOM     24  C   UNL     1       4.615  -3.994  -1.496  0.00  0.00    +0.136 C 
ENDBRANCH  21  22
ENDBRANCH  20  21
ENDBRANCH  11  15
BRANCH   1  26
ATOM     25  N   UNL     1       1.800  -0.440  -7.346  0.00  0.00    -0.315 N 
ATOM     26  C   UNL     1       2.938  -0.541  -6.630  0.00  0.00    +0.218 C 
ATOM     27  O   UNL     1       2.886  -0.702  -5.429  0.00  0.00    -0.275 OA
ATOM     28  H   UNL     1       1.842  -0.311  -8.306  0.00  0.00    +0.149 HD
BRANCH  25  29
ATOM     29  C   UNL     1       0.502  -0.523  -6.673  0.00  0.00    +0.109 C 
BRANCH  29  30
ATOM     30  C   UNL     1      -0.618  -0.379  -7.706  0.00  0.00    +0.056 C 
BRANCH  30  38
ATOM     31  C   UNL     1      -3.018   4.243  -5.321  0.00  0.00    +0.044 C 
ATOM     32  C   UNL     1      -3.306   2.777  -5.518  0.00  0.00    -0.050 A 
ATOM     33  C   UNL     1      -4.482   2.233  -5.020  0.00  0.00    +0.005 A 
ATOM     34  C   UNL     1      -4.764   0.895  -5.189  0.00  0.00    +0.026 A 
ATOM     35  C   UNL     1      -3.864   0.079  -5.864  0.00  0.00    +0.047 A 
ATOM     36  N   UNL     1      -3.855  -1.259  -6.188  0.00  0.00    -0.360 N 
ATOM     37  C   UNL     1      -2.710  -1.565  -6.872  0.00  0.00    +0.087 A 
ATOM     38  C   UNL     1      -1.954  -0.465  -7.014  0.00  0.00    -0.021 A 
ATOM     39  C   UNL     1      -2.673   0.635  -6.367  0.00  0.00    +0.003 A 
ATOM     40  C   UNL     1      -2.409   1.994  -6.190  0.00  0.00    +0.013 A 
ATOM     41  H   UNL     1      -4.556  -1.891  -5.964  0.00  0.00    +0.165 HD
ENDBRANCH  30  38
ENDBRANCH  29  30
ENDBRANCH  25  29
ENDBRANCH   1  26
TORSDOF 7
