REMARK  Name = ZINC36690329
REMARK  12 active torsions:
REMARK  status: ('A' for Active; 'I' for Inactive)
REMARK    1  A    between atoms: C_1  and  N_2
REMARK    2  A    between atoms: N_2  and  C_3
REMARK    3  A    between atoms: N_2  and  C_4
REMARK    4  A    between atoms: C_4  and  C_5
REMARK    5  A    between atoms: C_5  and  C_6
REMARK    6  A    between atoms: C_6  and  N_7
REMARK    7  A    between atoms: C_17  and  C_19
REMARK    8  A    between atoms: C_22  and  S_25
REMARK    9  A    between atoms: S_25  and  N_28
REMARK   10  A    between atoms: N_28  and  C_29
REMARK   11  A    between atoms: N_28  and  C_30
REMARK   12  A    between atoms: C_30  and  C_31
REMARK                            x       y       z     vdW  Elec       q    Type
REMARK                         _______ _______ _______ _____ _____    ______ ____
ROOT
ATOM      1  N   UNL     1      -2.014  -4.043  -0.390  0.00  0.00    -0.246 N 
ATOM      2  C   UNL     1      -2.060  -2.669  -0.231  0.00  0.00    +0.168 A 
ATOM      3  N   UNL     1      -1.481  -1.926   0.684  0.00  0.00    -0.224 NA
ATOM      4  C   UNL     1      -1.613  -0.582   0.718  0.00  0.00    +0.080 A 
ATOM      5  C   UNL     1      -1.048   0.328   1.642  0.00  0.00    +0.029 A 
ATOM      6  C   UNL     1      -1.285   1.673   1.534  0.00  0.00    +0.002 A 
ATOM      7  C   UNL     1      -2.082   2.190   0.523  0.00  0.00    +0.001 A 
ATOM      8  C   UNL     1      -2.651   1.329  -0.398  0.00  0.00    +0.017 A 
ATOM      9  C   UNL     1      -2.419  -0.020  -0.298  0.00  0.00    +0.041 A 
ATOM     10  S   UNL     1      -2.916  -1.453  -1.223  0.00  0.00    -0.052 S 
ATOM     11  C   UNL     1      -2.591  -4.617  -1.464  0.00  0.00    +0.252 C 
ATOM     12  O   UNL     1      -3.101  -3.924  -2.323  0.00  0.00    -0.270 OA
ENDROOT
BRANCH  11  13
ATOM     13  C   UNL     1      -2.605  -6.088  -1.598  0.00  0.00    +0.037 A 
ATOM     14  C   UNL     1      -2.581  -6.896  -0.460  0.00  0.00    +0.015 A 
ATOM     15  C   UNL     1      -2.594  -8.269  -0.592  0.00  0.00    +0.029 A 
ATOM     16  C   UNL     1      -2.629  -8.846  -1.849  0.00  0.00    +0.106 A 
ATOM     17  C   UNL     1      -2.653  -8.051  -2.981  0.00  0.00    +0.029 A 
ATOM     18  C   UNL     1      -2.647  -6.677  -2.863  0.00  0.00    +0.015 A 
BRANCH  16  19
ATOM     19  S   UNL     1      -2.644 -10.601  -2.009  0.00  0.00    +0.061 S 
ATOM     20  O   UNL     1      -2.020 -10.901  -3.249  0.00  0.00    -0.153 OA
ATOM     21  O   UNL     1      -2.176 -11.125  -0.774  0.00  0.00    -0.153 OA
BRANCH  19  22
ATOM     22  N   UNL     1      -4.227 -11.066  -2.150  0.00  0.00    -0.175 NA
ATOM     23  C   UNL     1      -5.040 -11.273  -0.949  0.00  0.00    +0.132 C 
BRANCH  22  24
ATOM     24  C   UNL     1      -4.814 -11.271  -3.477  0.00  0.00    +0.144 C 
BRANCH  24  25
ATOM     25  C   UNL     1      -4.811 -12.742  -3.806  0.00  0.00    -0.032 A 
ATOM     26  C   UNL     1      -3.687 -13.324  -4.360  0.00  0.00    +0.005 A 
ATOM     27  C   UNL     1      -3.684 -14.673  -4.662  0.00  0.00    +0.000 A 
ATOM     28  C   UNL     1      -4.806 -15.440  -4.409  0.00  0.00    +0.000 A 
ATOM     29  C   UNL     1      -5.930 -14.858  -3.854  0.00  0.00    +0.000 A 
ATOM     30  C   UNL     1      -5.931 -13.510  -3.548  0.00  0.00    +0.005 A 
ENDBRANCH  24  25
ENDBRANCH  22  24
ENDBRANCH  19  22
ENDBRANCH  16  19
ENDBRANCH  11  13
BRANCH   1  31
ATOM     31  C   UNL     1      -1.339  -4.874   0.610  0.00  0.00    +0.114 C 
BRANCH  31  32
ATOM     32  C   UNL     1      -2.188  -4.933   1.882  0.00  0.00    +0.001 C 
BRANCH  32  33
ATOM     33  C   UNL     1      -1.482  -5.801   2.926  0.00  0.00    -0.078 C 
BRANCH  33  35
ATOM     34  C   UNL     1      -1.680  -6.785   5.105  0.00  0.00    -0.097 C 
ATOM     35  N   UNL     1      -2.297  -5.857   4.147  0.00  0.00    +0.376 N 
ATOM     36  C   UNL     1      -2.377  -4.518   4.745  0.00  0.00    -0.097 C 
ATOM     37  H   UNL     1      -3.225  -6.179   3.917  0.00  0.00    -0.083 HD
ENDBRANCH  33  35
ENDBRANCH  32  33
ENDBRANCH  31  32
ENDBRANCH   1  31
TORSDOF 9
