REMARK  Name = ZINC08695968
REMARK  9 active torsions:
REMARK  status: ('A' for Active; 'I' for Inactive)
REMARK    1  A    between atoms: C_4  and  C_7
REMARK    2  A    between atoms: C_7  and  N_8
REMARK    3  A    between atoms: N_8  and  C_9
REMARK    4  A    between atoms: C_9  and  C_11
REMARK    5  A    between atoms: C_9  and  C_16
REMARK    6  A    between atoms: N_18  and  C_19
REMARK    7  A    between atoms: C_22  and  N_25
REMARK    8  A    between atoms: C_31  and  C_33
REMARK    9  A    between atoms: C_33  and  N_34
REMARK                            x       y       z     vdW  Elec       q    Type
REMARK                         _______ _______ _______ _____ _____    ______ ____
ROOT
ATOM      1  N   UNL     1       4.058  -0.589  -1.280  0.00  0.00    -0.279 N 
ATOM      2  C   UNL     1       3.916  -1.910  -1.507  0.00  0.00    +0.235 C 
ATOM      3  O   UNL     1       4.430  -2.416  -2.482  0.00  0.00    -0.274 OA
ENDROOT
BRANCH   1   4
ATOM      4  C   UNL     1       3.380   0.035  -0.140  0.00  0.00    +0.144 C 
BRANCH   4   8
ATOM      5  C   UNL     1       6.076   0.271   3.165  0.00  0.00    +0.000 A 
ATOM      6  C   UNL     1       5.363  -0.891   2.936  0.00  0.00    +0.000 A 
ATOM      7  C   UNL     1       4.490  -0.968   1.867  0.00  0.00    +0.005 A 
ATOM      8  C   UNL     1       4.331   0.118   1.026  0.00  0.00    -0.030 A 
ATOM      9  C   UNL     1       5.044   1.280   1.255  0.00  0.00    +0.005 A 
ATOM     10  C   UNL     1       5.916   1.356   2.324  0.00  0.00    +0.000 A 
ENDBRANCH   4   8
ENDBRANCH   1   4
BRANCH   1  11
ATOM     11  C   UNL     1       4.890   0.222  -2.171  0.00  0.00    +0.214 C 
BRANCH  11  12
ATOM     12  C   UNL     1       4.092   1.399  -2.670  0.00  0.00    +0.101 A 
ATOM     13  C   UNL     1       4.331   2.003  -3.866  0.00  0.00    +0.094 A 
ATOM     14  S   UNL     1       3.121   3.243  -3.860  0.00  0.00    +0.028 S 
ATOM     15  N   UNL     1       2.459   2.942  -2.459  0.00  0.00    -0.110 NA
ATOM     16  N   UNL     1       3.105   1.938  -1.985  0.00  0.00    -0.144 NA
ENDBRANCH  11  12
BRANCH  11  17
ATOM     17  C   UNL     1       6.098   0.717  -1.419  0.00  0.00    +0.244 C 
ATOM     18  O   UNL     1       6.510   0.100  -0.460  0.00  0.00    -0.273 OA
ATOM     19  N   UNL     1       6.720   1.847  -1.811  0.00  0.00    -0.284 N 
ATOM     20  H   UNL     1       6.345   2.384  -2.526  0.00  0.00    +0.155 HD
BRANCH  19  21
ATOM     21  C   UNL     1       7.910   2.245  -1.185  0.00  0.00    +0.034 A 
ATOM     22  C   UNL     1       8.199   3.595  -1.040  0.00  0.00    +0.025 A 
ATOM     23  C   UNL     1       9.368   3.987  -0.419  0.00  0.00    +0.025 A 
ATOM     24  C   UNL     1      10.259   3.032   0.051  0.00  0.00    +0.030 A 
ATOM     25  C   UNL     1       9.972   1.681  -0.100  0.00  0.00    +0.025 A 
ATOM     26  C   UNL     1       8.801   1.289  -0.716  0.00  0.00    +0.025 A 
BRANCH  24  27
ATOM     27  N   UNL     1      11.446   3.429   0.675  0.00  0.00    -0.326 N 
ATOM     28  C   UNL     1      11.553   2.850   2.023  0.00  0.00    +0.133 C 
ATOM     29  C   UNL     1      12.890   3.261   2.645  0.00  0.00    +0.178 C 
ATOM     30  O   UNL     1      12.985   4.688   2.659  0.00  0.00    -0.377 OA
ATOM     31  C   UNL     1      12.886   5.285   1.364  0.00  0.00    +0.178 C 
ATOM     32  C   UNL     1      11.549   4.895   0.728  0.00  0.00    +0.133 C 
ENDBRANCH  24  27
ENDBRANCH  19  21
ENDBRANCH  11  17
ENDBRANCH   1  11
BRANCH   2  33
ATOM     33  C   UNL     1       3.119  -2.758  -0.550  0.00  0.00    +0.212 C 
BRANCH  33  34
ATOM     34  N   UNL     1       2.951  -4.101  -1.111  0.00  0.00    -0.225 N 
ATOM     35  C   UNL     1       1.922  -4.477  -1.893  0.00  0.00    +0.254 C 
ATOM     36  O   UNL     1       1.000  -3.767  -2.240  0.00  0.00    -0.270 OA
ATOM     37  C   UNL     1       2.104  -5.897  -2.260  0.00  0.00    +0.049 A 
ATOM     38  C   UNL     1       1.383  -6.798  -3.027  0.00  0.00    +0.014 A 
ATOM     39  C   UNL     1       1.840  -8.098  -3.171  0.00  0.00    +0.001 A 
ATOM     40  C   UNL     1       3.010  -8.502  -2.555  0.00  0.00    +0.001 A 
ATOM     41  C   UNL     1       3.742  -7.612  -1.785  0.00  0.00    +0.014 A 
ATOM     42  C   UNL     1       3.297  -6.308  -1.632  0.00  0.00    +0.049 A 
ATOM     43  C   UNL     1       3.802  -5.123  -0.908  0.00  0.00    +0.254 C 
ATOM     44  O   UNL     1       4.816  -5.079  -0.241  0.00  0.00    -0.270 OA
ENDBRANCH  33  34
ENDBRANCH   2  33
TORSDOF 9
