REMARK  Name = ZINC36007645
REMARK  11 active torsions:
REMARK  status: ('A' for Active; 'I' for Inactive)
REMARK    1  A    between atoms: C_1  and  C_2
REMARK    2  A    between atoms: C_7  and  C_8
REMARK    3  A    between atoms: C_7  and  C_9
REMARK    4  A    between atoms: C_11  and  N_13
REMARK    5  A    between atoms: C_14  and  C_16
REMARK    6  A    between atoms: C_16  and  S_17
REMARK    7  A    between atoms: S_17  and  C_18
REMARK    8  A    between atoms: C_21  and  C_24
REMARK    9  A    between atoms: N_22  and  N_23
REMARK   10  A    between atoms: C_27  and  O_30
REMARK   11  A    between atoms: O_30  and  C_31
REMARK                            x       y       z     vdW  Elec       q    Type
REMARK                         _______ _______ _______ _____ _____    ______ ____
ROOT
ATOM      1  C   UNL     1      -0.638  -0.661  -7.638  0.00  0.00    +0.209 A 
ATOM      2  N   UNL     1      -1.943  -0.744  -7.513  0.00  0.00    -0.121 NA
ATOM      3  N   UNL     1      -2.497  -0.764  -8.672  0.00  0.00    -0.127 NA
ATOM      4  C   UNL     1      -1.580  -0.696  -9.609  0.00  0.00    +0.182 A 
ATOM      5  N   UNL     1      -0.361  -0.623  -8.976  0.00  0.00    -0.224 N 
ENDROOT
BRANCH   4   6
ATOM      6  C   UNL     1      -1.813  -0.693 -11.069  0.00  0.00    +0.021 A 
ATOM      7  C   UNL     1      -0.755  -0.937 -11.947  0.00  0.00    +0.015 A 
ATOM      8  C   UNL     1      -0.977  -0.934 -13.307  0.00  0.00    +0.046 A 
ATOM      9  C   UNL     1      -2.250  -0.689 -13.805  0.00  0.00    +0.127 A 
ATOM     10  C   UNL     1      -3.304  -0.447 -12.935  0.00  0.00    +0.046 A 
ATOM     11  C   UNL     1      -3.092  -0.453 -11.573  0.00  0.00    +0.015 A 
BRANCH   9  12
ATOM     12  O   UNL     1      -2.464  -0.686 -15.147  0.00  0.00    -0.434 OA
BRANCH  12  13
ATOM     13  C   UNL     1      -3.797  -0.428 -15.590  0.00  0.00    +0.541 C 
ATOM     14  F   UNL     1      -4.658  -1.403 -15.074  0.00  0.00    -0.166 F 
ATOM     15  F   UNL     1      -4.201   0.835 -15.143  0.00  0.00    -0.166 F 
ENDBRANCH  12  13
ENDBRANCH   9  12
ENDBRANCH   4   6
BRANCH   5  16
ATOM     16  N   UNL     1       0.870  -0.533  -9.561  0.00  0.00    -0.295 N 
ATOM     17  H   UNL     1       1.257  -1.449  -9.731  0.00  0.00    +0.163 HD
ATOM     18  H   UNL     1       0.826   0.005 -10.414  0.00  0.00    +0.163 HD
ENDBRANCH   5  16
BRANCH   1  19
ATOM     19  S   UNL     1       0.536  -0.604  -6.325  0.00  0.00    -0.075 S 
BRANCH  19  20
ATOM     20  C   UNL     1      -0.478  -0.694  -4.825  0.00  0.00    +0.173 C 
BRANCH  20  22
ATOM     21  N   UNL     1      -0.124  -0.708  -2.377  0.00  0.00    -0.311 N 
ATOM     22  C   UNL     1       0.414  -0.654  -3.611  0.00  0.00    +0.224 C 
ATOM     23  O   UNL     1       1.617  -0.572  -3.746  0.00  0.00    -0.275 OA
ATOM     24  H   UNL     1      -1.085  -0.773  -2.269  0.00  0.00    +0.149 HD
BRANCH  21  34
ATOM     25  C   UNL     1       2.080   1.558  -1.535  0.00  0.00    +0.013 C 
ATOM     26  C   UNL     1       0.998   0.805  -0.758  0.00  0.00    -0.008 C 
ATOM     27  C   UNL     1      -0.411   1.473  -0.730  0.00  0.00    +0.009 C 
ATOM     28  C   UNL     1      -1.123   0.832   0.483  0.00  0.00    +0.005 C 
ATOM     29  C   UNL     1      -0.078  -0.162   1.074  0.00  0.00    -0.003 C 
ATOM     30  C   UNL     1       1.256   0.610   0.778  0.00  0.00    -0.025 C 
ATOM     31  C   UNL     1       1.325   1.945   1.523  0.00  0.00    +0.012 C 
ATOM     32  C   UNL     1       2.491  -0.254   1.047  0.00  0.00    +0.012 C 
ATOM     33  C   UNL     1      -0.004  -1.317   0.030  0.00  0.00    +0.027 C 
ATOM     34  C   UNL     1       0.744  -0.669  -1.197  0.00  0.00    +0.080 C 
ENDBRANCH  21  34
ENDBRANCH  20  22
ENDBRANCH  19  20
ENDBRANCH   1  19
TORSDOF 8
