REMARK  Name = ZINC41636186
REMARK  8 active torsions:
REMARK  status: ('A' for Active; 'I' for Inactive)
REMARK    1  A    between atoms: C_1  and  C_2
REMARK    2  A    between atoms: C_6  and  C_8
REMARK    3  A    between atoms: C_8  and  C_10
REMARK    4  A    between atoms: C_8  and  N_19
REMARK    5  A    between atoms: C_11  and  O_18
REMARK    6  A    between atoms: N_19  and  C_20
REMARK    7  A    between atoms: N_19  and  C_21
REMARK    8  A    between atoms: N_24  and  C_27
REMARK                            x       y       z     vdW  Elec       q    Type
REMARK                         _______ _______ _______ _____ _____    ______ ____
ROOT
ATOM      1  C   UNL     1       0.054  -2.845   2.489  0.00  0.00    +0.129 C 
ENDROOT
BRANCH   1   2
ATOM      2  C   UNL     1       1.460  -3.293   2.790  0.00  0.00    +0.076 A 
ATOM      3  C   UNL     1       2.263  -2.935   3.800  0.00  0.00    +0.228 A 
ATOM      4  N   UNL     1       3.529  -3.459   3.908  0.00  0.00    -0.174 N 
ATOM      5  C   UNL     1       3.920  -4.346   2.951  0.00  0.00    +0.199 A 
ATOM      6  S   UNL     1       2.492  -4.447   1.899  0.00  0.00    -0.047 S 
ATOM      7  N   UNL     1       5.138  -4.745   3.197  0.00  0.00    -0.208 NA
ATOM      8  C   UNL     1       5.583  -4.148   4.300  0.00  0.00    +0.246 A 
ATOM      9  N   UNL     1       4.652  -3.361   4.769  0.00  0.00    -0.150 NA
BRANCH   3  10
ATOM     10  O   UNL     1       1.821  -2.044   4.728  0.00  0.00    -0.492 OA
ATOM     11  H   UNL     1       2.467  -1.845   5.420  0.00  0.00    +0.294 HD
ENDBRANCH   3  10
ENDBRANCH   1   2
BRANCH   1  17
ATOM     12  C   UNL     1      -0.018   1.503   0.010  0.00  0.00    +0.044 C 
ATOM     13  C   UNL     1       0.002  -0.004   0.002  0.00  0.00    -0.050 A 
ATOM     14  C   UNL     1       0.006  -0.689  -1.199  0.00  0.00    +0.003 A 
ATOM     15  C   UNL     1       0.025  -2.071  -1.207  0.00  0.00    +0.001 A 
ATOM     16  C   UNL     1       0.040  -2.768  -0.013  0.00  0.00    +0.005 A 
ATOM     17  C   UNL     1       0.037  -2.084   1.188  0.00  0.00    -0.025 A 
ATOM     18  C   UNL     1       0.023  -0.702   1.195  0.00  0.00    +0.009 A 
ENDBRANCH   1  17
BRANCH   1  19
ATOM     19  N   UNL     1      -0.822  -4.019   2.380  0.00  0.00    -0.291 NA
ATOM     20  C   UNL     1      -0.758  -4.837   3.599  0.00  0.00    +0.106 C 
BRANCH  19  21
ATOM     21  C   UNL     1      -2.204  -3.619   2.086  0.00  0.00    +0.054 C 
ATOM     22  C   UNL     1      -2.773  -2.832   3.270  0.00  0.00    +0.000 C 
ATOM     23  C   UNL     1      -4.238  -2.488   2.990  0.00  0.00    -0.078 C 
ATOM     24  N   UNL     1      -5.008  -3.724   2.807  0.00  0.00    +0.378 N 
ATOM     25  C   UNL     1      -4.515  -4.449   1.629  0.00  0.00    -0.078 C 
ATOM     26  C   UNL     1      -3.061  -4.868   1.857  0.00  0.00    +0.000 C 
ATOM     27  C   UNL     1      -6.426  -3.391   2.616  0.00  0.00    -0.096 C 
ATOM     28  H   UNL     1      -4.909  -4.306   3.625  0.00  0.00    -0.082 HD
ENDBRANCH  19  21
ENDBRANCH   1  19
TORSDOF 5
