REMARK  Name = ZINC36812456
REMARK  9 active torsions:
REMARK  status: ('A' for Active; 'I' for Inactive)
REMARK    1  A    between atoms: C_1  and  C_2
REMARK    2  A    between atoms: C_5  and  N_8
REMARK    3  A    between atoms: C_9  and  C_25
REMARK    4  A    between atoms: C_12  and  S_13
REMARK    5  A    between atoms: S_13  and  C_14
REMARK    6  A    between atoms: C_14  and  C_16
REMARK    7  A    between atoms: C_14  and  C_19
REMARK    8  A    between atoms: C_16  and  C_17
REMARK    9  A    between atoms: C_16  and  C_18
REMARK                            x       y       z     vdW  Elec       q    Type
REMARK                         _______ _______ _______ _____ _____    ______ ____
ROOT
ATOM      1  N   UNL     1       0.359  -4.001   0.220  0.00  0.00    -0.270 N 
ATOM      2  C   UNL     1      -0.574  -4.800   0.844  0.00  0.00    +0.172 A 
ATOM      3  N   UNL     1      -0.262  -6.045   0.566  0.00  0.00    -0.128 NA
ATOM      4  N   UNL     1       0.786  -6.081  -0.176  0.00  0.00    -0.122 NA
ATOM      5  C   UNL     1       1.207  -4.861  -0.425  0.00  0.00    +0.197 A 
ENDROOT
BRANCH   1  10
ATOM      6  C   UNL     1       0.621   1.668   0.293  0.00  0.00    +0.044 C 
ATOM      7  C   UNL     1       0.551   0.162   0.273  0.00  0.00    -0.050 A 
ATOM      8  C   UNL     1       0.256  -0.500  -0.904  0.00  0.00    +0.005 A 
ATOM      9  C   UNL     1       0.192  -1.879  -0.925  0.00  0.00    +0.026 A 
ATOM     10  C   UNL     1       0.424  -2.601   0.238  0.00  0.00    +0.051 A 
ATOM     11  C   UNL     1       0.721  -1.934   1.419  0.00  0.00    +0.026 A 
ATOM     12  C   UNL     1       0.789  -0.554   1.432  0.00  0.00    +0.005 A 
ENDBRANCH   1  10
BRANCH   2  13
ATOM     13  C   UNL     1      -1.712  -4.343   1.669  0.00  0.00    +0.055 A 
ATOM     14  C   UNL     1      -2.536  -3.311   1.216  0.00  0.00    +0.014 A 
ATOM     15  C   UNL     1      -3.596  -2.889   1.991  0.00  0.00    +0.001 A 
ATOM     16  C   UNL     1      -3.844  -3.484   3.215  0.00  0.00    +0.003 A 
ATOM     17  C   UNL     1      -3.032  -4.506   3.672  0.00  0.00    +0.039 A 
ATOM     18  C   UNL     1      -1.970  -4.944   2.903  0.00  0.00    +0.134 A 
ATOM     19  F   UNL     1      -1.181  -5.947   3.347  0.00  0.00    -0.205 F 
ENDBRANCH   2  13
BRANCH   5  20
ATOM     20  S   UNL     1       2.603  -4.415  -1.403  0.00  0.00    -0.073 S 
BRANCH  20  21
ATOM     21  C   UNL     1       3.192  -5.995  -2.072  0.00  0.00    +0.143 C 
BRANCH  21  22
ATOM     22  C   UNL     1       3.740  -6.841  -0.952  0.00  0.00    +0.234 C 
ATOM     23  O   UNL     1       4.073  -6.323   0.093  0.00  0.00    -0.274 OA
ATOM     24  N   UNL     1       3.861  -8.174  -1.111  0.00  0.00    -0.239 N 
ATOM     25  C   UNL     1       4.351  -8.931  -0.109  0.00  0.00    +0.303 C 
ATOM     26  O   UNL     1       4.684  -8.412   0.938  0.00  0.00    -0.253 OA
ATOM     27  N   UNL     1       4.471 -10.264  -0.268  0.00  0.00    -0.313 N 
ATOM     28  H   UNL     1       3.595  -8.589  -1.947  0.00  0.00    +0.159 HD
ATOM     29  H   UNL     1       4.205 -10.678  -1.104  0.00  0.00    +0.146 HD
ATOM     30  H   UNL     1       4.824 -10.809   0.453  0.00  0.00    +0.146 HD
ENDBRANCH  21  22
BRANCH  21  31
ATOM     31  C   UNL     1       4.295  -5.734  -3.100  0.00  0.00    +0.005 C 
ATOM     32  C   UNL     1       4.810  -7.067  -3.646  0.00  0.00    +0.009 C 
ATOM     33  C   UNL     1       3.732  -4.896  -4.249  0.00  0.00    +0.009 C 
ENDBRANCH  21  31
ENDBRANCH  20  21
ENDBRANCH   5  20
TORSDOF 6
