REMARK  Name = ZINC58404135
REMARK  4 active torsions:
REMARK  status: ('A' for Active; 'I' for Inactive)
REMARK    1  A    between atoms: C_1  and  C_2
REMARK    2  A    between atoms: C_5  and  S_22
REMARK    3  A    between atoms: C_7  and  C_8
REMARK    4  A    between atoms: S_22  and  N_25
REMARK                            x       y       z     vdW  Elec       q    Type
REMARK                         _______ _______ _______ _____ _____    ______ ____
ROOT
ATOM      1  C   UNL     1      -2.167   0.366   0.636  0.00  0.00    +0.044 C 
ATOM      2  C   UNL     1      -1.017  -0.548   0.301  0.00  0.00    -0.038 A 
ATOM      3  C   UNL     1      -1.047  -1.303  -0.854  0.00  0.00    +0.006 A 
ATOM      4  C   UNL     1       0.008  -2.143  -1.163  0.00  0.00    +0.029 A 
ATOM      5  C   UNL     1       1.100  -2.232  -0.318  0.00  0.00    +0.106 A 
ATOM      6  C   UNL     1       1.143  -1.482   0.840  0.00  0.00    +0.041 A 
ATOM      7  C   UNL     1       0.084  -0.629   1.155  0.00  0.00    +0.042 A 
ENDROOT
BRANCH   7   8
ATOM      8  C   UNL     1       0.126   0.181   2.391  0.00  0.00    +0.247 C 
ATOM      9  O   UNL     1      -0.017   1.387   2.332  0.00  0.00    -0.270 OA
ATOM     10  N   UNL     1       0.323  -0.417   3.583  0.00  0.00    -0.290 N 
ATOM     11  C   UNL     1       0.603  -1.861   3.679  0.00  0.00    +0.136 C 
ATOM     12  C   UNL     1      -0.343  -2.480   4.713  0.00  0.00    +0.179 C 
ATOM     13  O   UNL     1      -0.288  -1.730   5.932  0.00  0.00    -0.373 OA
ATOM     14  C   UNL     1      -0.702  -0.374   5.784  0.00  0.00    +0.139 C 
ATOM     15  C   UNL     1       0.274   0.344   4.837  0.00  0.00    +0.105 C 
ATOM     16  C   UNL     1      -0.226   1.766   4.593  0.00  0.00    +0.025 C 
ATOM     17  C   UNL     1      -0.259   2.516   5.928  0.00  0.00    +0.002 C 
ATOM     18  C   UNL     1      -1.186   1.798   6.909  0.00  0.00    +0.003 C 
ATOM     19  C   UNL     1      -0.701   0.358   7.124  0.00  0.00    +0.033 C 
ENDBRANCH   7   8
BRANCH   5  20
ATOM     20  S   UNL     1       2.438  -3.305  -0.720  0.00  0.00    +0.056 S 
ATOM     21  O   UNL     1       3.090  -3.618   0.503  0.00  0.00    -0.153 OA
ATOM     22  O   UNL     1       1.911  -4.306  -1.580  0.00  0.00    -0.153 OA
BRANCH  20  23
ATOM     23  N   UNL     1       3.516  -2.428  -1.620  0.00  0.00    -0.204 NA
ATOM     24  H   UNL     1       3.333  -1.497  -1.824  0.00  0.00    +0.144 HD
ATOM     25  H   UNL     1       4.330  -2.844  -1.943  0.00  0.00    +0.144 HD
ENDBRANCH  20  23
ENDBRANCH   5  20
TORSDOF 3
