REMARK  Name = ZINC63426830
REMARK  8 active torsions:
REMARK  status: ('A' for Active; 'I' for Inactive)
REMARK    1  A    between atoms: C_1  and  O_2
REMARK    2  A    between atoms: O_2  and  C_3
REMARK    3  A    between atoms: C_3  and  C_5
REMARK    4  A    between atoms: C_5  and  C_7
REMARK    5  A    between atoms: C_5  and  N_17
REMARK    6  A    between atoms: C_7  and  C_8
REMARK    7  A    between atoms: N_17  and  C_18
REMARK    8  A    between atoms: N_25  and  C_28
REMARK                            x       y       z     vdW  Elec       q    Type
REMARK                         _______ _______ _______ _____ _____    ______ ____
ROOT
ATOM      1  C   UNL     1       2.700  -2.578  -2.362  0.00  0.00    +0.086 C 
ATOM      2  C   UNL     1       3.352  -3.053  -3.484  0.00  0.00    +0.113 C 
ATOM      3  C   UNL     1       2.618  -3.378  -4.720  0.00  0.00    +0.256 C 
ATOM      4  O   UNL     1       1.411  -3.236  -4.786  0.00  0.00    -0.270 OA
ATOM      5  N   UNL     1       3.320  -3.837  -5.777  0.00  0.00    -0.263 N 
ATOM      6  C   UNL     1       4.649  -3.998  -5.718  0.00  0.00    +0.151 C 
ATOM      7  S   UNL     1       5.457  -4.586  -7.108  0.00  0.00    -0.018 S 
ATOM      8  N   UNL     1       5.380  -3.723  -4.628  0.00  0.00    -0.217 N 
ATOM      9  C   UNL     1       4.812  -3.252  -3.499  0.00  0.00    +0.263 C 
ATOM     10  O   UNL     1       5.487  -3.001  -2.518  0.00  0.00    -0.269 OA
ATOM     11  H   UNL     1       2.852  -4.056  -6.598  0.00  0.00    +0.157 HD
ENDROOT
BRANCH   8  12
ATOM     12  C   UNL     1       6.763  -3.925  -4.664  0.00  0.00    +0.051 A 
ATOM     13  C   UNL     1       7.604  -2.908  -5.061  0.00  0.00    +0.024 A 
ATOM     14  C   UNL     1       8.982  -3.098  -5.101  0.00  0.00    +0.002 A 
ATOM     15  C   UNL     1       9.537  -4.291  -4.750  0.00  0.00    +0.008 A 
ATOM     16  C   UNL     1       8.714  -5.354  -4.340  0.00  0.00    -0.016 A 
ATOM     17  C   UNL     1       7.311  -5.170  -4.290  0.00  0.00    +0.004 A 
ATOM     18  C   UNL     1       6.491  -6.231  -3.874  0.00  0.00    +0.010 A 
ATOM     19  C   UNL     1       7.054  -7.419  -3.520  0.00  0.00    +0.001 A 
ATOM     20  C   UNL     1       8.435  -7.599  -3.563  0.00  0.00    +0.001 A 
ATOM     21  C   UNL     1       9.260  -6.597  -3.973  0.00  0.00    +0.008 A 
ENDBRANCH   8  12
BRANCH   1  22
ATOM     22  N   UNL     1       1.352  -2.556  -2.324  0.00  0.00    -0.336 N 
ATOM     23  H   UNL     1       0.840  -2.948  -3.048  0.00  0.00    +0.146 HD
BRANCH  22  24
ATOM     24  C   UNL     1       0.662  -1.939  -1.188  0.00  0.00    +0.184 C 
BRANCH  24  25
ATOM     25  C   UNL     1       0.536  -0.456  -1.422  0.00  0.00    +0.328 C 
ATOM     26  O   UNL     1       0.977   0.036  -2.433  0.00  0.00    -0.249 OA
BRANCH  25  28
ATOM     27  C   UNL     1      -0.151   1.716  -0.793  0.00  0.00    +0.280 C 
ATOM     28  O   UNL     1      -0.067   0.319  -0.507  0.00  0.00    -0.467 OA
ENDBRANCH  25  28
ENDBRANCH  24  25
BRANCH  24  29
ATOM     29  C   UNL     1      -0.732  -2.553  -1.045  0.00  0.00    +0.066 C 
BRANCH  29  30
ATOM     30  C   UNL     1      -0.604  -4.012  -0.689  0.00  0.00    -0.039 C 
ATOM     31  C   UNL     1      -0.639  -4.554   0.550  0.00  0.00    -0.001 A 
ATOM     32  C   UNL     1      -0.799  -3.968   1.886  0.00  0.00    +0.010 A 
ATOM     33  C   UNL     1      -0.792  -4.785   2.965  0.00  0.00    +0.001 A 
ATOM     34  C   UNL     1      -0.636  -6.172   2.838  0.00  0.00    +0.002 A 
ATOM     35  C   UNL     1      -0.484  -6.783   1.644  0.00  0.00    +0.026 A 
ATOM     36  C   UNL     1      -0.477  -6.021   0.443  0.00  0.00    +0.043 A 
ATOM     37  N   UNL     1      -0.347  -6.373  -0.813  0.00  0.00    -0.380 N 
ATOM     38  C   UNL     1      -0.418  -5.168  -1.647  0.00  0.00    +0.144 C 
ATOM     39  H   UNL     1      -0.227  -7.280  -1.137  0.00  0.00    +0.160 HD
ENDBRANCH  29  30
ENDBRANCH  24  29
ENDBRANCH  22  24
ENDBRANCH   1  22
TORSDOF 7
