REMARK  Name = ZINC17444729
REMARK  9 active torsions:
REMARK  status: ('A' for Active; 'I' for Inactive)
REMARK    1  A    between atoms: C_1  and  C_2
REMARK    2  A    between atoms: C_4  and  C_15
REMARK    3  A    between atoms: C_5  and  C_14
REMARK    4  A    between atoms: N_6  and  C_7
REMARK    5  A    between atoms: N_17  and  N_18
REMARK    6  A    between atoms: C_19  and  C_21
REMARK    7  A    between atoms: C_21  and  N_22
REMARK    8  A    between atoms: C_25  and  C_29
REMARK    9  A    between atoms: C_25  and  C_30
REMARK                            x       y       z     vdW  Elec       q    Type
REMARK                         _______ _______ _______ _____ _____    ______ ____
ROOT
ATOM      1  C   UNL     1       2.569   1.577  -0.014  0.00  0.00    +0.262 C 
ATOM      2  O   UNL     1       3.436   2.430  -0.017  0.00  0.00    -0.269 OA
ATOM      3  N   UNL     1       2.906   0.273  -0.024  0.00  0.00    -0.230 N 
ATOM      4  H   UNL     1       2.215  -0.407  -0.021  0.00  0.00    +0.173 HD
ENDROOT
BRANCH   1   8
ATOM      5  C   UNL     1      -2.530   1.391   0.019  0.00  0.00    +0.064 C 
ATOM      6  C   UNL     1      -1.100   1.867   0.017  0.00  0.00    +0.022 A 
ATOM      7  C   UNL     1      -0.013   1.076   0.008  0.00  0.00    +0.036 A 
ATOM      8  C   UNL     1       1.150   1.971   0.002  0.00  0.00    +0.059 A 
ATOM      9  C   UNL     1       0.650   3.244   0.013  0.00  0.00    +0.033 A 
ATOM     10  N   UNL     1      -0.696   3.172   0.026  0.00  0.00    -0.317 N 
ATOM     11  C   UNL     1       1.466   4.511   0.012  0.00  0.00    +0.064 C 
BRANCH  10  12
ATOM     12  C   UNL     1      -1.558   4.278   0.039  0.00  0.00    +0.047 A 
ATOM     13  C   UNL     1      -1.579   5.130   1.135  0.00  0.00    +0.029 A 
ATOM     14  C   UNL     1      -2.424   6.222   1.144  0.00  0.00    +0.040 A 
ATOM     15  C   UNL     1      -3.260   6.461   0.066  0.00  0.00    +0.124 A 
ATOM     16  C   UNL     1      -3.245   5.609  -1.026  0.00  0.00    +0.040 A 
ATOM     17  C   UNL     1      -2.397   4.519  -1.041  0.00  0.00    +0.029 A 
ATOM     18  F   UNL     1      -4.090   7.527   0.079  0.00  0.00    -0.205 F 
ENDBRANCH  10  12
ENDBRANCH   1   8
BRANCH   3  19
ATOM     19  N   UNL     1       4.256  -0.102  -0.038  0.00  0.00    -0.233 N 
ATOM     20  C   UNL     1       4.594  -1.406  -0.049  0.00  0.00    +0.247 C 
ATOM     21  O   UNL     1       3.729  -2.256  -0.045  0.00  0.00    -0.273 OA
ATOM     22  H   UNL     1       4.948   0.579  -0.041  0.00  0.00    +0.173 HD
BRANCH  20  23
ATOM     23  C   UNL     1       6.046  -1.809  -0.064  0.00  0.00    +0.215 C 
BRANCH  23  24
ATOM     24  N   UNL     1       6.148  -3.270  -0.073  0.00  0.00    -0.215 N 
ATOM     25  C   UNL     1       6.190  -4.019  -1.193  0.00  0.00    +0.247 C 
ATOM     26  O   UNL     1       6.151  -3.626  -2.339  0.00  0.00    -0.273 OA
ATOM     27  C   UNL     1       6.295  -5.456  -0.721  0.00  0.00    +0.113 C 
ATOM     28  N   UNL     1       6.300  -5.338   0.748  0.00  0.00    -0.285 N 
ATOM     29  C   UNL     1       6.216  -4.026   1.029  0.00  0.00    +0.310 C 
ATOM     30  O   UNL     1       6.200  -3.576   2.158  0.00  0.00    -0.252 OA
ATOM     31  C   UNL     1       7.595  -6.092  -1.218  0.00  0.00    +0.042 C 
ATOM     32  H   UNL     1       6.358  -6.066   1.387  0.00  0.00    +0.151 HD
BRANCH  27  33
ATOM     33  C   UNL     1       5.086  -6.267  -1.192  0.00  0.00    +0.021 C 
ATOM     34  C   UNL     1       4.095  -6.740  -0.127  0.00  0.00    +0.006 C 
ATOM     35  C   UNL     1       5.032  -7.745  -0.801  0.00  0.00    +0.006 C 
ENDBRANCH  27  33
ENDBRANCH  23  24
ENDBRANCH  20  23
ENDBRANCH   3  19
TORSDOF 6
