REMARK  Name = ZINC39267725
REMARK  7 active torsions:
REMARK  status: ('A' for Active; 'I' for Inactive)
REMARK    1  A    between atoms: C_3  and  C_6
REMARK    2  A    between atoms: C_6  and  C_7
REMARK    3  A    between atoms: C_7  and  N_8
REMARK    4  A    between atoms: C_9  and  C_11
REMARK    5  A    between atoms: C_14  and  N_17
REMARK    6  A    between atoms: C_20  and  N_25
REMARK    7  A    between atoms: N_25  and  C_26
REMARK                            x       y       z     vdW  Elec       q    Type
REMARK                         _______ _______ _______ _____ _____    ______ ____
ROOT
ATOM      1  N   UNL     1      12.764   4.239   1.924  0.00  0.00    -0.301 N 
ATOM      2  C   UNL     1      13.339   4.524   3.154  0.00  0.00    +0.106 A 
ATOM      3  C   UNL     1      13.684   5.832   3.485  0.00  0.00    +0.085 A 
ATOM      4  C   UNL     1      14.259   6.070   4.730  0.00  0.00    +0.130 A 
ATOM      5  N   UNL     1      14.458   5.047   5.558  0.00  0.00    -0.201 NA
ATOM      6  C   UNL     1      14.118   3.816   5.209  0.00  0.00    +0.193 A 
ATOM      7  N   UNL     1      13.563   3.552   4.035  0.00  0.00    -0.316 N 
ATOM      8  N   UNL     1      14.341   2.778   6.096  0.00  0.00    -0.329 N 
ATOM      9  H   UNL     1      12.966   4.793   1.153  0.00  0.00    +0.154 HD
ATOM     10  H   UNL     1      14.742   2.957   6.961  0.00  0.00    +0.145 HD
ATOM     11  H   UNL     1      14.096   1.871   5.854  0.00  0.00    +0.145 HD
ATOM     12  H   UNL     1      13.322   2.640   3.813  0.00  0.00    +0.170 HD
ENDROOT
BRANCH   1  16
ATOM     13  C   UNL     1      10.167   1.007   1.540  0.00  0.00    +0.037 A 
ATOM     14  C   UNL     1      10.840   1.502   0.419  0.00  0.00    +0.015 A 
ATOM     15  C   UNL     1      11.697   2.571   0.549  0.00  0.00    +0.024 A 
ATOM     16  C   UNL     1      11.895   3.159   1.795  0.00  0.00    +0.032 A 
ATOM     17  C   UNL     1      11.227   2.667   2.913  0.00  0.00    +0.024 A 
ATOM     18  C   UNL     1      10.364   1.603   2.789  0.00  0.00    +0.015 A 
BRANCH  13  20
ATOM     19  N   UNL     1       9.059  -0.712   0.199  0.00  0.00    -0.311 N 
ATOM     20  C   UNL     1       9.248  -0.138   1.404  0.00  0.00    +0.244 C 
ATOM     21  O   UNL     1       8.659  -0.565   2.379  0.00  0.00    -0.270 OA
ATOM     22  H   UNL     1       9.528  -0.372  -0.579  0.00  0.00    +0.149 HD
BRANCH  19  23
ATOM     23  C   UNL     1       8.146  -1.850   0.064  0.00  0.00    +0.109 C 
BRANCH  23  24
ATOM     24  C   UNL     1       8.115  -2.308  -1.396  0.00  0.00    +0.061 C 
BRANCH  24  27
ATOM     25  C   UNL     1       5.180  -4.687  -1.886  0.00  0.00    +0.008 A 
ATOM     26  C   UNL     1       5.847  -3.479  -1.804  0.00  0.00    +0.011 A 
ATOM     27  C   UNL     1       7.175  -3.478  -1.534  0.00  0.00    -0.009 A 
ATOM     28  S   UNL     1       7.523  -5.223  -1.388  0.00  0.00    -0.102 S 
ATOM     29  C   UNL     1       5.875  -5.835  -1.695  0.00  0.00    +0.045 A 
ENDBRANCH  24  27
ENDBRANCH  23  24
ENDBRANCH  19  23
ENDBRANCH  13  20
ENDBRANCH   1  16
BRANCH   4  30
ATOM     30  N   UNL     1      14.619   7.356   5.103  0.00  0.00    -0.299 N 
ATOM     31  H   UNL     1      14.395   8.108   4.531  0.00  0.00    +0.154 HD
BRANCH  30  32
ATOM     32  C   UNL     1      15.305   7.571   6.303  0.00  0.00    +0.034 A 
ATOM     33  C   UNL     1      15.021   6.795   7.426  0.00  0.00    +0.025 A 
ATOM     34  C   UNL     1      15.672   6.982   8.604  0.00  0.00    +0.031 A 
ATOM     35  C   UNL     1      16.669   7.978   8.734  0.00  0.00    +0.078 A 
ATOM     36  C   UNL     1      16.938   8.749   7.579  0.00  0.00    +0.041 A 
ATOM     37  C   UNL     1      16.281   8.554   6.389  0.00  0.00    +0.040 A 
ATOM     38  S   UNL     1      18.211   9.848   8.150  0.00  0.00    -0.075 S 
ATOM     39  C   UNL     1      18.302   9.234   9.826  0.00  0.00    +0.157 A 
ATOM     40  N   UNL     1      17.403   8.287   9.825  0.00  0.00    -0.247 NA
ENDBRANCH  30  32
ENDBRANCH   4  30
TORSDOF 7
