REMARK  Name = ZINC58018183
REMARK  4 active torsions:
REMARK  status: ('A' for Active; 'I' for Inactive)
REMARK    1  A    between atoms: C_1  and  C_2
REMARK    2  A    between atoms: C_5  and  C_7
REMARK    3  A    between atoms: C_7  and  N_8
REMARK    4  A    between atoms: C_14  and  C_17
REMARK                            x       y       z     vdW  Elec       q    Type
REMARK                         _______ _______ _______ _____ _____    ______ ____
ROOT
ATOM      1  N   UNL     1       1.447  -4.453   1.060  0.00  0.00    -0.219 N 
ATOM      2  C   UNL     1       2.167  -5.049   0.087  0.00  0.00    +0.247 C 
ATOM      3  O   UNL     1       1.804  -5.311  -1.040  0.00  0.00    -0.273 OA
ATOM      4  C   UNL     1       3.523  -5.322   0.699  0.00  0.00    +0.113 C 
ATOM      5  C   UNL     1       3.807  -6.819   0.715  0.00  0.00    +0.035 C 
ATOM      6  C   UNL     1       3.882  -7.342  -0.722  0.00  0.00    +0.006 C 
ATOM      7  C   UNL     1       4.991  -6.603  -1.474  0.00  0.00    -0.014 C 
ATOM      8  C   UNL     1       4.683  -5.105  -1.500  0.00  0.00    +0.006 C 
ATOM      9  C   UNL     1       4.610  -4.575  -0.066  0.00  0.00    +0.035 C 
ATOM     10  C   UNL     1       5.074  -7.132  -2.907  0.00  0.00    +0.007 C 
ATOM     11  N   UNL     1       3.407  -4.804   2.067  0.00  0.00    -0.285 N 
ATOM     12  C   UNL     1       2.159  -4.311   2.184  0.00  0.00    +0.310 C 
ATOM     13  O   UNL     1       1.727  -3.797   3.197  0.00  0.00    -0.252 OA
ATOM     14  H   UNL     1       4.095  -4.812   2.752  0.00  0.00    +0.151 HD
ENDROOT
BRANCH   1  15
ATOM     15  C   UNL     1       0.059  -4.011   0.902  0.00  0.00    +0.162 C 
BRANCH  15  20
ATOM     16  C   UNL     1      -0.018   1.503   0.010  0.00  0.00    +0.073 C 
ATOM     17  C   UNL     1       0.002  -0.004   0.002  0.00  0.00    +0.075 A 
ATOM     18  N   UNL     1       0.009  -0.812  -1.029  0.00  0.00    -0.252 NA
ATOM     19  C   UNL     1       0.027  -2.121  -0.874  0.00  0.00    +0.124 A 
ATOM     20  C   UNL     1       0.039  -2.590   0.400  0.00  0.00    +0.027 A 
ATOM     21  S   UNL     1       0.029  -1.057   1.315  0.00  0.00    -0.076 S 
ENDBRANCH  15  20
ENDBRANCH   1  15
TORSDOF 2
