REMARK  Name = ZINC01392850
REMARK  4 active torsions:
REMARK  status: ('A' for Active; 'I' for Inactive)
REMARK    1  A    between atoms: C_4  and  C_7
REMARK    2  A    between atoms: N_9  and  N_10
REMARK    3  A    between atoms: C_11  and  C_13
REMARK    4  A    between atoms: C_17  and  N_22
REMARK                            x       y       z     vdW  Elec       q    Type
REMARK                         _______ _______ _______ _____ _____    ______ ____
ROOT
ATOM      1  N   UNL     1      -2.394   1.152   0.020  0.00  0.00    -0.230 N 
ATOM      2  C   UNL     1      -3.571   1.810   0.029  0.00  0.00    +0.267 C 
ATOM      3  O   UNL     1      -3.587   3.027   0.035  0.00  0.00    -0.268 OA
ATOM      4  H   UNL     1      -2.381   0.182   0.014  0.00  0.00    +0.173 HD
ENDROOT
BRANCH   2   5
ATOM      5  C   UNL     1      -4.833   1.058   0.031  0.00  0.00    +0.076 A 
ATOM      6  C   UNL     1      -6.105   1.538   0.039  0.00  0.00    +0.029 A 
ATOM      7  C   UNL     1      -7.192   0.645   0.040  0.00  0.00    -0.008 A 
ATOM      8  C   UNL     1      -8.578   0.949   0.048  0.00  0.00    +0.041 A 
ATOM      9  C   UNL     1      -9.507  -0.042   0.047  0.00  0.00    +0.127 A 
ATOM     10  C   UNL     1      -9.141  -1.382   0.038  0.00  0.00    +0.034 A 
ATOM     11  C   UNL     1      -7.804  -1.723   0.030  0.00  0.00    +0.018 A 
ATOM     12  C   UNL     1      -6.850  -0.727   0.031  0.00  0.00    +0.020 A 
ATOM     13  S   UNL     1      -5.075  -0.710   0.014  0.00  0.00    -0.084 S 
BRANCH   9  14
ATOM     14  N   UNL     1     -10.943   0.315   0.055  0.00  0.00    +0.056 N 
ATOM     15  O   UNL     1     -11.789  -0.562   0.054  0.00  0.00    -0.126 OA
ATOM     16  O   UNL     1     -11.280   1.486   0.063  0.00  0.00    -0.126 OA
ENDBRANCH   9  14
ENDBRANCH   2   5
BRANCH   1  19
ATOM     17  C   UNL     1      -0.014   1.211   0.009  0.00  0.00    +0.260 C 
ATOM     18  O   UNL     1       0.002  -0.004   0.002  0.00  0.00    -0.269 OA
ATOM     19  N   UNL     1      -1.191   1.869   0.018  0.00  0.00    -0.230 N 
ATOM     20  H   UNL     1      -1.204   2.839   0.023  0.00  0.00    +0.173 HD
BRANCH  17  24
ATOM     21  C   UNL     1       3.635   3.385  -0.015  0.00  0.00    +0.000 A 
ATOM     22  C   UNL     1       3.657   2.002  -0.023  0.00  0.00    +0.001 A 
ATOM     23  C   UNL     1       2.475   1.290  -0.015  0.00  0.00    +0.013 A 
ATOM     24  C   UNL     1       1.256   1.968   0.001  0.00  0.00    +0.038 A 
ATOM     25  C   UNL     1       1.240   3.364   0.002  0.00  0.00    +0.013 A 
ATOM     26  C   UNL     1       2.429   4.064  -0.000  0.00  0.00    +0.001 A 
ENDBRANCH  17  24
ENDBRANCH   1  19
TORSDOF 4
