REMARK  Name = ZINC06318792
REMARK  8 active torsions:
REMARK  status: ('A' for Active; 'I' for Inactive)
REMARK    1  A    between atoms: C_1  and  C_2
REMARK    2  A    between atoms: C_2  and  N_3
REMARK    3  A    between atoms: C_7  and  C_9
REMARK    4  A    between atoms: C_9  and  S_10
REMARK    5  A    between atoms: S_10  and  C_11
REMARK    6  A    between atoms: C_13  and  C_23
REMARK    7  A    between atoms: C_16  and  C_22
REMARK    8  A    between atoms: C_18  and  C_21
REMARK                            x       y       z     vdW  Elec       q    Type
REMARK                         _______ _______ _______ _____ _____    ______ ____
ROOT
ATOM      1  C   UNL     1       2.296   1.475  -0.013  0.00  0.00    +0.098 A 
ATOM      2  C   UNL     1       2.381   0.074  -0.021  0.00  0.00    +0.038 A 
ATOM      3  C   UNL     1       1.243  -0.674  -0.014  0.00  0.00    -0.039 A 
ATOM      4  C   UNL     1       0.002  -0.004   0.002  0.00  0.00    +0.004 A 
ATOM      5  C   UNL     1      -1.208  -0.714   0.011  0.00  0.00    +0.013 A 
ATOM      6  C   UNL     1      -2.388  -0.034   0.026  0.00  0.00    -0.050 A 
ATOM      7  C   UNL     1      -2.410   1.359   0.034  0.00  0.00    +0.008 A 
ATOM      8  C   UNL     1      -1.254   2.079   0.031  0.00  0.00    -0.024 A 
ATOM      9  C   UNL     1      -0.017   1.412   0.010  0.00  0.00    +0.075 A 
ATOM     10  N   UNL     1       1.133   2.095   0.003  0.00  0.00    -0.240 NA
ATOM     11  C   UNL     1      -1.301   3.585   0.040  0.00  0.00    +0.046 C 
ATOM     12  C   UNL     1      -3.687  -0.798   0.035  0.00  0.00    +0.044 C 
ATOM     13  C   UNL     1       1.308  -2.180  -0.023  0.00  0.00    +0.044 C 
ENDROOT
BRANCH   1  14
ATOM     14  S   UNL     1       3.779   2.427  -0.022  0.00  0.00    -0.097 S 
BRANCH  14  15
ATOM     15  C   UNL     1       3.081   4.096  -0.007  0.00  0.00    +0.172 C 
BRANCH  15  20
ATOM     16  N   UNL     1       4.629   8.648   0.003  0.00  0.00    -0.299 N 
ATOM     17  C   UNL     1       4.913   7.330  -0.007  0.00  0.00    +0.306 C 
ATOM     18  O   UNL     1       6.069   6.958  -0.021  0.00  0.00    -0.252 OA
ATOM     19  N   UNL     1       3.914   6.426  -0.002  0.00  0.00    -0.240 N 
ATOM     20  C   UNL     1       4.198   5.108  -0.012  0.00  0.00    +0.231 C 
ATOM     21  O   UNL     1       5.352   4.737  -0.026  0.00  0.00    -0.274 OA
ATOM     22  H   UNL     1       3.705   8.945   0.013  0.00  0.00    +0.150 HD
ATOM     23  H   UNL     1       2.990   6.723   0.008  0.00  0.00    +0.159 HD
BRANCH  16  25
ATOM     24  C   UNL     1       5.124  11.043   0.010  0.00  0.00    +0.024 C 
ATOM     25  C   UNL     1       5.714   9.631  -0.003  0.00  0.00    +0.102 C 
ENDBRANCH  16  25
ENDBRANCH  15  20
ENDBRANCH  14  15
ENDBRANCH   1  14
TORSDOF 4
