REMARK  Name = ZINC02678448
REMARK  7 active torsions:
REMARK  status: ('A' for Active; 'I' for Inactive)
REMARK    1  A    between atoms: C_4  and  N_28
REMARK    2  A    between atoms: C_5  and  C_7
REMARK    3  A    between atoms: N_9  and  C_10
REMARK    4  A    between atoms: C_10  and  C_12
REMARK    5  A    between atoms: C_10  and  N_16
REMARK    6  A    between atoms: N_16  and  C_17
REMARK    7  A    between atoms: C_18  and  C_26
REMARK                            x       y       z     vdW  Elec       q    Type
REMARK                         _______ _______ _______ _____ _____    ______ ____
ROOT
ATOM      1  C   UNL     1      -0.689   2.404   1.262  0.00  0.00    +0.211 C 
ENDROOT
BRANCH   1   4
ATOM      2  C   UNL     1       0.241   2.701   3.494  0.00  0.00    +0.248 C 
ATOM      3  O   UNL     1      -0.122   3.861   3.459  0.00  0.00    -0.270 OA
ATOM      4  N   UNL     1       0.005   1.889   2.445  0.00  0.00    -0.289 N 
ATOM      5  H   UNL     1       0.295   0.964   2.473  0.00  0.00    +0.151 HD
BRANCH   2  10
ATOM      6  C   UNL     1       2.843   1.097   5.677  0.00  0.00    +0.001 A 
ATOM      7  C   UNL     1       2.253   1.207   6.924  0.00  0.00    +0.002 A 
ATOM      8  C   UNL     1       1.011   1.801   7.059  0.00  0.00    +0.033 A 
ATOM      9  C   UNL     1       0.352   2.289   5.948  0.00  0.00    +0.138 A 
ATOM     10  C   UNL     1       0.941   2.181   4.688  0.00  0.00    +0.067 A 
ATOM     11  C   UNL     1       2.192   1.576   4.559  0.00  0.00    +0.015 A 
BRANCH   9  12
ATOM     12  N   UNL     1      -0.977   2.924   6.094  0.00  0.00    +0.057 N 
ATOM     13  O   UNL     1      -1.438   3.124   7.204  0.00  0.00    -0.126 OA
ATOM     14  O   UNL     1      -1.610   3.246   5.104  0.00  0.00    -0.126 OA
ENDBRANCH   9  12
ENDBRANCH   2  10
ENDBRANCH   1   4
BRANCH   1  15
ATOM     15  C   UNL     1       0.038   1.935  -0.000  0.00  0.00    +0.225 C 
ATOM     16 CL   UNL     1       0.053   0.133  -0.050  0.00  0.00    -0.080 Cl
ATOM     17 CL   UNL     1       1.732   2.550   0.018  0.00  0.00    -0.080 Cl
ATOM     18 CL   UNL     1      -0.817   2.569  -1.456  0.00  0.00    -0.080 Cl
ENDBRANCH   1  15
BRANCH   1  19
ATOM     19  N   UNL     1      -2.066   1.904   1.247  0.00  0.00    -0.316 N 
ATOM     20  H   UNL     1      -2.244   0.982   1.004  0.00  0.00    +0.148 HD
BRANCH  19  21
ATOM     21  C   UNL     1      -3.112   2.747   1.580  0.00  0.00    +0.085 A 
ATOM     22  C   UNL     1      -4.469   2.462   1.623  0.00  0.00    +0.083 A 
ATOM     23  C   UNL     1      -5.369   3.536   2.009  0.00  0.00    -0.018 A 
ATOM     24  C   UNL     1      -4.772   4.715   2.286  0.00  0.00    -0.004 A 
ATOM     25  S   UNL     1      -3.044   4.413   2.050  0.00  0.00    -0.077 S 
ATOM     26  C   UNL     1      -5.439   5.989   2.705  0.00  0.00    +0.043 C 
ATOM     27  C   UNL     1      -6.942   5.867   2.414  0.00  0.00    +0.005 C 
ATOM     28  C   UNL     1      -7.441   4.523   2.954  0.00  0.00    +0.005 C 
ATOM     29  C   UNL     1      -6.882   3.381   2.104  0.00  0.00    +0.037 C 
BRANCH  22  30
ATOM     30  C   UNL     1      -4.965   1.157   1.301  0.00  0.00    +0.102 C 
ATOM     31  N   UNL     1      -5.358   0.123   1.045  0.00  0.00    -0.191 NA
ENDBRANCH  22  30
ENDBRANCH  19  21
ENDBRANCH   1  19
TORSDOF 7
