REMARK  Name = ZINC43769499
REMARK  10 active torsions:
REMARK  status: ('A' for Active; 'I' for Inactive)
REMARK    1  A    between atoms: C_1  and  C_2
REMARK    2  A    between atoms: C_17  and  C_35
REMARK    3  A    between atoms: C_19  and  O_33
REMARK    4  A    between atoms: C_22  and  C_32
REMARK    5  A    between atoms: C_23  and  C_24
REMARK    6  A    between atoms: C_23  and  O_31
REMARK    7  A    between atoms: C_24  and  C_26
REMARK    8  A    between atoms: C_26  and  O_27
REMARK    9  A    between atoms: O_27  and  C_28
REMARK   10  A    between atoms: C_28  and  C_30
REMARK                            x       y       z     vdW  Elec       q    Type
REMARK                         _______ _______ _______ _____ _____    ______ ____
ROOT
ATOM      1  C   UNL     1       0.589   1.371   0.245  0.00  0.00    +0.011 C 
ATOM      2  C   UNL     1       0.282  -0.123   0.129  0.00  0.00    +0.026 C 
ATOM      3  C   UNL     1      -1.242  -0.356   0.120  0.00  0.00    +0.011 C 
ATOM      4  C   UNL     1      -1.579  -0.795   1.558  0.00  0.00    +0.005 C 
ATOM      5  C   UNL     1      -2.891  -1.526   1.622  0.00  0.00    +0.034 C 
ATOM      6  C   UNL     1      -3.522  -1.494   3.016  0.00  0.00    +0.011 C 
ATOM      7  C   UNL     1      -5.028  -1.695   2.804  0.00  0.00    +0.032 C 
ATOM      8  C   UNL     1      -5.265  -2.885   1.914  0.00  0.00    -0.053 C 
ATOM      9  C   UNL     1      -6.542  -3.318   1.814  0.00  0.00    +0.051 C 
ATOM     10  C   UNL     1      -6.772  -4.472   0.906  0.00  0.00    +0.179 C 
ATOM     11  O   UNL     1      -7.568  -5.358   1.154  0.00  0.00    -0.288 OA
ATOM     12  C   UNL     1      -5.952  -4.454  -0.336  0.00  0.00    +0.047 C 
ATOM     13  C   UNL     1      -4.680  -4.028  -0.202  0.00  0.00    -0.009 C 
ATOM     14  C   UNL     1      -4.200  -3.614   1.167  0.00  0.00    +0.044 C 
ATOM     15  C   UNL     1      -2.846  -2.957   1.107  0.00  0.00    +0.153 C 
ATOM     16  C   UNL     1      -1.712  -3.729   1.761  0.00  0.00    +0.154 C 
ATOM     17  C   UNL     1      -0.386  -3.019   1.471  0.00  0.00    +0.044 C 
ATOM     18  C   UNL     1      -0.359  -1.597   2.022  0.00  0.00    +0.010 C 
ATOM     19  C   UNL     1       0.842  -0.877   1.346  0.00  0.00    +0.135 C 
ATOM     20  C   UNL     1      -0.196  -1.564   3.548  0.00  0.00    +0.015 C 
ATOM     21  F   UNL     1      -2.525  -2.868  -0.273  0.00  0.00    -0.238 F 
ATOM     22  C   UNL     1      -4.039  -4.939   1.907  0.00  0.00    +0.023 C 
ENDROOT
BRANCH  19  23
ATOM     23  C   UNL     1       1.465   0.097   2.316  0.00  0.00    +0.202 C 
ATOM     24  O   UNL     1       0.776   0.915   2.877  0.00  0.00    -0.291 OA
BRANCH  23  25
ATOM     25  C   UNL     1       2.947   0.049   2.584  0.00  0.00    +0.309 C 
BRANCH  25  26
ATOM     26  O   UNL     1       3.293   1.062   3.530  0.00  0.00    -0.457 OA
BRANCH  26  27
ATOM     27  C   UNL     1       4.586   1.154   3.880  0.00  0.00    +0.304 C 
ATOM     28  O   UNL     1       5.397   0.399   3.398  0.00  0.00    -0.251 OA
ATOM     29  C   UNL     1       5.026   2.199   4.873  0.00  0.00    +0.136 C 
ENDBRANCH  26  27
ENDBRANCH  25  26
ENDBRANCH  23  25
ENDBRANCH  19  23
BRANCH  19  30
ATOM     30  O   UNL     1       1.818  -1.834   0.929  0.00  0.00    -0.380 OA
ATOM     31  H   UNL     1       2.586  -1.445   0.488  0.00  0.00    +0.211 HD
ENDBRANCH  19  30
BRANCH  16  32
ATOM     32  O   UNL     1      -1.860  -3.880   3.168  0.00  0.00    -0.389 OA
ATOM     33  H   UNL     1      -1.141  -4.370   3.589  0.00  0.00    +0.210 HD
ENDBRANCH  16  32
TORSDOF 6
