REMARK  Name = ZINC38786879
REMARK  3 active torsions:
REMARK  status: ('A' for Active; 'I' for Inactive)
REMARK    1  A    between atoms: C_4  and  C_7
REMARK    2  A    between atoms: C_7  and  C_8
REMARK    3  A    between atoms: C_11  and  C_22
REMARK                            x       y       z     vdW  Elec       q    Type
REMARK                         _______ _______ _______ _____ _____    ______ ____
ROOT
ATOM      1  C   UNL     1       4.164  -0.959   1.377  0.00  0.00    +0.072 C 
ATOM      2  N   UNL     1       3.433  -0.556   2.368  0.00  0.00    -0.180 NA
ATOM      3  N   UNL     1       3.790  -0.755   3.702  0.00  0.00    -0.177 N 
ATOM      4  C   UNL     1       3.123  -0.387   4.961  0.00  0.00    +0.250 C 
ATOM      5  N   UNL     1       4.029  -0.890   6.006  0.00  0.00    -0.239 N 
ATOM      6  N   UNL     1       5.105  -1.485   5.338  0.00  0.00    -0.167 NA
ATOM      7  C   UNL     1       4.969  -1.408   4.047  0.00  0.00    +0.168 C 
ATOM      8  C   UNL     1       5.840  -1.888   2.952  0.00  0.00    +0.027 A 
ATOM      9  C   UNL     1       5.428  -1.666   1.622  0.00  0.00    +0.009 A 
ATOM     10  C   UNL     1       6.227  -2.113   0.571  0.00  0.00    +0.010 A 
ATOM     11  C   UNL     1       7.408  -2.773   0.846  0.00  0.00    +0.001 A 
ATOM     12  C   UNL     1       7.807  -2.996   2.154  0.00  0.00    +0.001 A 
ATOM     13  C   UNL     1       7.035  -2.549   3.210  0.00  0.00    +0.012 A 
ATOM     14  H   UNL     1       3.906  -0.823   6.966  0.00  0.00    +0.171 HD
ENDROOT
BRANCH   4  15
ATOM     15  C   UNL     1       1.776  -1.056   5.059  0.00  0.00    +0.103 A 
ATOM     16  C   UNL     1       1.205  -1.291   6.321  0.00  0.00    +0.034 A 
ATOM     17  C   UNL     1      -0.018  -1.899   6.376  0.00  0.00    +0.073 A 
ATOM     18  C   UNL     1      -0.632  -2.253   5.155  0.00  0.00    +0.265 A 
ATOM     19  O   UNL     1      -1.724  -2.797   5.150  0.00  0.00    -0.266 OA
ATOM     20  N   UNL     1      -0.001  -1.983   3.997  0.00  0.00    -0.243 N 
ATOM     21  N   UNL     1       1.146  -1.406   3.973  0.00  0.00    -0.172 NA
ATOM     22  H   UNL     1      -0.425  -2.227   3.159  0.00  0.00    +0.192 HD
ENDBRANCH   4  15
BRANCH   1  23
ATOM     23  C   UNL     1       3.711  -0.707  -0.038  0.00  0.00    +0.092 C 
BRANCH  23  27
ATOM     24  C   UNL     1      -0.017   1.378   0.010  0.00  0.00    +0.000 A 
ATOM     25  C   UNL     1       1.171   2.086   0.002  0.00  0.00    +0.000 A 
ATOM     26  C   UNL     1       2.377   1.411  -0.013  0.00  0.00    +0.004 A 
ATOM     27  C   UNL     1       2.396   0.029  -0.020  0.00  0.00    -0.042 A 
ATOM     28  C   UNL     1       1.208  -0.679  -0.012  0.00  0.00    +0.004 A 
ATOM     29  C   UNL     1       0.002  -0.004   0.002  0.00  0.00    +0.000 A 
ENDBRANCH  23  27
ENDBRANCH   1  23
TORSDOF 3
