REMARK  Name = ZINC40799607
REMARK  4 active torsions:
REMARK  status: ('A' for Active; 'I' for Inactive)
REMARK    1  A    between atoms: C_5  and  N_7
REMARK    2  A    between atoms: C_14  and  N_26
REMARK    3  A    between atoms: C_15  and  O_19
REMARK    4  A    between atoms: O_19  and  C_20
REMARK                            x       y       z     vdW  Elec       q    Type
REMARK                         _______ _______ _______ _____ _____    ______ ____
ROOT
ATOM      1  N   UNL     1       0.000  -2.107   1.185  0.00  0.00    -0.325 N 
ATOM      2  C   UNL     1      -1.240  -2.896   1.224  0.00  0.00    +0.124 C 
ATOM      3  C   UNL     1      -1.251  -3.850   0.024  0.00  0.00    +0.125 C 
ATOM      4  N   UNL     1       0.036  -4.557  -0.026  0.00  0.00    -0.311 N 
ATOM      5  C   UNL     1       1.276  -3.769  -0.065  0.00  0.00    +0.125 C 
ATOM      6  C   UNL     1       1.287  -2.814   1.130  0.00  0.00    +0.124 C 
ATOM      7  C   UNL     1       0.081  -5.946  -0.036  0.00  0.00    +0.149 A 
ATOM      8  C   UNL     1       0.009  -6.650  -1.241  0.00  0.00    +0.127 A 
ATOM      9  C   UNL     1       0.058  -8.041  -1.194  0.00  0.00    +0.241 A 
ATOM     10  N   UNL     1       0.170  -8.643  -0.014  0.00  0.00    -0.200 NA
ATOM     11  C   UNL     1       0.235  -7.944   1.100  0.00  0.00    +0.227 A 
ATOM     12  N   UNL     1       0.198  -6.626   1.101  0.00  0.00    -0.219 NA
ENDROOT
BRANCH   1  17
ATOM     13  C   UNL     1      -0.159   1.374   0.013  0.00  0.00    +0.002 A 
ATOM     14  C   UNL     1      -0.133   2.057   1.215  0.00  0.00    +0.003 A 
ATOM     15  C   UNL     1      -0.063   1.362   2.408  0.00  0.00    +0.040 A 
ATOM     16  C   UNL     1      -0.019  -0.020   2.403  0.00  0.00    +0.144 A 
ATOM     17  C   UNL     1      -0.045  -0.710   1.196  0.00  0.00    +0.065 A 
ATOM     18  C   UNL     1      -0.115  -0.007   0.000  0.00  0.00    +0.026 A 
ATOM     19  F   UNL     1       0.050  -0.699   3.569  0.00  0.00    -0.204 F 
ENDBRANCH   1  17
BRANCH   8  20
ATOM     20  N   UNL     1      -0.110  -5.973  -2.465  0.00  0.00    -0.351 N 
ATOM     21  H   UNL     1      -0.055  -5.005  -2.492  0.00  0.00    +0.143 HD
ATOM     22  H   UNL     1      -0.248  -6.473  -3.285  0.00  0.00    +0.143 HD
ENDBRANCH   8  20
BRANCH   9  23
ATOM     23  O   UNL     1      -0.009  -8.771  -2.336  0.00  0.00    -0.472 OA
BRANCH  23  24
ATOM     24  C   UNL     1       0.048 -10.193  -2.201  0.00  0.00    +0.175 C 
ATOM     25  C   UNL     1       1.505 -10.653  -2.267  0.00  0.00    +0.044 C 
ATOM     26  C   UNL     1       1.566 -12.175  -2.123  0.00  0.00    +0.004 C 
ATOM     27  C   UNL     1       0.774 -12.827  -3.258  0.00  0.00    +0.000 C 
ATOM     28  C   UNL     1      -0.684 -12.367  -3.192  0.00  0.00    +0.004 C 
ATOM     29  C   UNL     1      -0.745 -10.845  -3.336  0.00  0.00    +0.044 C 
ENDBRANCH  23  24
ENDBRANCH   9  23
TORSDOF 4
