REMARK  Name = ZINC41626946
REMARK  10 active torsions:
REMARK  status: ('A' for Active; 'I' for Inactive)
REMARK    1  A    between atoms: C_1  and  C_2
REMARK    2  A    between atoms: C_5  and  N_9
REMARK    3  A    between atoms: C_6  and  C_8
REMARK    4  A    between atoms: C_10  and  C_12
REMARK    5  A    between atoms: C_12  and  C_14
REMARK    6  A    between atoms: C_12  and  S_15
REMARK    7  A    between atoms: S_15  and  C_16
REMARK    8  A    between atoms: C_22  and  C_24
REMARK    9  A    between atoms: C_24  and  C_25
REMARK   10  A    between atoms: C_24  and  C_26
REMARK                            x       y       z     vdW  Elec       q    Type
REMARK                         _______ _______ _______ _____ _____    ______ ____
ROOT
ATOM      1  C   UNL     1      -0.134  -6.343  -1.187  0.00  0.00    +0.137 C 
ATOM      2  C   UNL     1      -1.592  -6.763  -0.991  0.00  0.00    +0.029 C 
ENDROOT
BRANCH   1   4
ATOM      3  N   UNL     1       0.059  -4.170  -0.021  0.00  0.00    -0.284 N 
ATOM      4  C   UNL     1      -0.040  -4.839  -1.187  0.00  0.00    +0.230 C 
ATOM      5  O   UNL     1      -0.054  -4.230  -2.236  0.00  0.00    -0.274 OA
ATOM      6  H   UNL     1       0.135  -4.658   0.814  0.00  0.00    +0.155 HD
BRANCH   3  11
ATOM      7  C   UNL     1       0.025   1.503   0.005  0.00  0.00    +0.044 C 
ATOM      8  C   UNL     1       0.034  -0.004  -0.002  0.00  0.00    -0.050 A 
ATOM      9  C   UNL     1       0.632  -0.685  -1.046  0.00  0.00    +0.005 A 
ATOM     10  C   UNL     1       0.641  -2.066  -1.055  0.00  0.00    +0.024 A 
ATOM     11  C   UNL     1       0.051  -2.771  -0.014  0.00  0.00    +0.036 A 
ATOM     12  C   UNL     1      -0.548  -2.083   1.033  0.00  0.00    -0.029 A 
ATOM     13  C   UNL     1      -0.550  -0.702   1.039  0.00  0.00    +0.008 A 
ATOM     14  C   UNL     1      -1.190  -2.843   2.165  0.00  0.00    +0.045 C 
ENDBRANCH   3  11
ENDBRANCH   1   4
BRANCH   1  15
ATOM     15  S   UNL     1       0.473  -6.986  -2.771  0.00  0.00    -0.075 S 
BRANCH  15  16
ATOM     16  C   UNL     1       0.440  -8.735  -2.561  0.00  0.00    +0.170 A 
ATOM     17  N   UNL     1       0.847  -9.540  -3.582  0.00  0.00    -0.302 N 
ATOM     18  H   UNL     1       1.153  -9.150  -4.416  0.00  0.00    +0.171 HD
ATOM     19  C   UNL     1       0.825 -10.881  -3.428  0.00  0.00    +0.252 A 
ATOM     20  O   UNL     1       1.186 -11.616  -4.332  0.00  0.00    -0.268 OA
ATOM     21  C   UNL     1       0.377 -11.414  -2.206  0.00  0.00    +0.093 A 
ATOM     22  C   UNL     1      -0.019 -10.558  -1.219  0.00  0.00    +0.052 A 
ATOM     23  N   UNL     1       0.026  -9.243  -1.416  0.00  0.00    -0.228 NA
BRANCH  22  24
ATOM     24  C   UNL     1      -0.504 -11.105   0.100  0.00  0.00    +0.032 C 
ATOM     25  C   UNL     1       0.392 -10.587   1.226  0.00  0.00    +0.014 C 
ATOM     26  C   UNL     1      -1.944 -10.648   0.342  0.00  0.00    +0.014 C 
ENDBRANCH  22  24
ENDBRANCH  15  16
ENDBRANCH   1  15
TORSDOF 5
