REMARK  Name = ZINC12990105
REMARK  6 active torsions:
REMARK  status: ('A' for Active; 'I' for Inactive)
REMARK    1  A    between atoms: C_1  and  N_2
REMARK    2  A    between atoms: N_5  and  S_8
REMARK    3  A    between atoms: S_8  and  C_11
REMARK    4  A    between atoms: C_14  and  C_17
REMARK    5  A    between atoms: N_19  and  N_20
REMARK    6  A    between atoms: C_21  and  C_23
REMARK                            x       y       z     vdW  Elec       q    Type
REMARK                         _______ _______ _______ _____ _____    ______ ____
ROOT
ATOM      1  C   UNL     1       0.217   0.452   3.553  0.00  0.00    +0.106 A 
ATOM      2  C   UNL     1       1.220  -0.485   3.378  0.00  0.00    +0.029 A 
ATOM      3  C   UNL     1       2.282  -0.536   4.257  0.00  0.00    +0.015 A 
ATOM      4  C   UNL     1       2.338   0.353   5.331  0.00  0.00    +0.038 A 
ATOM      5  C   UNL     1       1.320   1.293   5.505  0.00  0.00    +0.015 A 
ATOM      6  C   UNL     1       0.267   1.337   4.616  0.00  0.00    +0.029 A 
ENDROOT
BRANCH   4   7
ATOM      7  C   UNL     1       3.471   0.301   6.280  0.00  0.00    +0.260 C 
ATOM      8  O   UNL     1       3.517   1.077   7.214  0.00  0.00    -0.269 OA
ATOM      9  N   UNL     1       4.452  -0.607   6.109  0.00  0.00    -0.230 N 
ATOM     10  H   UNL     1       4.410  -1.309   5.263  0.00  0.00    +0.173 HD
BRANCH   9  11
ATOM     11  N   UNL     1       5.525  -0.656   7.008  0.00  0.00    -0.234 N 
ATOM     12  C   UNL     1       6.506  -1.565   6.837  0.00  0.00    +0.232 C 
ATOM     13  O   UNL     1       6.460  -2.339   5.904  0.00  0.00    -0.274 OA
ATOM     14  H   UNL     1       5.567   0.046   7.853  0.00  0.00    +0.173 HD
BRANCH  12  15
ATOM     15  C   UNL     1       7.661  -1.618   7.803  0.00  0.00    +0.076 C 
ATOM     16  C   UNL     1       8.394  -0.276   7.796  0.00  0.00    +0.013 C 
ATOM     17  C   UNL     1       9.567  -0.330   8.778  0.00  0.00    +0.001 C 
ATOM     18  C   UNL     1      10.532  -1.440   8.359  0.00  0.00    +0.000 C 
ATOM     19  C   UNL     1       9.798  -2.783   8.367  0.00  0.00    +0.001 C 
ATOM     20  C   UNL     1       8.626  -2.729   7.385  0.00  0.00    +0.013 C 
ENDBRANCH  12  15
ENDBRANCH   9  11
ENDBRANCH   4   7
BRANCH   1  21
ATOM     21  S   UNL     1      -1.132   0.515   2.422  0.00  0.00    +0.061 S 
ATOM     22  O   UNL     1      -2.217   1.114   3.117  0.00  0.00    -0.153 OA
ATOM     23  O   UNL     1      -1.225  -0.773   1.829  0.00  0.00    -0.153 OA
BRANCH  21  28
ATOM     24  C   UNL     1      -1.472   3.606  -2.377  0.00  0.00    -0.096 C 
ATOM     25  N   UNL     1      -0.913   3.056  -1.135  0.00  0.00    +0.380 N 
ATOM     26  C   UNL     1      -0.762   1.597  -1.227  0.00  0.00    -0.062 C 
ATOM     27  C   UNL     1      -0.013   1.086   0.008  0.00  0.00    +0.091 C 
ATOM     28  N   UNL     1      -0.709   1.564   1.212  0.00  0.00    -0.180 NA
ATOM     29  C   UNL     1      -1.023   2.998   1.310  0.00  0.00    +0.091 C 
ATOM     30  C   UNL     1      -1.732   3.434   0.024  0.00  0.00    -0.062 C 
ATOM     31  H   UNL     1       0.089   3.487  -0.993  0.00  0.00    -0.082 HD
ENDBRANCH  21  28
ENDBRANCH   1  21
TORSDOF 5
