REMARK  Name = ZINC09331172
REMARK  8 active torsions:
REMARK  status: ('A' for Active; 'I' for Inactive)
REMARK    1  A    between atoms: C_1  and  C_2
REMARK    2  A    between atoms: C_7  and  N_12
REMARK    3  A    between atoms: C_9  and  C_11
REMARK    4  A    between atoms: C_18  and  C_20
REMARK    5  A    between atoms: C_18  and  C_21
REMARK    6  A    between atoms: C_22  and  C_25
REMARK    7  A    between atoms: C_22  and  N_29
REMARK    8  A    between atoms: C_30  and  C_32
REMARK                            x       y       z     vdW  Elec       q    Type
REMARK                         _______ _______ _______ _____ _____    ______ ____
ROOT
ATOM      1  N   UNL     1      -0.327   1.626   3.223  0.00  0.00    -0.269 N 
ATOM      2  C   UNL     1      -0.485   1.287   1.919  0.00  0.00    +0.024 C 
ATOM      3  C   UNL     1      -1.710   1.659   1.456  0.00  0.00    +0.053 C 
ATOM      4  C   UNL     1      -2.148   1.428   0.143  0.00  0.00    +0.164 C 
ATOM      5  O   UNL     1      -3.240   1.808  -0.229  0.00  0.00    -0.292 OA
ATOM      6  C   UNL     1      -1.216   0.691  -0.793  0.00  0.00    +0.086 C 
ATOM      7  C   UNL     1       0.236   1.001  -0.425  0.00  0.00    -0.023 C 
ATOM      8  C   UNL     1       0.518   0.587   1.024  0.00  0.00    +0.058 C 
ATOM      9  C   UNL     1       0.489   2.502  -0.581  0.00  0.00    +0.011 C 
ATOM     10  C   UNL     1       1.171   0.233  -1.362  0.00  0.00    +0.011 C 
ATOM     11  C   UNL     1      -2.420   2.328   2.600  0.00  0.00    +0.237 C 
ATOM     12  C   UNL     1      -1.409   2.250   3.730  0.00  0.00    +0.257 C 
ATOM     13  O   UNL     1      -1.546   2.665   4.861  0.00  0.00    -0.272 OA
ENDROOT
BRANCH   1  19
ATOM     14  C   UNL     1       3.354   3.682   5.806  0.00  0.00    +0.008 C 
ATOM     15  C   UNL     1       2.754   2.368   5.303  0.00  0.00    -0.009 C 
ATOM     16  C   UNL     1       2.405   1.476   6.497  0.00  0.00    +0.003 C 
ATOM     17  C   UNL     1       1.805   0.162   5.994  0.00  0.00    +0.002 C 
ATOM     18  C   UNL     1       0.538   0.455   5.188  0.00  0.00    +0.023 C 
ATOM     19  C   UNL     1       0.887   1.346   3.994  0.00  0.00    +0.084 C 
ATOM     20  C   UNL     1       1.487   2.660   4.497  0.00  0.00    +0.010 C 
ATOM     21  C   UNL     1       1.836   3.551   3.304  0.00  0.00    +0.009 C 
ENDBRANCH   1  19
BRANCH  11  22
ATOM     22  C   UNL     1      -2.739   3.785   2.261  0.00  0.00    +0.424 C 
ATOM     23  F   UNL     1      -3.660   3.828   1.208  0.00  0.00    -0.167 F 
ATOM     24  F   UNL     1      -3.285   4.417   3.384  0.00  0.00    -0.167 F 
ATOM     25  F   UNL     1      -1.565   4.443   1.880  0.00  0.00    -0.167 F 
ENDBRANCH  11  22
BRANCH  11  26
ATOM     26  N   UNL     1      -3.643   1.599   2.946  0.00  0.00    -0.284 N 
ATOM     27  C   UNL     1      -3.585   0.285   3.238  0.00  0.00    +0.281 C 
ATOM     28  O   UNL     1      -2.508  -0.278   3.300  0.00  0.00    -0.267 OA
ATOM     29  H   UNL     1      -4.495   2.063   2.965  0.00  0.00    +0.151 HD
BRANCH  27  30
ATOM     30  C   UNL     1      -4.821  -0.468   3.482  0.00  0.00    +0.189 A 
ATOM     31  C   UNL     1      -4.904  -1.796   3.786  0.00  0.00    +0.054 A 
ATOM     32  C   UNL     1      -6.268  -2.091   3.935  0.00  0.00    +0.042 A 
ATOM     33  C   UNL     1      -6.949  -0.944   3.718  0.00  0.00    +0.196 A 
ATOM     34  O   UNL     1      -6.073   0.033   3.451  0.00  0.00    -0.458 OA
ENDBRANCH  27  30
ENDBRANCH  11  26
TORSDOF 4
