REMARK  Name = ZINC20881782
REMARK  13 active torsions:
REMARK  status: ('A' for Active; 'I' for Inactive)
REMARK    1  A    between atoms: C_1  and  C_2
REMARK    2  A    between atoms: C_2  and  C_3
REMARK    3  A    between atoms: C_3  and  C_4
REMARK    4  A    between atoms: C_4  and  O_5
REMARK    5  A    between atoms: O_5  and  C_6
REMARK    6  A    between atoms: C_11  and  C_12
REMARK    7  A    between atoms: C_17  and  C_22
REMARK    8  A    between atoms: C_25  and  O_30
REMARK    9  A    between atoms: C_26  and  O_28
REMARK   10  A    between atoms: O_28  and  C_29
REMARK   11  A    between atoms: O_30  and  C_31
REMARK   12  A    between atoms: C_31  and  C_32
REMARK   13  A    between atoms: C_31  and  C_33
REMARK                            x       y       z     vdW  Elec       q    Type
REMARK                         _______ _______ _______ _____ _____    ______ ____
ROOT
ATOM      1  C   UNL     1      -2.775   2.625   0.326  0.00  0.00    +0.139 C 
ATOM      2  C   UNL     1      -1.377   3.189   0.239  0.00  0.00    +0.037 C 
ATOM      3  C   UNL     1      -1.022   4.460   0.492  0.00  0.00    +0.017 C 
ATOM      4  C   UNL     1       0.429   4.893   0.371  0.00  0.00    +0.059 C 
ATOM      5  C   UNL     1       1.352   3.735   0.743  0.00  0.00    +0.032 C 
ATOM      6  C   UNL     1       1.059   2.577  -0.220  0.00  0.00    +0.088 C 
ATOM      7  C   UNL     1      -0.398   2.234  -0.122  0.00  0.00    +0.163 C 
ATOM      8  O   UNL     1      -0.749   1.097  -0.367  0.00  0.00    -0.292 OA
ATOM      9  N   UNL     1      -1.883   5.447   0.848  0.00  0.00    -0.316 N 
ATOM     10  C   UNL     1      -2.869   5.330   1.821  0.00  0.00    +0.052 A 
ATOM     11  C   UNL     1      -2.847   6.069   2.991  0.00  0.00    +0.025 A 
ATOM     12  C   UNL     1      -3.886   5.938   3.896  0.00  0.00    +0.002 A 
ATOM     13  C   UNL     1      -4.937   5.079   3.632  0.00  0.00    +0.002 A 
ATOM     14  C   UNL     1      -4.952   4.326   2.471  0.00  0.00    +0.025 A 
ATOM     15  C   UNL     1      -3.902   4.439   1.574  0.00  0.00    +0.049 A 
ATOM     16  N   UNL     1      -3.817   3.621   0.448  0.00  0.00    -0.331 N 
ATOM     17  H   UNL     1      -1.830   6.428   0.353  0.00  0.00    +0.152 HD
ATOM     18  H   UNL     1      -4.559   3.743  -0.356  0.00  0.00    +0.147 HD
ENDROOT
BRANCH   1  24
ATOM     19  C   UNL     1      -3.825   0.726   1.582  0.00  0.00    +0.126 A 
ATOM     20  C   UNL     1      -3.890  -0.117   2.683  0.00  0.00    +0.046 A 
ATOM     21  C   UNL     1      -2.983   0.026   3.714  0.00  0.00    +0.004 A 
ATOM     22  C   UNL     1      -2.010   1.007   3.651  0.00  0.00    +0.001 A 
ATOM     23  C   UNL     1      -1.940   1.844   2.553  0.00  0.00    +0.009 A 
ATOM     24  C   UNL     1      -2.849   1.709   1.521  0.00  0.00    +0.019 A 
BRANCH  19  25
ATOM     25  O   UNL     1      -4.716   0.587   0.565  0.00  0.00    -0.492 OA
BRANCH  25  26
ATOM     26  C   UNL     1      -5.694  -0.447   0.696  0.00  0.00    +0.229 C 
BRANCH  26  27
ATOM     27  C   UNL     1      -6.602  -0.449  -0.535  0.00  0.00    +0.041 C 
BRANCH  27  29
ATOM     28  C   UNL     1      -8.557  -1.558  -1.627  0.00  0.00    +0.004 C 
ATOM     29  C   UNL     1      -7.649  -1.556  -0.395  0.00  0.00    -0.000 C 
ENDBRANCH  27  29
ENDBRANCH  26  27
ENDBRANCH  25  26
ENDBRANCH  19  25
ENDBRANCH   1  24
BRANCH   5  30
ATOM     30  C   UNL     1       2.790   4.162   0.603  0.00  0.00    -0.040 A 
ATOM     31  C   UNL     1       3.259   4.619  -0.614  0.00  0.00    +0.008 A 
ATOM     32  C   UNL     1       4.578   5.014  -0.747  0.00  0.00    +0.050 A 
ATOM     33  C   UNL     1       5.432   4.952   0.342  0.00  0.00    +0.162 A 
ATOM     34  C   UNL     1       4.960   4.491   1.568  0.00  0.00    +0.162 A 
ATOM     35  C   UNL     1       3.636   4.103   1.695  0.00  0.00    +0.053 A 
BRANCH  34  36
ATOM     36  O   UNL     1       5.795   4.428   2.639  0.00  0.00    -0.491 OA
ATOM     37  C   UNL     1       5.242   3.946   3.865  0.00  0.00    +0.277 C 
ENDBRANCH  34  36
BRANCH  33  38
ATOM     38  O   UNL     1       6.729   5.340   0.214  0.00  0.00    -0.486 OA
BRANCH  38  39
ATOM     39  C   UNL     1       7.176   5.685  -1.099  0.00  0.00    +0.167 C 
ATOM     40  C   UNL     1       6.836   7.149  -1.385  0.00  0.00    +0.051 C 
ATOM     41  C   UNL     1       8.690   5.486  -1.191  0.00  0.00    +0.051 C 
ENDBRANCH  38  39
ENDBRANCH  33  38
ENDBRANCH   5  30
TORSDOF 9
