REMARK  Name = ZINC63686596
REMARK  11 active torsions:
REMARK  status: ('A' for Active; 'I' for Inactive)
REMARK    1  A    between atoms: C_1  and  C_2
REMARK    2  A    between atoms: C_4  and  C_33
REMARK    3  A    between atoms: C_9  and  C_13
REMARK    4  A    between atoms: C_13  and  S_14
REMARK    5  A    between atoms: S_14  and  C_15
REMARK    6  A    between atoms: C_19  and  C_23
REMARK    7  A    between atoms: N_21  and  C_22
REMARK    8  A    between atoms: C_23  and  O_24
REMARK    9  A    between atoms: O_24  and  C_25
REMARK   10  A    between atoms: C_28  and  O_31
REMARK   11  A    between atoms: O_31  and  C_32
REMARK                            x       y       z     vdW  Elec       q    Type
REMARK                         _______ _______ _______ _____ _____    ______ ____
ROOT
ATOM      1  C   UNL     1       3.013  -5.299   5.757  0.00  0.00    +0.200 C 
ATOM      2  N   UNL     1       3.130  -6.743   5.451  0.00  0.00    -0.229 NA
ATOM      3  N   UNL     1       2.636  -7.417   6.662  0.00  0.00    -0.234 NA
ATOM      4  C   UNL     1       1.509  -6.549   7.093  0.00  0.00    +0.178 C 
ATOM      5  N   UNL     1       1.979  -5.173   6.805  0.00  0.00    -0.261 NA
ATOM      6  C   UNL     1       2.527  -4.539   8.012  0.00  0.00    +0.109 C 
ATOM      7  H   UNL     1       4.088  -6.996   5.261  0.00  0.00    +0.143 HD
ATOM      8  H   UNL     1       3.353  -7.458   7.371  0.00  0.00    +0.142 HD
ENDROOT
BRANCH   1   9
ATOM      9  S   UNL     1       2.509  -4.387   4.273  0.00  0.00    -0.119 S 
BRANCH   9  10
ATOM     10  C   UNL     1       0.939  -5.160   3.795  0.00  0.00    +0.125 C 
BRANCH  10  19
ATOM     11  C   UNL     1      -2.347   0.685   0.745  0.00  0.00    +0.044 C 
ATOM     12  C   UNL     1      -1.730  -0.683   0.602  0.00  0.00    -0.048 A 
ATOM     13  C   UNL     1      -1.671  -1.282  -0.649  0.00  0.00    +0.007 A 
ATOM     14  C   UNL     1      -1.115  -2.522  -0.800  0.00  0.00    -0.037 A 
ATOM     15  C   UNL     1      -0.604  -3.189   0.313  0.00  0.00    +0.048 A 
ATOM     16  C   UNL     1      -0.661  -2.588   1.583  0.00  0.00    +0.051 A 
ATOM     17  C   UNL     1      -1.226  -1.323   1.713  0.00  0.00    +0.029 A 
ATOM     18  N   UNL     1      -0.153  -3.257   2.674  0.00  0.00    -0.357 N 
ATOM     19  C   UNL     1       0.403  -4.487   2.558  0.00  0.00    +0.030 A 
ATOM     20  C   UNL     1       0.497  -5.131   1.376  0.00  0.00    +0.073 A 
ATOM     21  C   UNL     1       0.003  -4.527   0.197  0.00  0.00    +0.190 A 
ATOM     22  O   UNL     1       0.078  -5.093  -0.881  0.00  0.00    -0.287 OA
ATOM     23  C   UNL     1      -1.055  -3.164  -2.161  0.00  0.00    +0.044 C 
ATOM     24  H   UNL     1      -0.195  -2.837   3.548  0.00  0.00    +0.166 HD
ENDBRANCH  10  19
ENDBRANCH   9  10
ENDBRANCH   1   9
BRANCH   4  25
ATOM     25  C   UNL     1       1.242  -6.723   8.590  0.00  0.00    +0.265 C 
BRANCH  25  26
ATOM     26  O   UNL     1       0.777  -8.051   8.839  0.00  0.00    -0.489 OA
BRANCH  26  27
ATOM     27  C   UNL     1       0.490  -8.373  10.129  0.00  0.00    +0.121 A 
ATOM     28  C   UNL     1       0.649  -7.428  11.131  0.00  0.00    +0.049 A 
ATOM     29  C   UNL     1       0.359  -7.755  12.441  0.00  0.00    +0.049 A 
ATOM     30  C   UNL     1      -0.092  -9.029  12.754  0.00  0.00    +0.120 A 
ATOM     31  C   UNL     1      -0.252  -9.974  11.752  0.00  0.00    +0.049 A 
ATOM     32  C   UNL     1       0.035  -9.645  10.441  0.00  0.00    +0.049 A 
BRANCH  30  33
ATOM     33  O   UNL     1      -0.378  -9.351  14.044  0.00  0.00    -0.495 OA
ATOM     34  C   UNL     1      -0.838 -10.681  14.294  0.00  0.00    +0.277 C 
ENDBRANCH  30  33
ENDBRANCH  26  27
ENDBRANCH  25  26
ENDBRANCH   4  25
TORSDOF 7
