REMARK  Name = ZINC13120197
REMARK  6 active torsions:
REMARK  status: ('A' for Active; 'I' for Inactive)
REMARK    1  A    between atoms: C_4  and  C_7
REMARK    2  A    between atoms: C_12  and  C_14
REMARK    3  A    between atoms: C_14  and  S_15
REMARK    4  A    between atoms: S_15  and  C_16
REMARK    5  A    between atoms: C_19  and  C_22
REMARK    6  A    between atoms: N_20  and  N_21
REMARK                            x       y       z     vdW  Elec       q    Type
REMARK                         _______ _______ _______ _____ _____    ______ ____
ROOT
ATOM      1  C   UNL     1       4.005  -7.477  -0.236  0.00  0.00    +0.209 A 
ATOM      2  N   UNL     1       2.736  -7.138  -0.204  0.00  0.00    -0.121 NA
ATOM      3  N   UNL     1       2.006  -8.176   0.002  0.00  0.00    -0.127 NA
ATOM      4  C   UNL     1       2.765  -9.240   0.122  0.00  0.00    +0.183 A 
ATOM      5  N   UNL     1       4.069  -8.825  -0.026  0.00  0.00    -0.224 N 
ENDROOT
BRANCH   4   6
ATOM      6  C   UNL     1       2.307 -10.623   0.371  0.00  0.00    +0.039 A 
ATOM      7  C   UNL     1       2.928 -11.403   1.347  0.00  0.00    +0.014 A 
ATOM      8  C   UNL     1       2.492 -12.691   1.578  0.00  0.00    +0.021 A 
ATOM      9  C   UNL     1       1.447 -13.215   0.836  0.00  0.00    +0.042 A 
ATOM     10  C   UNL     1       0.829 -12.450  -0.138  0.00  0.00    +0.040 A 
ATOM     11  C   UNL     1       1.253 -11.157  -0.375  0.00  0.00    +0.053 A 
ATOM     12 CL   UNL     1       0.478 -10.198  -1.597  0.00  0.00    -0.083 Cl
ATOM     13 CL   UNL     1       0.908 -14.840   1.128  0.00  0.00    -0.083 Cl
ENDBRANCH   4   6
BRANCH   5  14
ATOM     14  N   UNL     1       5.193  -9.600   0.025  0.00  0.00    -0.295 N 
ATOM     15  H   UNL     1       5.500  -9.728   0.978  0.00  0.00    +0.163 HD
ATOM     16  H   UNL     1       5.040 -10.489  -0.427  0.00  0.00    +0.163 HD
ENDBRANCH   5  14
BRANCH   1  17
ATOM     17  S   UNL     1       5.370  -6.394  -0.494  0.00  0.00    -0.075 S 
BRANCH  17  18
ATOM     18  C   UNL     1       4.492  -4.823  -0.688  0.00  0.00    +0.175 C 
BRANCH  18  24
ATOM     19  C   UNL     1       3.572  -0.771  -1.273  0.00  0.00    +0.068 C 
ATOM     20  N   UNL     1       3.731  -2.034  -1.078  0.00  0.00    -0.181 NA
ATOM     21  N   UNL     1       5.060  -2.451  -1.101  0.00  0.00    -0.192 N 
ATOM     22  C   UNL     1       5.921  -1.282  -1.340  0.00  0.00    +0.141 C 
ATOM     23  C   UNL     1       4.921  -0.115  -1.462  0.00  0.00    +0.078 C 
ATOM     24  C   UNL     1       5.488  -3.717  -0.927  0.00  0.00    +0.245 C 
ATOM     25  O   UNL     1       6.675  -3.966  -0.962  0.00  0.00    -0.273 OA
BRANCH  19  29
ATOM     26  C   UNL     1      -0.164   1.243  -1.356  0.00  0.00    +0.000 A 
ATOM     27  C   UNL     1       1.007   1.956  -1.543  0.00  0.00    +0.001 A 
ATOM     28  C   UNL     1       2.225   1.308  -1.517  0.00  0.00    +0.010 A 
ATOM     29  C   UNL     1       2.274  -0.071  -1.302  0.00  0.00    -0.002 A 
ATOM     30  C   UNL     1       1.087  -0.785  -1.114  0.00  0.00    +0.010 A 
ATOM     31  C   UNL     1      -0.123  -0.124  -1.142  0.00  0.00    +0.001 A 
ENDBRANCH  19  29
ENDBRANCH  18  24
ENDBRANCH  17  18
ENDBRANCH   1  17
TORSDOF 6
