REMARK  Name = ZINC38776902
REMARK  10 active torsions:
REMARK  status: ('A' for Active; 'I' for Inactive)
REMARK    1  A    between atoms: C_1  and  C_2
REMARK    2  A    between atoms: C_2  and  C_3
REMARK    3  A    between atoms: C_5  and  C_21
REMARK    4  A    between atoms: C_6  and  O_20
REMARK    5  A    between atoms: C_8  and  O_9
REMARK    6  A    between atoms: O_9  and  C_10
REMARK    7  A    between atoms: C_10  and  C_11
REMARK    8  A    between atoms: C_14  and  N_17
REMARK    9  A    between atoms: C_23  and  C_28
REMARK   10  A    between atoms: C_24  and  C_27
REMARK                            x       y       z     vdW  Elec       q    Type
REMARK                         _______ _______ _______ _____ _____    ______ ____
ROOT
ATOM      1  C   UNL     1      -1.412  -0.526   0.013  0.00  0.00    -0.005 A 
ATOM      2  C   UNL     1      -2.014  -0.864   1.210  0.00  0.00    +0.016 A 
ATOM      3  C   UNL     1      -3.310  -1.342   1.223  0.00  0.00    +0.023 A 
ATOM      4  C   UNL     1      -4.010  -1.484   0.033  0.00  0.00    +0.126 A 
ATOM      5  C   UNL     1      -3.409  -1.146  -1.169  0.00  0.00    +0.091 A 
ATOM      6  C   UNL     1      -2.110  -0.661  -1.179  0.00  0.00    +0.128 A 
ENDROOT
BRANCH   3   7
ATOM      7  C   UNL     1      -3.963  -1.710   2.530  0.00  0.00    +0.164 C 
ATOM      8  C   UNL     1      -4.836  -0.573   3.034  0.00  0.00    +0.011 C 
ATOM      9  C   UNL     1      -4.268  -0.236   4.217  0.00  0.00    +0.064 C 
ATOM     10  N   UNL     1      -3.204  -1.008   4.465  0.00  0.00    -0.182 NA
ATOM     11  N   UNL     1      -2.956  -1.852   3.595  0.00  0.00    -0.297 N 
ATOM     12  C   UNL     1      -4.766   0.857   5.127  0.00  0.00    +0.068 C 
ATOM     13  H   UNL     1      -2.228  -2.493   3.610  0.00  0.00    +0.183 HD
BRANCH   8  14
ATOM     14  C   UNL     1      -6.017   0.020   2.390  0.00  0.00    -0.014 A 
ATOM     15  C   UNL     1      -7.177  -0.742   2.212  0.00  0.00    +0.012 A 
ATOM     16  C   UNL     1      -8.281  -0.182   1.607  0.00  0.00    +0.050 A 
ATOM     17  C   UNL     1      -8.249   1.138   1.173  0.00  0.00    +0.162 A 
ATOM     18  C   UNL     1      -7.099   1.904   1.350  0.00  0.00    +0.163 A 
ATOM     19  C   UNL     1      -5.988   1.351   1.960  0.00  0.00    +0.057 A 
ATOM     20  O   UNL     1      -7.055   3.200   0.937  0.00  0.00    -0.485 OA
ATOM     21  C   UNL     1      -8.058   3.612   0.002  0.00  0.00    +0.270 C 
ATOM     22  C   UNL     1      -9.416   3.095   0.494  0.00  0.00    +0.270 C 
ATOM     23  O   UNL     1      -9.350   1.667   0.575  0.00  0.00    -0.485 OA
ENDBRANCH   8  14
ENDBRANCH   3   7
BRANCH   1  25
ATOM     24  C   UNL     1      -0.019   1.526   0.010  0.00  0.00    +0.009 C 
ATOM     25  C   UNL     1       0.002  -0.004   0.002  0.00  0.00    +0.035 C 
ENDBRANCH   1  25
BRANCH   4  26
ATOM     26  O   UNL     1      -5.285  -1.956   0.047  0.00  0.00    -0.506 OA
ATOM     27  H   UNL     1      -5.958  -1.266   0.131  0.00  0.00    +0.292 HD
ENDBRANCH   4  26
BRANCH   6  28
ATOM     28  O   UNL     1      -1.519  -0.323  -2.355  0.00  0.00    -0.487 OA
BRANCH  28  29
ATOM     29  C   UNL     1      -2.297  -0.488  -3.542  0.00  0.00    +0.264 C 
BRANCH  29  30
ATOM     30  C   UNL     1      -1.483  -0.065  -4.739  0.00  0.00    -0.010 A 
ATOM     31  C   UNL     1      -1.518   1.248  -5.169  0.00  0.00    +0.009 A 
ATOM     32  C   UNL     1      -0.771   1.635  -6.266  0.00  0.00    +0.033 A 
ATOM     33  C   UNL     1       0.010   0.710  -6.933  0.00  0.00    +0.126 A 
ATOM     34  C   UNL     1       0.045  -0.603  -6.502  0.00  0.00    +0.033 A 
ATOM     35  C   UNL     1      -0.698  -0.990  -5.402  0.00  0.00    +0.009 A 
BRANCH  33  36
ATOM     36  N   UNL     1       0.808   1.124  -8.108  0.00  0.00    +0.056 N 
ATOM     37  O   UNL     1       0.777   2.272  -8.485  0.00  0.00    -0.126 OA
ATOM     38  O   UNL     1       1.491   0.315  -8.691  0.00  0.00    -0.126 OA
ENDBRANCH  33  36
ENDBRANCH  29  30
ENDBRANCH  28  29
ENDBRANCH   6  28
TORSDOF 8
