REMARK  Name = ZINC09270412
REMARK  8 active torsions:
REMARK  status: ('A' for Active; 'I' for Inactive)
REMARK    1  A    between atoms: C_1  and  C_2
REMARK    2  A    between atoms: C_4  and  O_35
REMARK    3  A    between atoms: C_14  and  C_20
REMARK    4  A    between atoms: C_16  and  C_18
REMARK    5  A    between atoms: C_16  and  C_19
REMARK    6  A    between atoms: C_20  and  C_22
REMARK    7  A    between atoms: C_22  and  O_23
REMARK    8  A    between atoms: C_32  and  C_33
REMARK                            x       y       z     vdW  Elec       q    Type
REMARK                         _______ _______ _______ _____ _____    ______ ____
ROOT
ATOM      1  C   UNL     1       0.236   1.596   0.034  0.00  0.00    +0.015 C 
ATOM      2  C   UNL     1       0.132   0.073   0.049  0.00  0.00    +0.012 C 
ATOM      3  C   UNL     1      -1.300  -0.364   0.267  0.00  0.00    +0.044 C 
ATOM      4  C   UNL     1      -1.763   0.160   1.644  0.00  0.00    +0.154 C 
ATOM      5  C   UNL     1      -0.892  -0.365   2.769  0.00  0.00    +0.153 C 
ATOM      6  C   UNL     1       0.608  -0.166   2.526  0.00  0.00    +0.034 C 
ATOM      7  C   UNL     1       0.994  -0.580   1.147  0.00  0.00    +0.007 C 
ATOM      8  C   UNL     1       2.413  -0.282   0.651  0.00  0.00    +0.039 C 
ATOM      9  C   UNL     1       2.297  -0.638  -0.861  0.00  0.00    +0.162 C 
ATOM     10  C   UNL     1       0.800  -0.444  -1.235  0.00  0.00    +0.164 C 
ATOM     11  O   UNL     1       0.314  -1.749  -1.561  0.00  0.00    -0.332 OA
ATOM     12  C   UNL     1       1.465  -2.578  -1.802  0.00  0.00    +0.166 C 
ATOM     13  O   UNL     1       2.527  -2.053  -0.989  0.00  0.00    -0.343 OA
ATOM     14  C   UNL     1       1.159  -4.025  -1.388  0.00  0.00    +0.074 C 
ATOM     15  C   UNL     1       1.860  -2.548  -3.283  0.00  0.00    +0.074 C 
ATOM     16  C   UNL     1       1.008   1.250   2.927  0.00  0.00    +0.011 C 
ATOM     17  C   UNL     1       1.061   1.257   4.461  0.00  0.00    +0.032 C 
ATOM     18  C   UNL     1      -0.196   0.624   5.011  0.00  0.00    -0.053 C 
ATOM     19  C   UNL     1      -0.300   0.603   6.351  0.00  0.00    +0.051 C 
ATOM     20  C   UNL     1      -1.475  -0.030   6.983  0.00  0.00    +0.179 C 
ATOM     21  O   UNL     1      -1.763   0.183   8.157  0.00  0.00    -0.288 OA
ATOM     22  C   UNL     1      -2.280  -0.960   6.158  0.00  0.00    +0.047 C 
ATOM     23  C   UNL     1      -2.167  -0.915   4.828  0.00  0.00    -0.009 C 
ATOM     24  C   UNL     1      -1.290   0.096   4.150  0.00  0.00    +0.044 C 
ATOM     25  C   UNL     1      -2.210   1.308   3.981  0.00  0.00    +0.023 C 
ATOM     26  F   UNL     1      -1.084  -1.770   2.779  0.00  0.00    -0.238 F 
ENDROOT
BRANCH  10  27
ATOM     27  C   UNL     1       0.620   0.544  -2.360  0.00  0.00    +0.193 C 
ATOM     28  O   UNL     1       1.472   1.371  -2.580  0.00  0.00    -0.292 OA
BRANCH  27  29
ATOM     29  C   UNL     1      -0.623   0.499  -3.211  0.00  0.00    +0.233 C 
BRANCH  29  30
ATOM     30  O   UNL     1      -0.615   1.597  -4.125  0.00  0.00    -0.387 OA
ATOM     31  H   UNL     1      -1.387   1.631  -4.706  0.00  0.00    +0.210 HD
ENDBRANCH  29  30
ENDBRANCH  27  29
ENDBRANCH  10  27
BRANCH   4  32
ATOM     32  O   UNL     1      -3.107  -0.316   1.826  0.00  0.00    -0.389 OA
ATOM     33  H   UNL     1      -3.727  -0.011   1.150  0.00  0.00    +0.210 HD
ENDBRANCH   4  32
TORSDOF 4
