REMARK  Name = ZINC08793149
REMARK  6 active torsions:
REMARK  status: ('A' for Active; 'I' for Inactive)
REMARK    1  A    between atoms: C_1  and  N_52
REMARK    2  A    between atoms: C_7  and  N_13
REMARK    3  A    between atoms: C_8  and  C_9
REMARK    4  A    between atoms: C_9  and  O_11
REMARK    5  A    between atoms: O_11  and  C_12
REMARK    6  A    between atoms: C_14  and  C_16
REMARK                            x       y       z     vdW  Elec       q    Type
REMARK                         _______ _______ _______ _____ _____    ______ ____
ROOT
ATOM      1  N   UNL     1      -3.708   7.574   0.077  0.00  0.00    -0.275 N 
ATOM      2  C   UNL     1      -2.514   8.198   0.069  0.00  0.00    +0.256 C 
ATOM      3  O   UNL     1      -2.463   9.414   0.074  0.00  0.00    -0.270 OA
ATOM      4  H   UNL     1      -3.749   6.604   0.072  0.00  0.00    +0.156 HD
ENDROOT
BRANCH   2   5
ATOM      5  C   UNL     1      -1.272   7.410   0.053  0.00  0.00    +0.122 A 
ATOM      6  C   UNL     1      -1.312   6.021   0.046  0.00  0.00    +0.032 A 
ATOM      7  C   UNL     1      -0.098   5.309   0.032  0.00  0.00    +0.026 A 
ATOM      8  C   UNL     1      -0.094   3.844   0.024  0.00  0.00    -0.007 A 
ATOM      9  C   UNL     1      -1.282   3.109   0.031  0.00  0.00    +0.009 A 
ATOM     10  C   UNL     1      -1.232   1.745   0.017  0.00  0.00    +0.001 A 
ATOM     11  C   UNL     1      -0.013   1.076   0.008  0.00  0.00    +0.001 A 
ATOM     12  C   UNL     1       1.164   1.764   0.000  0.00  0.00    +0.008 A 
ATOM     13  C   UNL     1       1.149   3.167   0.008  0.00  0.00    -0.017 A 
ATOM     14  C   UNL     1       2.344   3.913   0.002  0.00  0.00    +0.012 A 
ATOM     15  C   UNL     1       2.325   5.269   0.008  0.00  0.00    +0.047 A 
ATOM     16  C   UNL     1       1.126   5.992   0.024  0.00  0.00    +0.140 A 
ATOM     17  O   UNL     1       1.161   7.341   0.030  0.00  0.00    -0.422 OA
ATOM     18  C   UNL     1       0.035   8.073   0.045  0.00  0.00    +0.350 A 
ATOM     19  O   UNL     1       0.101   9.289   0.050  0.00  0.00    -0.244 OA
ENDBRANCH   2   5
BRANCH   1  26
ATOM     20  C   UNL     1     -10.006  12.068  -0.063  0.00  0.00    -0.096 C 
ATOM     21  C   UNL     1      -9.486   9.793   0.585  0.00  0.00    -0.074 C 
ATOM     22  C   UNL     1      -8.735   8.538   0.132  0.00  0.00    +0.018 C 
ATOM     23  C   UNL     1      -7.244   8.855   0.116  0.00  0.00    -0.025 A 
ATOM     24  C   UNL     1      -6.824  10.140   0.118  0.00  0.00    -0.021 A 
ATOM     25  S   UNL     1      -5.059  10.039   0.108  0.00  0.00    -0.079 S 
ATOM     26  C   UNL     1      -4.877   8.316   0.091  0.00  0.00    +0.086 A 
ATOM     27  C   UNL     1      -6.190   7.858   0.101  0.00  0.00    +0.091 A 
ATOM     28  C   UNL     1      -7.693  11.359   0.131  0.00  0.00    -0.036 C 
ATOM     29  N   UNL     1      -9.066  10.941  -0.245  0.00  0.00    +0.381 N 
ATOM     30  H   UNL     1      -9.071  10.659  -1.233  0.00  0.00    -0.082 HD
BRANCH  27  31
ATOM     31  C   UNL     1      -6.497   6.427   0.096  0.00  0.00    +0.342 C 
ATOM     32  O   UNL     1      -6.614   5.826   1.147  0.00  0.00    -0.245 OA
BRANCH  31  33
ATOM     33  O   UNL     1      -6.650   5.773  -1.074  0.00  0.00    -0.464 OA
ATOM     34  C   UNL     1      -6.953   4.355  -1.003  0.00  0.00    +0.280 C 
ENDBRANCH  31  33
ENDBRANCH  27  31
ENDBRANCH   1  26
TORSDOF 4
