REMARK  Name = ZINC22735185
REMARK  9 active torsions:
REMARK  status: ('A' for Active; 'I' for Inactive)
REMARK    1  A    between atoms: C_1  and  N_2
REMARK    2  A    between atoms: N_5  and  C_8
REMARK    3  A    between atoms: C_8  and  C_10
REMARK    4  A    between atoms: C_8  and  C_24
REMARK    5  A    between atoms: C_10  and  N_11
REMARK    6  A    between atoms: C_12  and  C_14
REMARK    7  A    between atoms: N_16  and  C_17
REMARK    8  A    between atoms: C_17  and  C_18
REMARK    9  A    between atoms: N_33  and  C_34
REMARK                            x       y       z     vdW  Elec       q    Type
REMARK                         _______ _______ _______ _____ _____    ______ ____
ROOT
ATOM      1  C   UNL     1       3.088  -2.176   4.338  0.00  0.00    +0.104 C 
ENDROOT
BRANCH   1   2
ATOM      2  C   UNL     1       1.641  -2.051   3.934  0.00  0.00    -0.028 A 
ATOM      3  C   UNL     1       0.667  -2.751   4.622  0.00  0.00    +0.007 A 
ATOM      4  C   UNL     1      -0.655  -2.637   4.248  0.00  0.00    +0.024 A 
ATOM      5  C   UNL     1      -1.019  -1.818   3.178  0.00  0.00    +0.033 A 
ATOM      6  C   UNL     1      -0.041  -1.115   2.497  0.00  0.00    -0.026 A 
ATOM      7  C   UNL     1       1.287  -1.237   2.876  0.00  0.00    +0.010 A 
ATOM      8  C   UNL     1      -0.370  -0.201   1.344  0.00  0.00    +0.038 C 
ATOM      9  C   UNL     1      -1.787  -0.491   0.844  0.00  0.00    +0.024 C 
ATOM     10  C   UNL     1      -2.713  -0.560   2.065  0.00  0.00    +0.105 C 
ATOM     11  N   UNL     1      -2.371  -1.750   2.846  0.00  0.00    -0.333 N 
ATOM     12  C   UNL     1      -3.214  -1.854   4.045  0.00  0.00    +0.129 C 
ENDBRANCH   1   2
BRANCH   1  17
ATOM     13  C   UNL     1       4.003  -7.309   2.166  0.00  0.00    -0.096 C 
ATOM     14  N   UNL     1       3.492  -5.995   2.578  0.00  0.00    +0.379 N 
ATOM     15  C   UNL     1       3.341  -5.922   4.037  0.00  0.00    -0.064 C 
ATOM     16  C   UNL     1       2.732  -4.570   4.418  0.00  0.00    +0.066 C 
ATOM     17  N   UNL     1       3.599  -3.490   3.927  0.00  0.00    -0.297 NA
ATOM     18  C   UNL     1       3.751  -3.562   2.467  0.00  0.00    +0.066 C 
ATOM     19  C   UNL     1       4.359  -4.914   2.086  0.00  0.00    -0.064 C 
ATOM     20  H   UNL     1       2.497  -5.864   2.126  0.00  0.00    -0.082 HD
ENDBRANCH   1  17
BRANCH   1  21
ATOM     21  C   UNL     1       3.207  -2.035   5.857  0.00  0.00    +0.128 C 
BRANCH  21  22
ATOM     22  N   UNL     1       4.600  -2.243   6.259  0.00  0.00    -0.306 N 
ATOM     23  C   UNL     1       4.928  -2.264   7.566  0.00  0.00    +0.299 C 
ATOM     24  O   UNL     1       4.069  -2.111   8.410  0.00  0.00    -0.265 OA
ATOM     25  H   UNL     1       5.378  -2.381   5.494  0.00  0.00    +0.149 HD
BRANCH  23  26
ATOM     26  C   UNL     1       6.349  -2.477   7.976  0.00  0.00    +0.299 C 
ATOM     27  O   UNL     1       7.208  -2.630   7.133  0.00  0.00    -0.265 OA
ATOM     28  N   UNL     1       6.678  -2.498   9.283  0.00  0.00    -0.305 N 
ATOM     29  H   UNL     1       5.899  -2.359  10.048  0.00  0.00    +0.149 HD
BRANCH  28  30
ATOM     30  C   UNL     1       8.071  -2.706   9.685  0.00  0.00    +0.136 C 
BRANCH  30  31
ATOM     31  C   UNL     1       8.170  -2.687  11.212  0.00  0.00    +0.135 C 
ATOM     32  C   UNL     1       9.632  -2.905  11.646  0.00  0.00    +0.035 C 
ATOM     33  C   UNL     1       9.974  -1.643  12.475  0.00  0.00    +0.031 C 
ATOM     34  C   UNL     1       8.569  -1.129  12.878  0.00  0.00    +0.160 C 
ATOM     35  O   UNL     1       7.763  -1.402  11.712  0.00  0.00    -0.375 OA
ENDBRANCH  30  31
ENDBRANCH  28  30
ENDBRANCH  23  26
ENDBRANCH  21  22
ENDBRANCH   1  21
TORSDOF 7
