REMARK  Name = ZINC56750071
REMARK  8 active torsions:
REMARK  status: ('A' for Active; 'I' for Inactive)
REMARK    1  A    between atoms: C_1  and  C_2
REMARK    2  A    between atoms: C_5  and  C_9
REMARK    3  A    between atoms: C_6  and  C_8
REMARK    4  A    between atoms: C_9  and  N_10
REMARK    5  A    between atoms: C_11  and  C_13
REMARK    6  A    between atoms: C_13  and  C_14
REMARK    7  A    between atoms: C_15  and  C_28
REMARK    8  A    between atoms: C_17  and  C_22
REMARK                            x       y       z     vdW  Elec       q    Type
REMARK                         _______ _______ _______ _____ _____    ______ ____
ROOT
ATOM      1  C   UNL     1      -2.890  -8.139   0.503  0.00  0.00    +0.047 A 
ATOM      2  C   UNL     1      -2.778  -8.838   1.669  0.00  0.00    +0.049 A 
ATOM      3  N   UNL     1      -2.762 -10.170   1.651  0.00  0.00    -0.234 NA
ATOM      4  C   UNL     1      -2.853 -10.842   0.524  0.00  0.00    +0.141 A 
ATOM      5  N   UNL     1      -2.966 -10.201  -0.672  0.00  0.00    -0.307 N 
ATOM      6  H   UNL     1      -3.032 -10.712  -1.494  0.00  0.00    +0.170 HD
ATOM      7  C   UNL     1      -2.993  -8.851  -0.709  0.00  0.00    +0.256 A 
ATOM      8  O   UNL     1      -3.100  -8.260  -1.771  0.00  0.00    -0.267 OA
ATOM      9  C   UNL     1      -2.672  -8.102   2.979  0.00  0.00    +0.066 C 
ENDROOT
BRANCH   4  10
ATOM     10  C   UNL     1      -2.830 -12.321   0.556  0.00  0.00    +0.020 A 
ATOM     11  C   UNL     1      -2.918 -13.068  -0.624  0.00  0.00    +0.031 A 
ATOM     12  C   UNL     1      -2.893 -14.446  -0.547  0.00  0.00    +0.111 A 
ATOM     13  N   UNL     1      -2.787 -15.058   0.617  0.00  0.00    -0.263 NA
ATOM     14  C   UNL     1      -2.701 -14.393   1.752  0.00  0.00    +0.111 A 
ATOM     15  C   UNL     1      -2.713 -13.012   1.768  0.00  0.00    +0.031 A 
ENDBRANCH   4  10
BRANCH   1  16
ATOM     16  C   UNL     1      -2.909  -6.633   0.512  0.00  0.00    +0.138 C 
BRANCH  16  18
ATOM     17  N   UNL     1      -1.293  -4.782   0.223  0.00  0.00    -0.311 N 
ATOM     18  C   UNL     1      -1.518  -6.111   0.260  0.00  0.00    +0.218 C 
ATOM     19  O   UNL     1      -0.601  -6.886   0.091  0.00  0.00    -0.275 OA
ATOM     20  H   UNL     1      -2.026  -4.162   0.359  0.00  0.00    +0.149 HD
BRANCH  17  21
ATOM     21  C   UNL     1       0.059  -4.275  -0.021  0.00  0.00    +0.139 C 
BRANCH  21  26
ATOM     22  C   UNL     1      -0.018   1.503   0.010  0.00  0.00    +0.044 C 
ATOM     23  C   UNL     1       0.002  -0.004   0.002  0.00  0.00    -0.050 A 
ATOM     24  C   UNL     1       0.006  -0.689  -1.199  0.00  0.00    +0.004 A 
ATOM     25  C   UNL     1       0.025  -2.071  -1.207  0.00  0.00    +0.006 A 
ATOM     26  C   UNL     1       0.040  -2.768  -0.013  0.00  0.00    -0.027 A 
ATOM     27  C   UNL     1       0.037  -2.084   1.188  0.00  0.00    -0.046 A 
ATOM     28  C   UNL     1       0.023  -0.702   1.195  0.00  0.00    +0.007 A 
ATOM     29  C   UNL     1       0.054  -2.845   2.489  0.00  0.00    +0.044 C 
ENDBRANCH  21  26
ENDBRANCH  17  21
ENDBRANCH  16  18
ENDBRANCH   1  16
TORSDOF 5
