REMARK  Name = ZINC00638094
REMARK  5 active torsions:
REMARK  status: ('A' for Active; 'I' for Inactive)
REMARK    1  A    between atoms: C_1  and  S_2
REMARK    2  A    between atoms: S_2  and  C_3
REMARK    3  A    between atoms: C_8  and  C_22
REMARK    4  A    between atoms: C_11  and  C_14
REMARK    5  A    between atoms: C_19  and  O_20
REMARK                            x       y       z     vdW  Elec       q    Type
REMARK                         _______ _______ _______ _____ _____    ______ ____
ROOT
ATOM      1  C   UNL     1       0.877  -0.427   1.472  0.00  0.00    +0.210 A 
ATOM      2  N   UNL     1       1.378   0.447   2.358  0.00  0.00    -0.188 NA
ATOM      3  C   UNL     1       1.964  -0.204   3.328  0.00  0.00    +0.216 A 
ATOM      4  N   UNL     1       1.845  -1.531   3.078  0.00  0.00    -0.225 N 
ATOM      5  N   UNL     1       1.138  -1.649   1.880  0.00  0.00    -0.141 NA
ATOM      6  C   UNL     1       2.374  -2.583   3.945  0.00  0.00    +0.143 C 
ATOM      7  C   UNL     1       2.631  -1.994   5.338  0.00  0.00    +0.059 C 
ATOM      8  C   UNL     1       3.427  -0.691   5.209  0.00  0.00    +0.109 C 
ATOM      9  N   UNL     1       2.617   0.283   4.452  0.00  0.00    -0.307 N 
ATOM     10  H   UNL     1       2.546   1.211   4.723  0.00  0.00    +0.150 HD
ENDROOT
BRANCH   8  11
ATOM     11  C   UNL     1       4.719  -0.956   4.479  0.00  0.00    +0.017 A 
ATOM     12  C   UNL     1       4.830  -0.647   3.137  0.00  0.00    +0.047 A 
ATOM     13  C   UNL     1       6.016  -0.891   2.466  0.00  0.00    +0.124 A 
ATOM     14  C   UNL     1       7.093  -1.445   3.139  0.00  0.00    +0.042 A 
ATOM     15  C   UNL     1       6.984  -1.754   4.481  0.00  0.00    +0.048 A 
ATOM     16  C   UNL     1       5.798  -1.506   5.156  0.00  0.00    +0.122 A 
ATOM     17  F   UNL     1       6.124  -0.588   1.154  0.00  0.00    -0.205 F 
BRANCH  16  18
ATOM     18  O   UNL     1       5.691  -1.805   6.477  0.00  0.00    -0.506 OA
ATOM     19  H   UNL     1       5.377  -2.702   6.654  0.00  0.00    +0.292 HD
ENDBRANCH  16  18
ENDBRANCH   8  11
BRANCH   6  20
ATOM     20  C   UNL     1       1.373  -3.705   4.045  0.00  0.00    -0.023 A 
ATOM     21  C   UNL     1       0.108  -3.460   4.546  0.00  0.00    +0.006 A 
ATOM     22  C   UNL     1      -0.810  -4.490   4.638  0.00  0.00    +0.000 A 
ATOM     23  C   UNL     1      -0.463  -5.764   4.229  0.00  0.00    +0.000 A 
ATOM     24  C   UNL     1       0.801  -6.008   3.728  0.00  0.00    +0.000 A 
ATOM     25  C   UNL     1       1.718  -4.978   3.632  0.00  0.00    +0.006 A 
ENDBRANCH   6  20
BRANCH   1  27
ATOM     26  C   UNL     1      -0.022   1.810   0.012  0.00  0.00    +0.093 C 
ATOM     27  S   UNL     1       0.002  -0.004   0.002  0.00  0.00    -0.088 S 
ENDBRANCH   1  27
TORSDOF 4
