REMARK  Name = ZINC32741770
REMARK  7 active torsions:
REMARK  status: ('A' for Active; 'I' for Inactive)
REMARK    1  A    between atoms: C_1  and  C_2
REMARK    2  A    between atoms: C_3  and  C_12
REMARK    3  A    between atoms: C_12  and  O_13
REMARK    4  A    between atoms: O_13  and  C_14
REMARK    5  A    between atoms: C_14  and  C_16
REMARK    6  A    between atoms: C_19  and  O_35
REMARK    7  A    between atoms: C_23  and  C_25
REMARK                            x       y       z     vdW  Elec       q    Type
REMARK                         _______ _______ _______ _____ _____    ______ ____
ROOT
ATOM      1  C   UNL     1      -5.668   7.174   2.813  0.00  0.00    +0.187 C 
ATOM      2  C   UNL     1      -4.600   8.185   3.281  0.00  0.00    +0.066 C 
ATOM      3  C   UNL     1      -5.440   9.259   4.022  0.00  0.00    +0.134 C 
ATOM      4  C   UNL     1      -6.731   9.288   3.168  0.00  0.00    +0.140 C 
ATOM      5  N   UNL     1      -6.954   7.885   2.773  0.00  0.00    -0.285 N 
ATOM      6  C   UNL     1      -8.141   7.344   2.432  0.00  0.00    +0.223 C 
ATOM      7  O   UNL     1      -8.193   6.201   2.030  0.00  0.00    -0.275 OA
ENDROOT
BRANCH   6   8
ATOM      8  C   UNL     1      -9.402   8.160   2.549  0.00  0.00    +0.048 C 
ATOM      9  C   UNL     1      -9.233   9.475   1.785  0.00  0.00    +0.019 C 
ATOM     10  C   UNL     1     -10.514  10.303   1.904  0.00  0.00    -0.009 C 
ATOM     11  C   UNL     1     -11.686   9.517   1.313  0.00  0.00    +0.007 C 
ATOM     12  C   UNL     1     -11.855   8.202   2.077  0.00  0.00    -0.009 C 
ATOM     13  C   UNL     1     -10.575   7.374   1.958  0.00  0.00    +0.019 C 
ATOM     14  C   UNL     1     -12.134   8.501   3.551  0.00  0.00    +0.007 C 
ATOM     15  C   UNL     1     -10.962   9.287   4.142  0.00  0.00    -0.009 C 
ATOM     16  C   UNL     1     -10.792  10.602   3.378  0.00  0.00    +0.007 C 
ATOM     17  C   UNL     1      -9.681   8.459   4.023  0.00  0.00    +0.019 C 
ENDBRANCH   6   8
BRANCH   1  18
ATOM     18  C   UNL     1      -5.322   6.663   1.438  0.00  0.00    +0.328 C 
ATOM     19  O   UNL     1      -6.070   6.868   0.511  0.00  0.00    -0.249 OA
BRANCH  18  20
ATOM     20  O   UNL     1      -4.183   5.980   1.243  0.00  0.00    -0.457 OA
BRANCH  20  21
ATOM     21  C   UNL     1      -3.915   5.519  -0.107  0.00  0.00    +0.289 C 
BRANCH  21  24
ATOM     22  C   UNL     1      -1.469   6.963  -0.626  0.00  0.00    +0.067 C 
ATOM     23  C   UNL     1      -1.419   5.477  -0.384  0.00  0.00    +0.063 A 
ATOM     24  C   UNL     1      -2.603   4.778  -0.133  0.00  0.00    +0.100 A 
ATOM     25  N   UNL     1      -2.584   3.482   0.081  0.00  0.00    -0.245 NA
ATOM     26  C   UNL     1      -1.420   2.823   0.058  0.00  0.00    +0.090 A 
ATOM     27  C   UNL     1      -1.366   1.436   0.277  0.00  0.00    +0.030 A 
ATOM     28  C   UNL     1      -0.166   0.795   0.253  0.00  0.00    +0.002 A 
ATOM     29  C   UNL     1       1.014   1.492   0.002  0.00  0.00    +0.002 A 
ATOM     30  C   UNL     1       1.001   2.835  -0.220  0.00  0.00    +0.030 A 
ATOM     31  C   UNL     1      -0.219   3.533  -0.197  0.00  0.00    +0.089 A 
ATOM     32  N   UNL     1      -0.265   4.852  -0.412  0.00  0.00    -0.248 NA
ENDBRANCH  21  24
ENDBRANCH  20  21
ENDBRANCH  18  20
ENDBRANCH   1  18
BRANCH   3  33
ATOM     33  O   UNL     1      -4.783  10.528   4.001  0.00  0.00    -0.390 OA
ATOM     34  H   UNL     1      -5.251  11.398   4.486  0.00  0.00    +0.210 HD
ENDBRANCH   3  33
TORSDOF 6
