REMARK  Name = ZINC39834784
REMARK  9 active torsions:
REMARK  status: ('A' for Active; 'I' for Inactive)
REMARK    1  A    between atoms: C_1  and  C_2
REMARK    2  A    between atoms: C_2  and  O_3
REMARK    3  A    between atoms: O_3  and  C_4
REMARK    4  A    between atoms: C_7  and  N_10
REMARK    5  A    between atoms: N_12  and  C_31
REMARK    6  A    between atoms: C_13  and  C_16
REMARK    7  A    between atoms: C_19  and  S_22
REMARK    8  A    between atoms: S_22  and  N_25
REMARK    9  A    between atoms: C_31  and  C_32
REMARK                            x       y       z     vdW  Elec       q    Type
REMARK                         _______ _______ _______ _____ _____    ______ ____
ROOT
ATOM      1  N   UNL     1       1.435  -5.774   1.648  0.00  0.00    -0.295 N 
ATOM      2  C   UNL     1       1.971  -6.378   2.775  0.00  0.00    +0.143 A 
ATOM      3  N   UNL     1       1.669  -7.542   3.321  0.00  0.00    -0.320 N 
ATOM      4  C   UNL     1       2.293  -7.970   4.416  0.00  0.00    +0.058 A 
ATOM      5  C   UNL     1       3.261  -7.189   4.982  0.00  0.00    +0.074 A 
ATOM      6  S   UNL     1       3.258  -5.792   3.867  0.00  0.00    -0.062 S 
ATOM      7  H   UNL     1       0.662  -6.163   1.210  0.00  0.00    +0.154 HD
ENDROOT
BRANCH   1  11
ATOM      8  C   UNL     1       3.146  -2.283   0.142  0.00  0.00    +0.121 A 
ATOM      9  C   UNL     1       3.928  -3.195   0.835  0.00  0.00    +0.047 A 
ATOM     10  C   UNL     1       3.362  -4.352   1.334  0.00  0.00    +0.027 A 
ATOM     11  C   UNL     1       2.010  -4.601   1.143  0.00  0.00    +0.033 A 
ATOM     12  C   UNL     1       1.227  -3.687   0.449  0.00  0.00    +0.027 A 
ATOM     13  C   UNL     1       1.794  -2.529  -0.045  0.00  0.00    +0.047 A 
BRANCH   8  14
ATOM     14  O   UNL     1       3.704  -1.145  -0.350  0.00  0.00    -0.492 OA
BRANCH  14  16
ATOM     15  C   UNL     1       5.546   0.370  -0.742  0.00  0.00    +0.048 C 
ATOM     16  C   UNL     1       5.102  -0.956  -0.121  0.00  0.00    +0.225 C 
ENDBRANCH  14  16
ENDBRANCH   8  14
ENDBRANCH   1  11
BRANCH   4  17
ATOM     17  C   UNL     1       1.940  -9.279   5.016  0.00  0.00    -0.001 A 
ATOM     18  C   UNL     1       1.567 -10.345   4.199  0.00  0.00    +0.012 A 
ATOM     19  C   UNL     1       1.240 -11.561   4.763  0.00  0.00    +0.029 A 
ATOM     20  C   UNL     1       1.280 -11.724   6.136  0.00  0.00    +0.106 A 
ATOM     21  C   UNL     1       1.649 -10.669   6.952  0.00  0.00    +0.029 A 
ATOM     22  C   UNL     1       1.984  -9.450   6.399  0.00  0.00    +0.012 A 
BRANCH  20  23
ATOM     23  S   UNL     1       0.861 -13.279   6.849  0.00  0.00    +0.061 S 
ATOM     24  O   UNL     1       0.450 -13.017   8.184  0.00  0.00    -0.153 OA
ATOM     25  O   UNL     1       0.025 -13.944   5.911  0.00  0.00    -0.153 OA
BRANCH  23  26
ATOM     26  N   UNL     1       2.256 -14.165   6.949  0.00  0.00    -0.177 NA
ATOM     27  C   UNL     1       2.675 -15.031   5.838  0.00  0.00    +0.109 C 
ATOM     28  C   UNL     1       4.110 -14.668   5.443  0.00  0.00    +0.017 C 
ATOM     29  C   UNL     1       5.011 -14.750   6.678  0.00  0.00    +0.003 C 
ATOM     30  C   UNL     1       4.530 -13.747   7.729  0.00  0.00    +0.017 C 
ATOM     31  C   UNL     1       3.103 -14.095   8.147  0.00  0.00    +0.109 C 
ENDBRANCH  23  26
ENDBRANCH  20  23
ENDBRANCH   4  17
BRANCH   3  32
ATOM     32  C   UNL     1       0.631  -8.376   2.712  0.00  0.00    +0.155 C 
BRANCH  32  33
ATOM     33  C   UNL     1       1.047  -8.750   1.288  0.00  0.00    +0.138 C 
ATOM     34  C   UNL     1      -0.093  -9.527   0.595  0.00  0.00    +0.035 C 
ATOM     35  C   UNL     1       0.683 -10.609  -0.203  0.00  0.00    +0.031 C 
ATOM     36  C   UNL     1       1.871 -10.884   0.752  0.00  0.00    +0.160 C 
ATOM     37  O   UNL     1       2.195  -9.606   1.326  0.00  0.00    -0.375 OA
ENDBRANCH  32  33
ENDBRANCH   3  32
TORSDOF 8
