REMARK  Name = ZINC66468026
REMARK  7 active torsions:
REMARK  status: ('A' for Active; 'I' for Inactive)
REMARK    1  A    between atoms: C_1  and  C_2
REMARK    2  A    between atoms: C_2  and  C_3
REMARK    3  A    between atoms: C_2  and  C_4
REMARK    4  A    between atoms: C_2  and  C_5
REMARK    5  A    between atoms: N_13  and  C_14
REMARK    6  A    between atoms: C_14  and  C_15
REMARK    7  A    between atoms: C_19  and  C_21
REMARK                            x       y       z     vdW  Elec       q    Type
REMARK                         _______ _______ _______ _____ _____    ______ ____
ROOT
ATOM      1  C   UNL     1       0.707  -0.490  -1.238  0.00  0.00    +0.068 A 
ATOM      2  C   UNL     1       2.036  -0.472  -1.446  0.00  0.00    +0.139 A 
ATOM      3  N   UNL     1       2.274  -1.006  -2.706  0.00  0.00    -0.212 N 
ATOM      4  C   UNL     1       1.036  -1.321  -3.194  0.00  0.00    +0.197 A 
ATOM      5  N   UNL     1       0.118  -1.020  -2.320  0.00  0.00    -0.224 NA
ATOM      6  S   UNL     1       1.413  -1.993  -4.795  0.00  0.00    -0.013 S 
ATOM      7  C   UNL     1       3.188  -1.812  -4.716  0.00  0.00    +0.182 A 
ATOM      8  N   UNL     1       3.357  -1.280  -3.535  0.00  0.00    -0.142 NA
ATOM      9  N   UNL     1       4.141  -2.150  -5.663  0.00  0.00    -0.315 N 
ATOM     10  H   UNL     1       5.081  -1.994  -5.483  0.00  0.00    +0.148 HD
ENDROOT
BRANCH   1  12
ATOM     11  C   UNL     1      -0.019   1.526   0.010  0.00  0.00    +0.017 C 
ATOM     12  C   UNL     1       0.002  -0.004   0.002  0.00  0.00    +0.006 C 
ATOM     13  C   UNL     1       0.742  -0.511   1.242  0.00  0.00    +0.017 C 
ATOM     14  C   UNL     1      -1.433  -0.534   0.013  0.00  0.00    +0.017 C 
ENDBRANCH   1  12
BRANCH   9  15
ATOM     15  C   UNL     1       3.729  -2.743  -6.938  0.00  0.00    +0.179 C 
BRANCH  15  16
ATOM     16  C   UNL     1       4.947  -3.014  -7.783  0.00  0.00    +0.143 A 
ATOM     17  N   UNL     1       5.606  -4.184  -7.862  0.00  0.00    -0.261 N 
ATOM     18  H   UNL     1       5.390  -5.004  -7.392  0.00  0.00    +0.190 HD
ATOM     19  N   UNL     1       6.667  -3.986  -8.760  0.00  0.00    -0.152 NA
ATOM     20  C   UNL     1       6.592  -2.735  -9.164  0.00  0.00    +0.188 A 
ATOM     21  N   UNL     1       5.540  -2.154  -8.569  0.00  0.00    -0.209 NA
BRANCH  20  22
ATOM     22  C   UNL     1       7.511  -2.080 -10.120  0.00  0.00    +0.058 A 
ATOM     23  C   UNL     1       8.593  -2.606 -10.774  0.00  0.00    +0.019 A 
ATOM     24  C   UNL     1       9.309  -1.796 -11.628  0.00  0.00    +0.008 A 
ATOM     25  C   UNL     1       8.922  -0.505 -11.794  0.00  0.00    +0.046 A 
ATOM     26  S   UNL     1       7.495  -0.402 -10.727  0.00  0.00    -0.093 S 
ENDBRANCH  20  22
ENDBRANCH  15  16
ENDBRANCH   9  15
TORSDOF 4
