REMARK  Name = ZINC13063163
REMARK  8 active torsions:
REMARK  status: ('A' for Active; 'I' for Inactive)
REMARK    1  A    between atoms: C_1  and  N_2
REMARK    2  A    between atoms: N_2  and  C_17
REMARK    3  A    between atoms: C_3  and  C_5
REMARK    4  A    between atoms: C_5  and  O_6
REMARK    5  A    between atoms: O_6  and  C_7
REMARK    6  A    between atoms: C_7  and  C_9
REMARK    7  A    between atoms: C_13  and  N_15
REMARK    8  A    between atoms: C_17  and  C_24
REMARK                            x       y       z     vdW  Elec       q    Type
REMARK                         _______ _______ _______ _____ _____    ______ ____
ROOT
ATOM      1  C   UNL     1       1.641   4.128   1.327  0.00  0.00    +0.133 C 
ATOM      2  N   UNL     1       1.440   2.678   1.287  0.00  0.00    -0.285 N 
ATOM      3  C   UNL     1       1.406   1.970   2.433  0.00  0.00    +0.254 C 
ATOM      4  O   UNL     1       1.239   0.769   2.400  0.00  0.00    -0.272 OA
ENDROOT
BRANCH   2   5
ATOM      5  C   UNL     1       1.277   1.996   0.000  0.00  0.00    +0.122 C 
ATOM      6  C   UNL     1       1.075   3.030  -1.112  0.00  0.00    +0.038 C 
ATOM      7  C   UNL     1      -0.243   3.771  -0.884  0.00  0.00    +0.003 C 
ATOM      8  C   UNL     1      -1.413   2.792  -0.989  0.00  0.00    +0.008 C 
ATOM      9  C   UNL     1      -1.306   1.749   0.123  0.00  0.00    +0.077 C 
ATOM     10  C   UNL     1       0.059   1.100   0.051  0.00  0.00    +0.161 C 
ATOM     11  O   UNL     1       0.173  -0.102   0.029  0.00  0.00    -0.295 OA
BRANCH   5  12
ATOM     12  C   UNL     1       2.502   1.169  -0.293  0.00  0.00    +0.002 A 
ATOM     13  C   UNL     1       3.549   1.141   0.609  0.00  0.00    +0.007 A 
ATOM     14  C   UNL     1       4.673   0.382   0.340  0.00  0.00    +0.000 A 
ATOM     15  C   UNL     1       4.750  -0.349  -0.831  0.00  0.00    +0.001 A 
ATOM     16  C   UNL     1       3.704  -0.321  -1.734  0.00  0.00    +0.020 A 
ATOM     17  C   UNL     1       2.576   0.434  -1.463  0.00  0.00    +0.047 A 
ATOM     18 CL   UNL     1       1.258   0.463  -2.592  0.00  0.00    -0.083 Cl
ENDBRANCH   5  12
ENDBRANCH   2   5
BRANCH   3  19
ATOM     19  C   UNL     1       1.573   2.671   3.757  0.00  0.00    +0.328 C 
BRANCH  19  20
ATOM     20  O   UNL     1       1.499   1.699   4.833  0.00  0.00    -0.452 OA
BRANCH  20  21
ATOM     21  C   UNL     1       1.631   2.166   6.089  0.00  0.00    +0.340 C 
ATOM     22  O   UNL     1       1.804   3.353   6.281  0.00  0.00    -0.245 OA
BRANCH  21  23
ATOM     23  C   UNL     1       1.566   1.235   7.234  0.00  0.00    +0.061 A 
ATOM     24  C   UNL     1       1.367  -0.131   7.016  0.00  0.00    +0.016 A 
ATOM     25  C   UNL     1       1.307  -0.999   8.086  0.00  0.00    +0.022 A 
ATOM     26  C   UNL     1       1.442  -0.522   9.378  0.00  0.00    +0.062 A 
ATOM     27  C   UNL     1       1.640   0.836   9.606  0.00  0.00    +0.044 A 
ATOM     28  C   UNL     1       1.708   1.715   8.536  0.00  0.00    +0.039 A 
ATOM     29 CL   UNL     1       1.363  -1.622  10.719  0.00  0.00    -0.082 Cl
BRANCH  27  30
ATOM     30  N   UNL     1       1.776   1.313  10.912  0.00  0.00    -0.357 N 
ATOM     31  H   UNL     1       1.732   0.698  11.661  0.00  0.00    +0.142 HD
ATOM     32  H   UNL     1       1.913   2.260  11.071  0.00  0.00    +0.142 HD
ENDBRANCH  27  30
ENDBRANCH  21  23
ENDBRANCH  20  21
ENDBRANCH  19  20
ENDBRANCH   3  19
TORSDOF 7
