REMARK  Name = ZINC42869801
REMARK  3 active torsions:
REMARK  status: ('A' for Active; 'I' for Inactive)
REMARK    1  A    between atoms: C_1  and  N_2
REMARK    2  A    between atoms: N_2  and  C_3
REMARK    3  A    between atoms: N_16  and  C_17
REMARK                            x       y       z     vdW  Elec       q    Type
REMARK                         _______ _______ _______ _____ _____    ______ ____
ROOT
ATOM      1  C   UNL     1      -0.018   1.461   0.010  0.00  0.00    +0.134 C 
ATOM      2  N   UNL     1       0.002  -0.004   0.002  0.00  0.00    -0.282 N 
ATOM      3  C   UNL     1       0.000  -0.672  -1.169  0.00  0.00    +0.303 C 
ATOM      4  O   UNL     1       0.017  -1.887  -1.175  0.00  0.00    -0.253 OA
ATOM      5  N   UNL     1      -0.020   0.009  -2.332  0.00  0.00    -0.295 N 
ATOM      6  H   UNL     1      -0.033   0.978  -2.327  0.00  0.00    +0.151 HD
ENDROOT
BRANCH   2   7
ATOM      7  C   UNL     1       0.024  -0.743   1.267  0.00  0.00    +0.108 C 
ATOM      8  C   UNL     1      -1.228  -0.402   2.071  0.00  0.00    +0.028 C 
ATOM      9  C   UNL     1      -1.083  -1.009   3.472  0.00  0.00    +0.007 C 
ATOM     10  C   UNL     1      -0.001  -0.235   4.222  0.00  0.00    +0.035 C 
ATOM     11  C   UNL     1       1.254  -0.144   3.394  0.00  0.00    -0.042 A 
ATOM     12  C   UNL     1       1.265  -0.373   2.037  0.00  0.00    -0.024 A 
ATOM     13  C   UNL     1       2.456  -0.266   1.331  0.00  0.00    +0.006 A 
ATOM     14  C   UNL     1       3.628   0.065   1.980  0.00  0.00    +0.000 A 
ATOM     15  C   UNL     1       3.617   0.292   3.343  0.00  0.00    +0.000 A 
ATOM     16  C   UNL     1       2.436   0.186   4.045  0.00  0.00    +0.004 A 
ENDBRANCH   2   7
BRANCH   5  17
ATOM     17  C   UNL     1      -0.022  -0.717  -3.605  0.00  0.00    +0.097 C 
ATOM     18  C   UNL     1       1.423  -1.034  -4.024  0.00  0.00    +0.046 C 
ATOM     19  C   UNL     1       1.453  -1.506  -5.498  0.00  0.00    +0.168 C 
ATOM     20  S   UNL     1      -0.008  -0.657  -6.224  0.00  0.00    -0.029 S 
ATOM     21  O   UNL     1       0.440   0.337  -7.134  0.00  0.00    -0.174 OA
ATOM     22  O   UNL     1      -0.942  -1.636  -6.661  0.00  0.00    -0.174 OA
ATOM     23  C   UNL     1      -0.665   0.166  -4.712  0.00  0.00    +0.188 C 
ENDBRANCH   5  17
TORSDOF 2
