REMARK  Name = ZINC39462718
REMARK  9 active torsions:
REMARK  status: ('A' for Active; 'I' for Inactive)
REMARK    1  A    between atoms: C_4  and  C_7
REMARK    2  A    between atoms: C_7  and  C_8
REMARK    3  A    between atoms: C_7  and  C_14
REMARK    4  A    between atoms: N_16  and  C_17
REMARK    5  A    between atoms: C_17  and  C_19
REMARK    6  A    between atoms: C_17  and  N_23
REMARK    7  A    between atoms: N_23  and  C_24
REMARK    8  A    between atoms: C_24  and  N_26
REMARK    9  A    between atoms: N_26  and  C_27
REMARK                            x       y       z     vdW  Elec       q    Type
REMARK                         _______ _______ _______ _____ _____    ______ ____
ROOT
ATOM      1  C   UNL     1       3.654  -1.665  -1.200  0.00  0.00    +0.226 C 
ATOM      2  O   UNL     1       2.674  -1.692  -1.915  0.00  0.00    -0.275 OA
ATOM      3  N   UNL     1       4.690  -2.490  -1.445  0.00  0.00    -0.293 N 
ATOM      4  H   UNL     1       5.473  -2.468  -0.873  0.00  0.00    +0.151 HD
ENDROOT
BRANCH   1   5
ATOM      5  C   UNL     1       3.711  -0.707  -0.038  0.00  0.00    +0.135 C 
BRANCH   5   9
ATOM      6  C   UNL     1       0.099   1.569   0.111  0.00  0.00    +0.000 A 
ATOM      7  C   UNL     1       1.322   2.214   0.082  0.00  0.00    +0.000 A 
ATOM      8  C   UNL     1       2.491   1.477   0.034  0.00  0.00    +0.005 A 
ATOM      9  C   UNL     1       2.437   0.096   0.015  0.00  0.00    -0.031 A 
ATOM     10  C   UNL     1       1.214  -0.549   0.045  0.00  0.00    +0.005 A 
ATOM     11  C   UNL     1       0.046   0.188   0.092  0.00  0.00    +0.000 A 
ENDBRANCH   5   9
BRANCH   5  12
ATOM     12  C   UNL     1       3.870  -1.483   1.245  0.00  0.00    -0.031 A 
ATOM     13  C   UNL     1       3.012  -2.528   1.531  0.00  0.00    +0.005 A 
ATOM     14  C   UNL     1       3.158  -3.240   2.707  0.00  0.00    +0.000 A 
ATOM     15  C   UNL     1       4.161  -2.906   3.597  0.00  0.00    +0.000 A 
ATOM     16  C   UNL     1       5.020  -1.861   3.310  0.00  0.00    +0.000 A 
ATOM     17  C   UNL     1       4.877  -1.153   2.132  0.00  0.00    +0.005 A 
ENDBRANCH   5  12
ENDBRANCH   1   5
BRANCH   3  18
ATOM     18  C   UNL     1       4.634  -3.421  -2.575  0.00  0.00    +0.211 C 
BRANCH  18  19
ATOM     19  C   UNL     1       5.123  -4.799  -2.125  0.00  0.00    +0.225 C 
ATOM     20 CL   UNL     1       4.069  -5.406  -0.794  0.00  0.00    -0.080 Cl
ATOM     21 CL   UNL     1       5.054  -5.944  -3.516  0.00  0.00    -0.080 Cl
ATOM     22 CL   UNL     1       6.822  -4.671  -1.536  0.00  0.00    -0.080 Cl
ENDBRANCH  18  19
BRANCH  18  23
ATOM     23  N   UNL     1       5.491  -2.928  -3.656  0.00  0.00    -0.305 N 
ATOM     24  H   UNL     1       6.455  -3.005  -3.585  0.00  0.00    +0.150 HD
BRANCH  23  25
ATOM     25  C   UNL     1       4.939  -2.368  -4.751  0.00  0.00    +0.135 C 
ATOM     26  S   UNL     1       3.237  -2.232  -4.878  0.00  0.00    -0.019 S 
BRANCH  25  27
ATOM     27  N   UNL     1       5.727  -1.914  -5.746  0.00  0.00    -0.286 N 
ATOM     28  H   UNL     1       6.692  -1.991  -5.674  0.00  0.00    +0.152 HD
BRANCH  27  29
ATOM     29  C   UNL     1       5.128  -1.305  -6.936  0.00  0.00    +0.335 C 
ATOM     30  N   UNL     1       6.153  -0.615  -7.739  0.00  0.00    -0.225 NA
ATOM     31  C   UNL     1       6.153  -1.220  -8.881  0.00  0.00    +0.243 C 
ATOM     32  N   UNL     1       5.241  -2.226  -8.909  0.00  0.00    -0.139 NA
ATOM     33  N   UNL     1       4.614  -2.342  -7.846  0.00  0.00    -0.139 NA
ENDBRANCH  27  29
ENDBRANCH  25  27
ENDBRANCH  23  25
ENDBRANCH  18  23
ENDBRANCH   3  18
TORSDOF 9
