REMARK  Name = ZINC47253691
REMARK  4 active torsions:
REMARK  status: ('A' for Active; 'I' for Inactive)
REMARK    1  A    between atoms: C_1  and  C_2
REMARK    2  A    between atoms: N_10  and  C_11
REMARK    3  A    between atoms: C_11  and  C_13
REMARK    4  A    between atoms: C_11  and  C_14
REMARK                            x       y       z     vdW  Elec       q    Type
REMARK                         _______ _______ _______ _____ _____    ______ ____
ROOT
ATOM      1  C   UNL     1       0.522   1.439  -0.788  0.00  0.00    +0.067 C 
ATOM      2  C   UNL     1       0.448  -0.060  -0.652  0.00  0.00    +0.059 A 
ATOM      3  C   UNL     1       0.504  -0.946  -1.662  0.00  0.00    +0.138 A 
ATOM      4  N   UNL     1       0.402  -2.219  -1.115  0.00  0.00    -0.212 N 
ATOM      5  C   UNL     1       0.288  -2.013   0.233  0.00  0.00    +0.197 A 
ATOM      6  N   UNL     1       0.322  -0.739   0.498  0.00  0.00    -0.225 NA
ATOM      7  S   UNL     1       0.162  -3.670   0.864  0.00  0.00    -0.013 S 
ATOM      8  C   UNL     1       0.269  -4.528  -0.698  0.00  0.00    +0.182 A 
ATOM      9  N   UNL     1       0.387  -3.541  -1.545  0.00  0.00    -0.142 NA
ATOM     10  N   UNL     1       0.236  -5.891  -0.947  0.00  0.00    -0.311 N 
ATOM     11  H   UNL     1       0.306  -6.219  -1.857  0.00  0.00    +0.149 HD
ENDROOT
BRANCH  10  12
ATOM     12  C   UNL     1       0.097  -6.835   0.164  0.00  0.00    +0.155 C 
ATOM     13  C   UNL     1       1.474  -7.127   0.762  0.00  0.00    +0.038 C 
BRANCH  12  14
ATOM     14  C   UNL     1      -0.513  -8.118  -0.341  0.00  0.00    +0.236 C 
ATOM     15  O   UNL     1      -0.504  -8.368  -1.528  0.00  0.00    -0.274 OA
ATOM     16  N   UNL     1      -1.069  -8.987   0.526  0.00  0.00    -0.300 N 
ATOM     17  C   UNL     1      -1.192  -8.648   1.950  0.00  0.00    +0.108 C 
ATOM     18  C   UNL     1      -2.653  -8.828   2.376  0.00  0.00    +0.019 C 
ATOM     19  C   UNL     1      -3.111 -10.245   2.025  0.00  0.00    +0.003 C 
ATOM     20  C   UNL     1      -3.019 -10.453   0.512  0.00  0.00    +0.019 C 
ATOM     21  C   UNL     1      -1.568 -10.289   0.065  0.00  0.00    +0.108 C 
ENDBRANCH  12  14
ENDBRANCH  10  12
TORSDOF 2
