REMARK  Name = ZINC33502281
REMARK  5 active torsions:
REMARK  status: ('A' for Active; 'I' for Inactive)
REMARK    1  A    between atoms: C_1  and  C_2
REMARK    2  A    between atoms: C_3  and  C_22
REMARK    3  A    between atoms: C_10  and  C_12
REMARK    4  A    between atoms: C_12  and  C_20
REMARK    5  A    between atoms: C_13  and  C_14
REMARK                            x       y       z     vdW  Elec       q    Type
REMARK                         _______ _______ _______ _____ _____    ______ ____
ROOT
ATOM      1  C   UNL     1      -0.029   1.404  -0.092  0.00  0.00    +0.045 C 
ATOM      2  C   UNL     1      -0.002  -0.102  -0.071  0.00  0.00    -0.026 A 
ATOM      3  C   UNL     1       0.008  -0.796  -1.218  0.00  0.00    -0.008 A 
ATOM      4  S   UNL     1       0.041  -2.495  -0.678  0.00  0.00    -0.073 S 
ATOM      5  C   UNL     1       0.040  -2.228   1.075  0.00  0.00    +0.116 A 
ATOM      6  C   UNL     1       0.020  -0.819   1.192  0.00  0.00    +0.077 A 
ATOM      7  C   UNL     1       0.020  -0.314   2.521  0.00  0.00    +0.282 A 
ATOM      8  O   UNL     1      -0.003   1.021   2.745  0.00  0.00    -0.265 OA
ATOM      9  N   UNL     1       0.042  -1.159   3.534  0.00  0.00    -0.188 NA
ATOM     10  C   UNL     1       0.065  -2.478   3.355  0.00  0.00    +0.175 A 
ATOM     11  N   UNL     1       0.056  -3.007   2.135  0.00  0.00    -0.219 NA
ATOM     12  C   UNL     1      -0.005  -0.267  -2.629  0.00  0.00    +0.052 C 
ENDROOT
BRANCH  10  13
ATOM     13  C   UNL     1       0.090  -3.370   4.532  0.00  0.00    +0.097 C 
ATOM     14  C   UNL     1       1.292  -3.854   5.006  0.00  0.00    +0.037 C 
BRANCH  14  15
ATOM     15  C   UNL     1       2.505  -3.403   4.444  0.00  0.00    +0.015 A 
ATOM     16  C   UNL     1       3.804  -3.839   4.694  0.00  0.00    +0.017 A 
ATOM     17  C   UNL     1       4.791  -3.201   3.984  0.00  0.00    +0.023 A 
ATOM     18  C   UNL     1       4.447  -2.219   3.112  0.00  0.00    +0.055 A 
ATOM     19  S   UNL     1       2.773  -2.133   3.223  0.00  0.00    -0.082 S 
ATOM     20 BR   UNL     1       5.592  -1.186   2.016  0.00  0.00    -0.043 Br
ENDBRANCH  14  15
BRANCH  13  21
ATOM     21  C   UNL     1      -1.134  -3.732   5.181  0.00  0.00    +0.103 C 
ATOM     22  N   UNL     1      -2.105  -4.020   5.697  0.00  0.00    -0.191 NA
ENDBRANCH  13  21
ENDBRANCH  10  13
TORSDOF 3
