REMARK  Name = ZINC13396073
REMARK  6 active torsions:
REMARK  status: ('A' for Active; 'I' for Inactive)
REMARK    1  A    between atoms: C_11  and  C_14
REMARK    2  A    between atoms: C_14  and  C_15
REMARK    3  A    between atoms: N_17  and  C_18
REMARK    4  A    between atoms: C_21  and  S_24
REMARK    5  A    between atoms: S_24  and  N_27
REMARK    6  A    between atoms: C_31  and  C_34
REMARK                            x       y       z     vdW  Elec       q    Type
REMARK                         _______ _______ _______ _____ _____    ______ ____
ROOT
ATOM      1  C   UNL     1       5.049   6.414  -0.754  0.00  0.00    +0.222 C 
ATOM      2  O   UNL     1       6.153   6.797  -1.077  0.00  0.00    -0.275 OA
ATOM      3  N   UNL     1       4.241   5.840  -1.667  0.00  0.00    -0.285 N 
ATOM      4  H   UNL     1       3.385   5.473  -1.394  0.00  0.00    +0.155 HD
ENDROOT
BRANCH   3   5
ATOM      5  C   UNL     1       4.636   5.772  -3.007  0.00  0.00    +0.034 A 
ATOM      6  C   UNL     1       3.691   5.887  -4.018  0.00  0.00    +0.025 A 
ATOM      7  C   UNL     1       4.085   5.824  -5.340  0.00  0.00    +0.030 A 
ATOM      8  C   UNL     1       5.418   5.637  -5.658  0.00  0.00    +0.106 A 
ATOM      9  C   UNL     1       6.361   5.518  -4.653  0.00  0.00    +0.030 A 
ATOM     10  C   UNL     1       5.974   5.584  -3.329  0.00  0.00    +0.025 A 
BRANCH   8  11
ATOM     11  S   UNL     1       5.916   5.550  -7.346  0.00  0.00    +0.061 S 
ATOM     12  O   UNL     1       4.924   6.236  -8.098  0.00  0.00    -0.153 OA
ATOM     13  O   UNL     1       7.288   5.916  -7.384  0.00  0.00    -0.153 OA
BRANCH  11  14
ATOM     14  N   UNL     1       5.838   3.959  -7.798  0.00  0.00    -0.176 NA
ATOM     15  C   UNL     1       4.602   3.402  -8.365  0.00  0.00    +0.109 C 
ATOM     16  C   UNL     1       4.207   2.160  -7.560  0.00  0.00    +0.018 C 
ATOM     17  C   UNL     1       5.382   1.181  -7.530  0.00  0.00    +0.017 C 
ATOM     18  C   UNL     1       6.580   1.840  -6.844  0.00  0.00    +0.118 C 
ATOM     19  C   UNL     1       7.005   3.080  -7.646  0.00  0.00    +0.124 C 
BRANCH  18  20
ATOM     20  C   UNL     1       7.727   0.863  -6.786  0.00  0.00    +0.360 C 
ATOM     21  O   UNL     1       8.775   1.130  -7.323  0.00  0.00    -0.246 OA
ATOM     22  O   UNL     1       7.583  -0.303  -6.137  0.00  0.00    -0.246 OA
ENDBRANCH  18  20
ENDBRANCH  11  14
ENDBRANCH   8  11
ENDBRANCH   3   5
BRANCH   1  23
ATOM     23  C   UNL     1       4.580   6.581   0.669  0.00  0.00    +0.135 C 
BRANCH  23  34
ATOM     24  C   UNL     1       4.171  12.211   0.063  0.00  0.00    +0.001 A 
ATOM     25  C   UNL     1       3.645  10.970  -0.285  0.00  0.00    +0.001 A 
ATOM     26  C   UNL     1       4.190   9.818   0.200  0.00  0.00    +0.009 A 
ATOM     27  C   UNL     1       5.293   9.880   1.058  0.00  0.00    -0.007 A 
ATOM     28  C   UNL     1       5.831  11.142   1.414  0.00  0.00    -0.017 A 
ATOM     29  C   UNL     1       5.248  12.307   0.892  0.00  0.00    +0.008 A 
ATOM     30  C   UNL     1       6.941  11.203   2.278  0.00  0.00    +0.012 A 
ATOM     31  C   UNL     1       7.505  10.075   2.776  0.00  0.00    +0.047 A 
ATOM     32  C   UNL     1       7.014   8.804   2.456  0.00  0.00    +0.136 A 
ATOM     33  C   UNL     1       5.913   8.680   1.603  0.00  0.00    +0.031 A 
ATOM     34  C   UNL     1       5.663   7.245   1.480  0.00  0.00    +0.007 A 
ATOM     35  C   UNL     1       6.592   6.638   2.236  0.00  0.00    +0.200 A 
ATOM     36  O   UNL     1       7.386   7.557   2.810  0.00  0.00    -0.463 OA
ENDBRANCH  23  34
ENDBRANCH   1  23
TORSDOF 6
