REMARK  Name = ZINC01002547
REMARK  6 active torsions:
REMARK  status: ('A' for Active; 'I' for Inactive)
REMARK    1  A    between atoms: C_9  and  O_27
REMARK    2  A    between atoms: C_10  and  C_11
REMARK    3  A    between atoms: N_12  and  N_13
REMARK    4  A    between atoms: C_14  and  C_16
REMARK    5  A    between atoms: C_19  and  C_21
REMARK    6  A    between atoms: C_21  and  N_22
REMARK                            x       y       z     vdW  Elec       q    Type
REMARK                         _______ _______ _______ _____ _____    ______ ____
ROOT
ATOM      1  N   UNL     1       7.321   0.148  -0.069  0.00  0.00    -0.200 N 
ATOM      2  C   UNL     1       8.490  -0.523  -0.084  0.00  0.00    +0.299 C 
ATOM      3  O   UNL     1       8.492  -1.741  -0.090  0.00  0.00    -0.265 OA
ATOM      4  H   UNL     1       7.319   1.118  -0.065  0.00  0.00    +0.178 HD
ENDROOT
BRANCH   2   5
ATOM      5  C   UNL     1       9.758   0.212  -0.093  0.00  0.00    +0.191 A 
ATOM      6  C   UNL     1      11.006  -0.341  -0.114  0.00  0.00    +0.055 A 
ATOM      7  C   UNL     1      11.920   0.725  -0.115  0.00  0.00    +0.047 A 
ATOM      8  C   UNL     1      11.198   1.868  -0.096  0.00  0.00    +0.127 A 
ATOM      9  O   UNL     1       9.896   1.554  -0.089  0.00  0.00    -0.453 OA
BRANCH   8  10
ATOM     10  C   UNL     1      11.765   3.264  -0.090  0.00  0.00    +0.217 C 
BRANCH  10  11
ATOM     11  N   UNL     1      11.932   3.729  -1.469  0.00  0.00    -0.264 N 
ATOM     12  C   UNL     1      11.423   4.865  -1.991  0.00  0.00    +0.109 A 
ATOM     13  C   UNL     1      11.803   4.929  -3.288  0.00  0.00    +0.041 A 
ATOM     14  C   UNL     1      12.570   3.793  -3.569  0.00  0.00    +0.134 A 
ATOM     15  N   UNL     1      12.653   3.076  -2.478  0.00  0.00    -0.179 NA
ENDBRANCH  10  11
ENDBRANCH   8  10
ENDBRANCH   2   5
BRANCH   1  17
ATOM     16  C   UNL     1       4.982   0.092  -0.046  0.00  0.00    +0.142 C 
ATOM     17  N   UNL     1       6.109  -0.555  -0.061  0.00  0.00    -0.187 NA
BRANCH  16  27
ATOM     18  C   UNL     1      -0.016   1.357   0.009  0.00  0.00    +0.001 A 
ATOM     19  C   UNL     1       1.167   2.091   0.002  0.00  0.00    +0.001 A 
ATOM     20  C   UNL     1       2.379   1.466  -0.013  0.00  0.00    +0.009 A 
ATOM     21  C   UNL     1       2.435   0.067  -0.021  0.00  0.00    -0.006 A 
ATOM     22  C   UNL     1       1.233  -0.683  -0.013  0.00  0.00    -0.017 A 
ATOM     23  C   UNL     1       0.002  -0.004   0.002  0.00  0.00    +0.008 A 
ATOM     24  C   UNL     1       1.291  -2.087  -0.021  0.00  0.00    +0.012 A 
ATOM     25  C   UNL     1       2.487  -2.733  -0.035  0.00  0.00    +0.046 A 
ATOM     26  C   UNL     1       3.696  -2.040  -0.043  0.00  0.00    +0.126 A 
ATOM     27  C   UNL     1       3.711  -0.645  -0.037  0.00  0.00    +0.044 A 
BRANCH  26  28
ATOM     28  O   UNL     1       4.868  -2.727  -0.057  0.00  0.00    -0.506 OA
ATOM     29  H   UNL     1       5.199  -2.922  -0.944  0.00  0.00    +0.292 HD
ENDBRANCH  26  28
ENDBRANCH  16  27
ENDBRANCH   1  17
TORSDOF 6
