REMARK  Name = ZINC32072210
REMARK  4 active torsions:
REMARK  status: ('A' for Active; 'I' for Inactive)
REMARK    1  A    between atoms: C_1  and  C_2
REMARK    2  A    between atoms: N_15  and  C_18
REMARK    3  A    between atoms: C_18  and  C_20
REMARK    4  A    between atoms: C_18  and  C_31
REMARK                            x       y       z     vdW  Elec       q    Type
REMARK                         _______ _______ _______ _____ _____    ______ ____
ROOT
ATOM      1  C   UNL     1       1.627   9.400  -4.502  0.00  0.00    +0.069 C 
ATOM      2  C   UNL     1       0.413   9.907  -3.768  0.00  0.00    +0.079 A 
ATOM      3  C   UNL     1      -0.182   9.112  -2.772  0.00  0.00    +0.143 A 
ATOM      4  N   UNL     1      -1.248   9.539  -2.123  0.00  0.00    -0.229 NA
ATOM      5  C   UNL     1      -1.761  10.742  -2.410  0.00  0.00    +0.091 A 
ATOM      6  C   UNL     1      -2.893  11.226  -1.733  0.00  0.00    +0.030 A 
ATOM      7  C   UNL     1      -3.397  12.451  -2.049  0.00  0.00    +0.002 A 
ATOM      8  C   UNL     1      -2.804  13.235  -3.037  0.00  0.00    +0.002 A 
ATOM      9  C   UNL     1      -1.707  12.799  -3.713  0.00  0.00    +0.030 A 
ATOM     10  C   UNL     1      -1.159  11.539  -3.414  0.00  0.00    +0.090 A 
ATOM     11  N   UNL     1      -0.080  11.085  -4.064  0.00  0.00    -0.247 NA
ATOM     12  N   UNL     1       0.354   7.868  -2.473  0.00  0.00    -0.317 N 
ATOM     13  C   UNL     1       0.736   7.786  -1.056  0.00  0.00    +0.088 C 
ATOM     14  C   UNL     1       1.394   6.431  -0.786  0.00  0.00    -0.058 C 
ATOM     15  N   UNL     1       0.457   5.355  -1.139  0.00  0.00    +0.394 N 
ATOM     16  C   UNL     1       0.074   5.438  -2.556  0.00  0.00    -0.058 C 
ATOM     17  C   UNL     1      -0.584   6.793  -2.826  0.00  0.00    +0.088 C 
ATOM     18  H   UNL     1      -0.453   5.485  -0.534  0.00  0.00    -0.080 HD
ENDROOT
BRANCH  15  19
ATOM     19  C   UNL     1       1.024   4.038  -0.823  0.00  0.00    +0.080 C 
BRANCH  19  20
ATOM     20  C   UNL     1       0.036   2.963  -1.198  0.00  0.00    -0.025 A 
ATOM     21  C   UNL     1      -1.284   3.120  -1.379  0.00  0.00    +0.086 A 
ATOM     22  N   UNL     1      -1.854   1.923  -1.717  0.00  0.00    -0.360 N 
ATOM     23  H   UNL     1      -2.935   1.864  -1.912  0.00  0.00    +0.165 HD
ATOM     24  C   UNL     1      -0.891   0.939  -1.753  0.00  0.00    +0.047 A 
ATOM     25  C   UNL     1       0.336   1.548  -1.433  0.00  0.00    +0.003 A 
ATOM     26  C   UNL     1       1.505   0.785  -1.396  0.00  0.00    +0.025 A 
ATOM     27  C   UNL     1       1.448  -0.562  -1.676  0.00  0.00    +0.019 A 
ATOM     28  C   UNL     1       0.236  -1.163  -1.993  0.00  0.00    +0.017 A 
ATOM     29  C   UNL     1      -0.925  -0.423  -2.032  0.00  0.00    +0.027 A 
ATOM     30 BR   UNL     1       3.028  -1.600  -1.629  0.00  0.00    -0.050 Br
ENDBRANCH  19  20
BRANCH  19  31
ATOM     31  C   UNL     1       1.317   3.958   0.653  0.00  0.00    +0.347 C 
ATOM     32  O   UNL     1       1.078   4.902   1.368  0.00  0.00    -0.248 OA
ATOM     33  O   UNL     1       1.844   2.839   1.173  0.00  0.00    -0.248 OA
ENDBRANCH  19  31
ENDBRANCH  15  19
TORSDOF 3
