REMARK  Name = ZINC25585349
REMARK  10 active torsions:
REMARK  status: ('A' for Active; 'I' for Inactive)
REMARK    1  A    between atoms: C_1  and  C_2
REMARK    2  A    between atoms: C_3  and  C_20
REMARK    3  A    between atoms: N_7  and  C_8
REMARK    4  A    between atoms: C_8  and  N_10
REMARK    5  A    between atoms: C_11  and  C_13
REMARK    6  A    between atoms: C_20  and  C_26
REMARK    7  A    between atoms: N_21  and  N_22
REMARK    8  A    between atoms: N_22  and  C_23
REMARK    9  A    between atoms: C_23  and  N_25
REMARK   10  A    between atoms: C_27  and  C_28
REMARK                            x       y       z     vdW  Elec       q    Type
REMARK                         _______ _______ _______ _____ _____    ______ ____
ROOT
ATOM      1  C   UNL     1      -3.908   3.961   0.732  0.00  0.00    +0.064 C 
ATOM      2  C   UNL     1      -3.927   2.465   0.913  0.00  0.00    +0.031 A 
ATOM      3  C   UNL     1      -2.797   1.716   0.706  0.00  0.00    +0.061 A 
ATOM      4  S   UNL     1      -3.415   0.079   1.070  0.00  0.00    -0.050 S 
ATOM      5  C   UNL     1      -5.051   0.531   1.439  0.00  0.00    +0.163 A 
ATOM      6  N   UNL     1      -5.026   1.841   1.271  0.00  0.00    -0.339 N 
ATOM      7  N   UNL     1      -6.113  -0.277   1.815  0.00  0.00    -0.169 NA
ATOM      8  H   UNL     1      -5.953   2.411   1.436  0.00  0.00    +0.167 HD
ENDROOT
BRANCH   7   9
ATOM      9  C   UNL     1      -7.320   0.268   2.062  0.00  0.00    +0.163 C 
ATOM     10  S   UNL     1      -7.543   1.958   1.912  0.00  0.00    -0.016 S 
BRANCH   9  11
ATOM     11  N   UNL     1      -8.352  -0.518   2.428  0.00  0.00    -0.262 N 
ATOM     12  C   UNL     1      -9.560   0.027   2.675  0.00  0.00    +0.250 C 
ATOM     13  O   UNL     1      -9.718   1.227   2.568  0.00  0.00    -0.270 OA
ATOM     14  H   UNL     1      -8.209  -1.605   2.525  0.00  0.00    +0.157 HD
BRANCH  12  15
ATOM     15  C   UNL     1     -10.691  -0.834   3.075  0.00  0.00    +0.037 A 
ATOM     16  C   UNL     1     -10.514  -2.215   3.193  0.00  0.00    +0.014 A 
ATOM     17  C   UNL     1     -11.572  -3.013   3.574  0.00  0.00    +0.021 A 
ATOM     18  C   UNL     1     -12.812  -2.449   3.826  0.00  0.00    +0.041 A 
ATOM     19  C   UNL     1     -12.996  -1.082   3.705  0.00  0.00    +0.021 A 
ATOM     20  C   UNL     1     -11.944  -0.273   3.332  0.00  0.00    +0.014 A 
ATOM     21 CL   UNL     1     -14.141  -3.462   4.297  0.00  0.00    -0.084 Cl
ENDBRANCH  12  15
ENDBRANCH   9  11
ENDBRANCH   7   9
BRANCH   3  22
ATOM     22  C   UNL     1      -1.444   2.143   0.302  0.00  0.00    +0.097 C 
ATOM     23  N   UNL     1      -1.150   3.422   0.240  0.00  0.00    -0.180 NA
BRANCH  23  24
ATOM     24  N   UNL     1       0.163   3.827  -0.031  0.00  0.00    -0.218 N 
ATOM     25  H   UNL     1       0.931   3.077  -0.275  0.00  0.00    +0.176 HD
BRANCH  24  26
ATOM     26  C   UNL     1       0.487   5.134   0.008  0.00  0.00    +0.147 C 
ATOM     27  S   UNL     1       2.092   5.629  -0.323  0.00  0.00    -0.017 S 
BRANCH  26  28
ATOM     28  N   UNL     1      -0.453   6.053   0.307  0.00  0.00    -0.339 N 
ATOM     29  H   UNL     1      -0.188   7.120   0.339  0.00  0.00    +0.144 HD
ATOM     30  H   UNL     1      -1.484   5.735   0.520  0.00  0.00    +0.144 HD
ENDBRANCH  26  28
ENDBRANCH  24  26
ENDBRANCH  23  24
BRANCH  22  31
ATOM     31  C   UNL     1      -0.426   1.139  -0.032  0.00  0.00    +0.034 C 
ATOM     32  C   UNL     1      -0.766  -0.165  -0.115  0.00  0.00    +0.048 C 
BRANCH  32  33
ATOM     33  C   UNL     1       0.271  -1.181  -0.298  0.00  0.00    +0.128 A 
ATOM     34  C   UNL     1       0.067  -2.529  -0.392  0.00  0.00    +0.049 A 
ATOM     35  C   UNL     1       1.332  -3.119  -0.562  0.00  0.00    +0.042 A 
ATOM     36  C   UNL     1       2.240  -2.120  -0.557  0.00  0.00    +0.195 A 
ATOM     37  O   UNL     1       1.596  -0.952  -0.397  0.00  0.00    -0.464 OA
ENDBRANCH  32  33
ENDBRANCH  22  31
ENDBRANCH   3  22
TORSDOF 9
