REMARK  Name = ZINC63425768
REMARK  15 active torsions:
REMARK  status: ('A' for Active; 'I' for Inactive)
REMARK    1  A    between atoms: C_1  and  C_2
REMARK    2  A    between atoms: C_6  and  N_9
REMARK    3  A    between atoms: C_7  and  C_8
REMARK    4  A    between atoms: C_10  and  C_12
REMARK    5  A    between atoms: C_12  and  S_13
REMARK    6  A    between atoms: S_13  and  C_14
REMARK    7  A    between atoms: C_18  and  C_21
REMARK    8  A    between atoms: C_21  and  C_23
REMARK    9  A    between atoms: C_21  and  N_33
REMARK   10  A    between atoms: C_23  and  C_24
REMARK   11  A    between atoms: C_34  and  O_36
REMARK   12  A    between atoms: O_36  and  C_37
REMARK   13  A    between atoms: C_37  and  C_38
REMARK   14  A    between atoms: C_37  and  C_39
REMARK   15  A    between atoms: C_37  and  C_40
REMARK                            x       y       z     vdW  Elec       q    Type
REMARK                         _______ _______ _______ _____ _____    ______ ____
ROOT
ATOM      1  C   UNL     1       0.724  -5.960   7.685  0.00  0.00    +0.133 C 
ENDROOT
BRANCH   1   5
ATOM      2  C   UNL     1      -0.381  -7.187   4.553  0.00  0.00    +0.319 C 
ATOM      3  N   UNL     1      -1.559  -6.636   5.236  0.00  0.00    -0.146 NA
ATOM      4  N   UNL     1      -1.330  -6.509   6.445  0.00  0.00    -0.155 NA
ATOM      5  C   UNL     1       0.036  -6.956   6.749  0.00  0.00    +0.280 C 
ATOM      6  O   UNL     1       0.714  -7.000   5.475  0.00  0.00    -0.316 OA
BRANCH   2   7
ATOM      7  S   UNL     1      -0.067  -6.283   3.012  0.00  0.00    -0.095 S 
BRANCH   7   8
ATOM      8  C   UNL     1      -0.035  -4.543   3.523  0.00  0.00    +0.169 C 
BRANCH   8  10
ATOM      9  N   UNL     1       0.134  -2.324   2.442  0.00  0.00    -0.285 N 
ATOM     10  C   UNL     1       0.090  -3.664   2.305  0.00  0.00    +0.227 C 
ATOM     11  O   UNL     1       0.152  -4.163   1.201  0.00  0.00    -0.275 OA
ATOM     12  H   UNL     1       0.162  -1.928   3.327  0.00  0.00    +0.155 HD
BRANCH   9  18
ATOM     13  C   UNL     1       1.190   1.997   0.347  0.00  0.00    +0.044 C 
ATOM     14  C   UNL     1       0.644   0.595   0.265  0.00  0.00    -0.046 A 
ATOM     15  C   UNL     1       0.146   0.117  -0.934  0.00  0.00    +0.004 A 
ATOM     16  C   UNL     1      -0.355  -1.169  -1.014  0.00  0.00    +0.002 A 
ATOM     17  C   UNL     1      -0.361  -1.981   0.103  0.00  0.00    +0.023 A 
ATOM     18  C   UNL     1       0.138  -1.504   1.308  0.00  0.00    +0.037 A 
ATOM     19  C   UNL     1       0.646  -0.214   1.384  0.00  0.00    -0.026 A 
ATOM     20  C   UNL     1       1.194   0.306   2.688  0.00  0.00    +0.046 C 
ENDBRANCH   9  18
ENDBRANCH   8  10
ENDBRANCH   7   8
ENDBRANCH   2   7
ENDBRANCH   1   5
BRANCH   1  21
ATOM     21  N   UNL     1       0.640  -4.614   7.113  0.00  0.00    -0.274 N 
ATOM     22  C   UNL     1       1.672  -3.758   7.253  0.00  0.00    +0.401 C 
ATOM     23  O   UNL     1       2.700  -4.126   7.785  0.00  0.00    -0.226 OA
ATOM     24  H   UNL     1      -0.157  -4.340   6.634  0.00  0.00    +0.152 HD
BRANCH  22  25
ATOM     25  O   UNL     1       1.562  -2.494   6.802  0.00  0.00    -0.445 OA
BRANCH  25  26
ATOM     26  C   UNL     1       2.732  -1.675   6.876  0.00  0.00    +0.107 C 
ATOM     27  C   UNL     1       3.862  -2.329   6.079  0.00  0.00    +0.055 C 
ATOM     28  C   UNL     1       2.426  -0.296   6.289  0.00  0.00    +0.055 C 
ATOM     29  C   UNL     1       3.158  -1.525   8.337  0.00  0.00    +0.055 C 
ENDBRANCH  25  26
ENDBRANCH  22  25
ENDBRANCH   1  21
BRANCH   1  30
ATOM     30  C   UNL     1       0.030  -5.979   9.049  0.00  0.00    +0.060 C 
BRANCH  30  31
ATOM     31  C   UNL     1       0.781  -5.091  10.007  0.00  0.00    -0.040 C 
ATOM     32  C   UNL     1       0.513  -3.798  10.298  0.00  0.00    -0.001 A 
ATOM     33  C   UNL     1      -0.518  -2.866   9.826  0.00  0.00    +0.010 A 
ATOM     34  C   UNL     1      -0.532  -1.603  10.310  0.00  0.00    +0.001 A 
ATOM     35  C   UNL     1       0.412  -1.163  11.248  0.00  0.00    +0.002 A 
ATOM     36  C   UNL     1       1.389  -1.961  11.729  0.00  0.00    +0.026 A 
ATOM     37  C   UNL     1       1.498  -3.309  11.289  0.00  0.00    +0.043 A 
ATOM     38  N   UNL     1       2.342  -4.263  11.599  0.00  0.00    -0.380 N 
ATOM     39  C   UNL     1       1.984  -5.468  10.843  0.00  0.00    +0.144 C 
ATOM     40  H   UNL     1       3.078  -4.186  12.226  0.00  0.00    +0.160 HD
ENDBRANCH  30  31
ENDBRANCH   1  30
TORSDOF 10
