REMARK  Name = ZINC10455428
REMARK  12 active torsions:
REMARK  status: ('A' for Active; 'I' for Inactive)
REMARK    1  A    between atoms: C_1  and  C_2
REMARK    2  A    between atoms: C_2  and  C_4
REMARK    3  A    between atoms: C_2  and  N_12
REMARK    4  A    between atoms: C_13  and  C_15
REMARK    5  A    between atoms: C_15  and  C_17
REMARK    6  A    between atoms: C_15  and  O_18
REMARK    7  A    between atoms: O_18  and  C_19
REMARK    8  A    between atoms: C_19  and  C_21
REMARK    9  A    between atoms: C_23  and  S_29
REMARK   10  A    between atoms: C_26  and  O_27
REMARK   11  A    between atoms: O_27  and  C_28
REMARK   12  A    between atoms: S_29  and  N_32
REMARK                            x       y       z     vdW  Elec       q    Type
REMARK                         _______ _______ _______ _____ _____    ______ ____
ROOT
ATOM      1  O   UNL     1       3.551   1.873   0.098  0.00  0.00    -0.449 OA
ENDROOT
BRANCH   1   2
ATOM      2  C   UNL     1       2.462   0.920  -0.017  0.00  0.00    +0.259 C 
ATOM      3  C   UNL     1       2.597   0.146  -1.329  0.00  0.00    +0.062 C 
BRANCH   2   5
ATOM      4  N   UNL     1      -0.011   0.966   0.007  0.00  0.00    -0.306 N 
ATOM      5  C   UNL     1       1.147   1.655   0.000  0.00  0.00    +0.254 C 
ATOM      6  O   UNL     1       1.130   2.868   0.007  0.00  0.00    -0.272 OA
ATOM      7  H   UNL     1       0.002  -0.004   0.002  0.00  0.00    +0.149 HD
BRANCH   4   9
ATOM      8  C   UNL     1      -1.667   2.032   1.458  0.00  0.00    +0.033 C 
ATOM      9  C   UNL     1      -1.290   1.681   0.017  0.00  0.00    +0.102 C 
BRANCH   9  10
ATOM     10  C   UNL     1      -2.360   0.806  -0.583  0.00  0.00    -0.009 A 
ATOM     11  C   UNL     1      -2.218  -0.569  -0.566  0.00  0.00    +0.008 A 
ATOM     12  C   UNL     1      -3.201  -1.373  -1.111  0.00  0.00    +0.020 A 
ATOM     13  C   UNL     1      -4.323  -0.801  -1.684  0.00  0.00    +0.042 A 
ATOM     14  C   UNL     1      -4.463   0.575  -1.707  0.00  0.00    +0.040 A 
ATOM     15  C   UNL     1      -3.481   1.379  -1.156  0.00  0.00    +0.047 A 
ATOM     16 CL   UNL     1      -3.655   3.106  -1.184  0.00  0.00    -0.083 Cl
ATOM     17 CL   UNL     1      -5.555  -1.810  -2.375  0.00  0.00    -0.083 Cl
ENDBRANCH   9  10
ENDBRANCH   4   9
ENDBRANCH   2   5
ENDBRANCH   1   2
BRANCH   1  18
ATOM     18  C   UNL     1       4.677   1.446   0.703  0.00  0.00    +0.344 C 
ATOM     19  O   UNL     1       4.747   0.308   1.123  0.00  0.00    -0.245 OA
BRANCH  18  20
ATOM     20  C   UNL     1       5.824   2.359   0.854  0.00  0.00    +0.102 A 
ATOM     21  C   UNL     1       5.751   3.667   0.366  0.00  0.00    +0.047 A 
ATOM     22  C   UNL     1       6.825   4.517   0.516  0.00  0.00    +0.106 A 
ATOM     23  C   UNL     1       7.982   4.079   1.139  0.00  0.00    +0.032 A 
ATOM     24  C   UNL     1       8.070   2.788   1.620  0.00  0.00    +0.048 A 
ATOM     25  C   UNL     1       6.997   1.919   1.483  0.00  0.00    +0.134 A 
BRANCH  22  26
ATOM     26  S   UNL     1       6.728   6.168  -0.093  0.00  0.00    +0.056 S 
ATOM     27  O   UNL     1       5.347   6.501  -0.145  0.00  0.00    -0.153 OA
ATOM     28  O   UNL     1       7.668   6.931   0.651  0.00  0.00    -0.153 OA
BRANCH  26  29
ATOM     29  N   UNL     1       7.269   6.145  -1.658  0.00  0.00    -0.204 NA
ATOM     30  H   UNL     1       6.921   6.782  -2.301  0.00  0.00    +0.144 HD
ATOM     31  H   UNL     1       7.934   5.494  -1.931  0.00  0.00    +0.144 HD
ENDBRANCH  26  29
ENDBRANCH  22  26
BRANCH  25  32
ATOM     32  O   UNL     1       7.083   0.651   1.955  0.00  0.00    -0.494 OA
ATOM     33  C   UNL     1       8.309   0.274   2.584  0.00  0.00    +0.277 C 
ENDBRANCH  25  32
ENDBRANCH  18  20
ENDBRANCH   1  18
TORSDOF 9
