REMARK  Name = ZINC16731954
REMARK  7 active torsions:
REMARK  status: ('A' for Active; 'I' for Inactive)
REMARK    1  A    between atoms: C_4  and  C_7
REMARK    2  A    between atoms: C_7  and  C_8
REMARK    3  A    between atoms: C_8  and  N_9
REMARK    4  A    between atoms: C_10  and  C_12
REMARK    5  A    between atoms: C_12  and  N_13
REMARK    6  A    between atoms: N_24  and  C_28
REMARK    7  A    between atoms: C_28  and  C_29
REMARK                            x       y       z     vdW  Elec       q    Type
REMARK                         _______ _______ _______ _____ _____    ______ ____
ROOT
ATOM      1  N   UNL     1      -0.306   5.222  -0.005  0.00  0.00    -0.258 N 
ATOM      2  C   UNL     1      -0.027   3.861   0.057  0.00  0.00    +0.045 A 
ATOM      3  C   UNL     1       1.177   3.166   0.087  0.00  0.00    +0.024 A 
ATOM      4  C   UNL     1       1.179   1.787   0.149  0.00  0.00    +0.002 A 
ATOM      5  C   UNL     1      -0.012   1.079   0.182  0.00  0.00    +0.001 A 
ATOM      6  C   UNL     1      -1.217   1.751   0.147  0.00  0.00    +0.010 A 
ATOM      7  C   UNL     1      -1.230   3.142   0.090  0.00  0.00    +0.010 A 
ATOM      8  C   UNL     1      -2.317   4.143   0.045  0.00  0.00    +0.065 C 
ATOM      9  C   UNL     1      -3.678   3.907   0.056  0.00  0.00    +0.089 C 
ATOM     10  C   UNL     1      -4.420   2.621  -0.051  0.00  0.00    +0.259 C 
ATOM     11  O   UNL     1      -3.845   1.557  -0.169  0.00  0.00    -0.269 OA
ATOM     12  N   UNL     1      -5.739   2.700  -0.007  0.00  0.00    -0.251 N 
ATOM     13  C   UNL     1      -6.372   3.884   0.117  0.00  0.00    +0.121 C 
ATOM     14  S   UNL     1      -8.056   4.184   0.185  0.00  0.00    -0.027 S 
ATOM     15  S   UNL     1      -5.034   5.064   0.195  0.00  0.00    -0.060 S 
ATOM     16  C   UNL     1      -1.631   5.450  -0.014  0.00  0.00    +0.253 C 
ATOM     17  O   UNL     1      -2.170   6.539  -0.063  0.00  0.00    -0.270 OA
ENDROOT
BRANCH   1  18
ATOM     18  C   UNL     1       0.713   6.273  -0.052  0.00  0.00    +0.209 C 
BRANCH  18  20
ATOM     19  N   UNL     1       1.984   7.509  -1.777  0.00  0.00    -0.314 N 
ATOM     20  C   UNL     1       1.062   6.569  -1.488  0.00  0.00    +0.231 C 
ATOM     21  O   UNL     1       0.513   5.962  -2.383  0.00  0.00    -0.274 OA
ATOM     22  H   UNL     1       2.422   7.995  -1.061  0.00  0.00    +0.149 HD
BRANCH  19  23
ATOM     23  C   UNL     1       2.323   7.797  -3.173  0.00  0.00    +0.109 C 
BRANCH  23  24
ATOM     24  C   UNL     1       3.387   8.895  -3.223  0.00  0.00    +0.054 C 
BRANCH  24  28
ATOM     25  C   UNL     1       4.377   9.736  -7.293  0.00  0.00    +0.000 A 
ATOM     26  C   UNL     1       3.357  10.432  -6.671  0.00  0.00    +0.000 A 
ATOM     27  C   UNL     1       3.037  10.159  -5.354  0.00  0.00    +0.004 A 
ATOM     28  C   UNL     1       3.736   9.192  -4.659  0.00  0.00    -0.046 A 
ATOM     29  C   UNL     1       4.760   8.499  -5.278  0.00  0.00    +0.004 A 
ATOM     30  C   UNL     1       5.077   8.768  -6.597  0.00  0.00    +0.000 A 
ENDBRANCH  24  28
ENDBRANCH  23  24
ENDBRANCH  19  23
ENDBRANCH  18  20
ENDBRANCH   1  18
BRANCH  12  31
ATOM     31  C   UNL     1      -6.532   1.472  -0.101  0.00  0.00    +0.150 C 
BRANCH  31  32
ATOM     32  C   UNL     1      -6.837   1.181  -1.548  0.00  0.00    -0.030 A 
ATOM     33  C   UNL     1      -7.986   1.687  -2.128  0.00  0.00    +0.005 A 
ATOM     34  C   UNL     1      -8.263   1.424  -3.456  0.00  0.00    +0.000 A 
ATOM     35  C   UNL     1      -7.396   0.647  -4.203  0.00  0.00    +0.000 A 
ATOM     36  C   UNL     1      -6.250   0.138  -3.622  0.00  0.00    +0.000 A 
ATOM     37  C   UNL     1      -5.971   0.405  -2.294  0.00  0.00    +0.005 A 
ENDBRANCH  31  32
ENDBRANCH  12  31
TORSDOF 7
