REMARK  Name = ZINC24499697
REMARK  5 active torsions:
REMARK  status: ('A' for Active; 'I' for Inactive)
REMARK    1  A    between atoms: C_7  and  C_11
REMARK    2  A    between atoms: C_11  and  C_12
REMARK    3  A    between atoms: N_16  and  N_20
REMARK    4  A    between atoms: C_21  and  C_23
REMARK    5  A    between atoms: C_23  and  N_24
REMARK                            x       y       z     vdW  Elec       q    Type
REMARK                         _______ _______ _______ _____ _____    ______ ____
ROOT
ATOM      1  N   UNL     1       2.850   6.828  -1.654  0.00  0.00    -0.222 N 
ATOM      2  C   UNL     1       1.690   6.190  -1.401  0.00  0.00    +0.249 C 
ATOM      3  O   UNL     1       0.990   5.817  -2.318  0.00  0.00    -0.272 OA
ATOM      4  H   UNL     1       3.485   7.167  -0.822  0.00  0.00    +0.174 HD
ENDROOT
BRANCH   1   8
ATOM      5  C   UNL     1       4.300   6.962  -5.002  0.00  0.00    +0.167 C 
ATOM      6  C   UNL     1       4.222   6.375  -3.607  0.00  0.00    +0.260 C 
ATOM      7  O   UNL     1       4.896   5.476  -3.152  0.00  0.00    -0.272 OA
ATOM      8  N   UNL     1       3.247   7.060  -2.978  0.00  0.00    -0.137 N 
ATOM      9  C   UNL     1       2.709   7.994  -3.771  0.00  0.00    +0.326 C 
ATOM     10  O   UNL     1       1.814   8.740  -3.425  0.00  0.00    -0.251 OA
ATOM     11  N   UNL     1       3.268   8.012  -4.995  0.00  0.00    -0.286 N 
ATOM     12  H   UNL     1       3.097   8.622  -5.894  0.00  0.00    +0.151 HD
BRANCH   5  13
ATOM     13  C   UNL     1       3.979   5.899  -6.056  0.00  0.00    +0.069 C 
BRANCH  13  20
ATOM     14  C   UNL     1       7.564   6.593  -8.995  0.00  0.00    +0.001 A 
ATOM     15  C   UNL     1       7.181   7.204 -10.181  0.00  0.00    +0.002 A 
ATOM     16  C   UNL     1       5.864   7.543 -10.403  0.00  0.00    +0.026 A 
ATOM     17  C   UNL     1       4.907   7.271  -9.430  0.00  0.00    +0.047 A 
ATOM     18  C   UNL     1       5.302   6.658  -8.227  0.00  0.00    +0.003 A 
ATOM     19  C   UNL     1       6.641   6.318  -8.026  0.00  0.00    +0.010 A 
ATOM     20  C   UNL     1       4.082   6.508  -7.431  0.00  0.00    -0.020 A 
ATOM     21  C   UNL     1       3.075   7.020  -8.155  0.00  0.00    +0.087 A 
ATOM     22  N   UNL     1       3.549   7.481  -9.353  0.00  0.00    -0.360 N 
ATOM     23  H   UNL     1       3.017   7.959 -10.189  0.00  0.00    +0.165 HD
ENDBRANCH  13  20
ENDBRANCH   5  13
ENDBRANCH   1   8
BRANCH   2  24
ATOM     24  C   UNL     1       1.263   5.941   0.023  0.00  0.00    +0.219 C 
BRANCH  24  25
ATOM     25  N   UNL     1      -0.022   5.237   0.031  0.00  0.00    -0.331 N 
ATOM     26  C   UNL     1      -0.022   3.858   0.023  0.00  0.00    +0.054 A 
ATOM     27  C   UNL     1       1.184   3.160   0.008  0.00  0.00    +0.026 A 
ATOM     28  C   UNL     1       1.182   1.782   0.000  0.00  0.00    +0.002 A 
ATOM     29  C   UNL     1      -0.013   1.076   0.008  0.00  0.00    +0.001 A 
ATOM     30  C   UNL     1      -1.212   1.742   0.017  0.00  0.00    +0.014 A 
ATOM     31  C   UNL     1      -1.228   3.138   0.031  0.00  0.00    +0.046 A 
ATOM     32  C   UNL     1      -2.505   3.876   0.047  0.00  0.00    +0.197 A 
ATOM     33  O   UNL     1      -3.572   3.291   0.053  0.00  0.00    -0.287 OA
ATOM     34  C   UNL     1      -2.439   5.348   0.054  0.00  0.00    +0.046 A 
ATOM     35  C   UNL     1      -1.183   5.978   0.046  0.00  0.00    +0.054 A 
ATOM     36  C   UNL     1      -1.123   7.370   0.053  0.00  0.00    +0.026 A 
ATOM     37  C   UNL     1      -2.285   8.110   0.068  0.00  0.00    +0.002 A 
ATOM     38  C   UNL     1      -3.523   7.483   0.076  0.00  0.00    +0.001 A 
ATOM     39  C   UNL     1      -3.607   6.114   0.070  0.00  0.00    +0.014 A 
ENDBRANCH  24  25
ENDBRANCH   2  24
TORSDOF 5
