REMARK  Name = ZINC02474660
REMARK  5 active torsions:
REMARK  status: ('A' for Active; 'I' for Inactive)
REMARK    1  A    between atoms: C_7  and  C_11
REMARK    2  A    between atoms: C_7  and  O_26
REMARK    3  A    between atoms: C_11  and  C_12
REMARK    4  A    between atoms: C_12  and  C_14
REMARK    5  A    between atoms: C_17  and  C_20
REMARK                            x       y       z     vdW  Elec       q    Type
REMARK                         _______ _______ _______ _____ _____    ______ ____
ROOT
ATOM      1  C   UNL     1       3.637   3.662  -0.015  0.00  0.00    +0.129 C 
ENDROOT
BRANCH   1   8
ATOM      2  C   UNL     1       4.774   7.983   0.610  0.00  0.00    +0.000 A 
ATOM      3  C   UNL     1       5.399   8.386  -0.556  0.00  0.00    +0.002 A 
ATOM      4  C   UNL     1       5.869   7.451  -1.455  0.00  0.00    +0.024 A 
ATOM      5  C   UNL     1       5.716   6.091  -1.193  0.00  0.00    +0.040 A 
ATOM      6  C   UNL     1       5.085   5.699  -0.019  0.00  0.00    +0.014 A 
ATOM      7  C   UNL     1       4.618   6.634   0.876  0.00  0.00    +0.009 A 
ATOM      8  C   UNL     1       5.074   4.188  -0.027  0.00  0.00    +0.175 C 
ATOM      9  C   UNL     1       5.762   3.821  -1.324  0.00  0.00    +0.254 C 
ATOM     10  O   UNL     1       5.971   2.700  -1.737  0.00  0.00    -0.272 OA
ATOM     11  N   UNL     1       6.098   4.971  -1.933  0.00  0.00    -0.282 N 
ATOM     12  H   UNL     1       6.555   5.017  -2.787  0.00  0.00    +0.155 HD
BRANCH   8  13
ATOM     13  O   UNL     1       5.802   3.676   1.091  0.00  0.00    -0.374 OA
ATOM     14  H   UNL     1       5.851   2.711   1.120  0.00  0.00    +0.211 HD
ENDBRANCH   8  13
ENDBRANCH   1   8
BRANCH   1  15
ATOM     15  C   UNL     1       3.653   2.155  -0.023  0.00  0.00    +0.167 C 
ATOM     16  O   UNL     1       4.709   1.560  -0.036  0.00  0.00    -0.292 OA
BRANCH  15  17
ATOM     17  C   UNL     1       2.386   1.406  -0.014  0.00  0.00    +0.018 A 
ATOM     18  C   UNL     1       1.166   2.089   0.002  0.00  0.00    +0.011 A 
ATOM     19  C   UNL     1      -0.017   1.380   0.010  0.00  0.00    +0.004 A 
ATOM     20  C   UNL     1       0.002  -0.004   0.002  0.00  0.00    -0.044 A 
ATOM     21  C   UNL     1       1.206  -0.687  -0.013  0.00  0.00    +0.004 A 
ATOM     22  C   UNL     1       2.397   0.008  -0.021  0.00  0.00    +0.011 A 
BRANCH  20  23
ATOM     23  C   UNL     1      -1.295  -0.771   0.010  0.00  0.00    +0.019 C 
ATOM     24  C   UNL     1      -1.355  -1.658   1.255  0.00  0.00    +0.008 C 
ATOM     25  C   UNL     1      -2.672  -2.437   1.264  0.00  0.00    +0.001 C 
ATOM     26  C   UNL     1      -2.755  -3.311   0.011  0.00  0.00    +0.000 C 
ATOM     27  C   UNL     1      -2.696  -2.424  -1.235  0.00  0.00    +0.001 C 
ATOM     28  C   UNL     1      -1.379  -1.645  -1.243  0.00  0.00    +0.008 C 
ENDBRANCH  20  23
ENDBRANCH  15  17
ENDBRANCH   1  15
TORSDOF 5
