REMARK  Name = ZINC12444765
REMARK  7 active torsions:
REMARK  status: ('A' for Active; 'I' for Inactive)
REMARK    1  A    between atoms: C_1  and  C_2
REMARK    2  A    between atoms: C_9  and  N_31
REMARK    3  A    between atoms: C_10  and  C_29
REMARK    4  A    between atoms: C_11  and  C_13
REMARK    5  A    between atoms: C_15  and  C_18
REMARK    6  A    between atoms: C_18  and  S_19
REMARK    7  A    between atoms: S_19  and  C_20
REMARK                            x       y       z     vdW  Elec       q    Type
REMARK                         _______ _______ _______ _____ _____    ______ ____
ROOT
ATOM      1  C   UNL     1      -0.018   1.503   0.010  0.00  0.00    +0.065 C 
ATOM      2  C   UNL     1       0.002  -0.004   0.002  0.00  0.00    +0.041 A 
ATOM      3  C   UNL     1       0.008  -0.790  -1.085  0.00  0.00    +0.049 A 
ATOM      4  C   UNL     1       0.027  -2.135  -0.654  0.00  0.00    +0.245 A 
ATOM      5  N   UNL     1       0.034  -2.141   0.647  0.00  0.00    -0.135 NA
ATOM      6  N   UNL     1       0.024  -0.809   1.090  0.00  0.00    -0.278 N 
ATOM      7  H   UNL     1       0.029  -0.516   2.015  0.00  0.00    +0.189 HD
ATOM      8  O   UNL     1       0.034  -3.173  -1.533  0.00  0.00    -0.421 OA
ATOM      9  C   UNL     1      -0.251  -2.898  -2.821  0.00  0.00    +0.201 C 
ATOM     10  C   UNL     1      -0.287  -1.657  -3.349  0.00  0.00    +0.099 C 
ATOM     11  C   UNL     1      -0.003  -0.413  -2.545  0.00  0.00    +0.108 C 
ENDROOT
BRANCH  11  12
ATOM     12  C   UNL     1       1.340   0.149  -2.935  0.00  0.00    +0.003 A 
ATOM     13  C   UNL     1       1.642   1.376  -3.425  0.00  0.00    +0.016 A 
ATOM     14  C   UNL     1       2.959   1.676  -3.716  0.00  0.00    -0.030 A 
ATOM     15  C   UNL     1       3.910   0.734  -3.502  0.00  0.00    +0.050 A 
ATOM     16  S   UNL     1       2.946  -0.626  -2.865  0.00  0.00    -0.100 S 
BRANCH  14  17
ATOM     17  C   UNL     1       3.333   3.030  -4.263  0.00  0.00    +0.112 C 
BRANCH  17  18
ATOM     18  S   UNL     1       3.701   4.156  -2.889  0.00  0.00    -0.094 S 
BRANCH  18  19
ATOM     19  C   UNL     1       4.114   5.675  -3.682  0.00  0.00    +0.136 A 
ATOM     20  N   UNL     1       4.147   5.951  -4.966  0.00  0.00    -0.233 NA
ATOM     21  C   UNL     1       4.485   7.172  -5.436  0.00  0.00    +0.079 A 
ATOM     22  C   UNL     1       4.560   7.599  -6.782  0.00  0.00    +0.029 A 
ATOM     23  C   UNL     1       4.923   8.884  -7.090  0.00  0.00    +0.002 A 
ATOM     24  C   UNL     1       5.229   9.808  -6.101  0.00  0.00    +0.001 A 
ATOM     25  C   UNL     1       5.165   9.424  -4.774  0.00  0.00    +0.017 A 
ATOM     26  C   UNL     1       4.802   8.140  -4.456  0.00  0.00    +0.040 A 
ATOM     27  S   UNL     1       4.586   7.232  -2.944  0.00  0.00    -0.061 S 
ENDBRANCH  18  19
ENDBRANCH  17  18
ENDBRANCH  14  17
ENDBRANCH  11  12
BRANCH   9  28
ATOM     28  N   UNL     1      -0.523  -3.954  -3.655  0.00  0.00    -0.328 N 
ATOM     29  H   UNL     1      -0.506  -4.861  -3.310  0.00  0.00    +0.145 HD
ATOM     30  H   UNL     1      -0.732  -3.794  -4.588  0.00  0.00    +0.145 HD
ENDBRANCH   9  28
BRANCH  10  31
ATOM     31  C   UNL     1      -0.609  -1.514  -4.737  0.00  0.00    +0.101 C 
ATOM     32  N   UNL     1      -0.864  -1.400  -5.838  0.00  0.00    -0.191 NA
ENDBRANCH  10  31
TORSDOF 6
