REMARK  Name = ZINC38211846
REMARK  9 active torsions:
REMARK  status: ('A' for Active; 'I' for Inactive)
REMARK    1  A    between atoms: C_1  and  C_2
REMARK    2  A    between atoms: N_7  and  C_8
REMARK    3  A    between atoms: C_8  and  C_9
REMARK    4  A    between atoms: C_9  and  C_10
REMARK    5  A    between atoms: C_18  and  C_20
REMARK    6  A    between atoms: C_23  and  C_25
REMARK    7  A    between atoms: C_28  and  O_31
REMARK    8  A    between atoms: O_31  and  C_32
REMARK    9  A    between atoms: C_32  and  C_33
REMARK                            x       y       z     vdW  Elec       q    Type
REMARK                         _______ _______ _______ _____ _____    ______ ____
ROOT
ATOM      1  C   UNL     1       4.294  -1.495   1.825  0.00  0.00    -0.048 A 
ATOM      2  C   UNL     1       4.662  -2.792   1.475  0.00  0.00    +0.005 A 
ATOM      3  C   UNL     1       5.953  -3.097   1.170  0.00  0.00    +0.028 A 
ATOM      4  C   UNL     1       6.935  -2.091   1.208  0.00  0.00    +0.072 A 
ATOM      5  C   UNL     1       6.558  -0.773   1.564  0.00  0.00    +0.001 A 
ATOM      6  C   UNL     1       5.216  -0.494   1.867  0.00  0.00    +0.013 A 
ATOM      7  C   UNL     1       7.541   0.237   1.603  0.00  0.00    +0.012 A 
ATOM      8  C   UNL     1       8.824  -0.099   1.293  0.00  0.00    +0.030 A 
ATOM      9  C   UNL     1       9.136  -1.424   0.947  0.00  0.00    +0.090 A 
ATOM     10  N   UNL     1       8.210  -2.364   0.913  0.00  0.00    -0.245 NA
ENDROOT
BRANCH   9  11
ATOM     11  C   UNL     1      10.536  -1.775   0.613  0.00  0.00    +0.097 A 
ATOM     12  C   UNL     1      10.864  -3.061   0.267  0.00  0.00    +0.077 A 
ATOM     13  S   UNL     1      12.621  -2.889  -0.017  0.00  0.00    -0.075 S 
ATOM     14  C   UNL     1      12.736  -1.143   0.349  0.00  0.00    +0.110 A 
ATOM     15  N   UNL     1      11.480  -0.851   0.639  0.00  0.00    -0.237 NA
BRANCH  14  16
ATOM     16  C   UNL     1      13.921  -0.260   0.327  0.00  0.00    +0.025 A 
ATOM     17  C   UNL     1      15.180  -0.766  -0.023  0.00  0.00    +0.017 A 
ATOM     18  C   UNL     1      16.257   0.098  -0.029  0.00  0.00    +0.068 A 
ATOM     19  C   UNL     1      16.059   1.432   0.310  0.00  0.00    +0.215 A 
ATOM     20  N   UNL     1      14.858   1.880   0.637  0.00  0.00    -0.221 NA
ATOM     21  C   UNL     1      13.803   1.091   0.649  0.00  0.00    +0.125 A 
BRANCH  19  22
ATOM     22  O   UNL     1      17.113   2.286   0.306  0.00  0.00    -0.467 OA
BRANCH  22  23
ATOM     23  C   UNL     1      16.849   3.644   0.663  0.00  0.00    +0.343 C 
BRANCH  23  24
ATOM     24  C   UNL     1      18.148   4.449   0.602  0.00  0.00    +0.424 C 
ATOM     25  F   UNL     1      18.667   4.401  -0.696  0.00  0.00    -0.167 F 
ATOM     26  F   UNL     1      17.890   5.779   0.952  0.00  0.00    -0.167 F 
ATOM     27  F   UNL     1      19.077   3.905   1.496  0.00  0.00    -0.167 F 
ENDBRANCH  23  24
ENDBRANCH  22  23
ENDBRANCH  19  22
ENDBRANCH  14  16
ENDBRANCH   9  11
BRANCH   1  28
ATOM     28  C   UNL     1       2.854  -1.195   2.156  0.00  0.00    +0.016 C 
BRANCH  28  29
ATOM     29  C   UNL     1       2.110  -0.798   0.879  0.00  0.00    -0.074 C 
BRANCH  29  35
ATOM     30  C   UNL     1      -0.019   1.526   0.010  0.00  0.00    -0.013 C 
ATOM     31  C   UNL     1       0.002  -0.004   0.002  0.00  0.00    -0.072 C 
ATOM     32  C   UNL     1      -1.437  -0.549   0.058  0.00  0.00    -0.017 C 
ATOM     33  C   UNL     1      -1.494  -1.408   1.342  0.00  0.00    -0.020 C 
ATOM     34  C   UNL     1      -0.004  -1.751   1.595  0.00  0.00    -0.078 C 
ATOM     35  N   UNL     1       0.707  -0.505   1.202  0.00  0.00    +0.382 N 
ATOM     36  H   UNL     1       0.654   0.175   1.946  0.00  0.00    -0.081 HD
ENDBRANCH  29  35
ENDBRANCH  28  29
ENDBRANCH   1  28
TORSDOF 8
