REMARK  Name = ZINC48704390
REMARK  5 active torsions:
REMARK  status: ('A' for Active; 'I' for Inactive)
REMARK    1  A    between atoms: C_4  and  N_25
REMARK    2  A    between atoms: C_5  and  N_7
REMARK    3  A    between atoms: C_8  and  C_10
REMARK    4  A    between atoms: N_12  and  C_13
REMARK    5  A    between atoms: C_13  and  C_14
REMARK                            x       y       z     vdW  Elec       q    Type
REMARK                         _______ _______ _______ _____ _____    ______ ____
ROOT
ATOM      1  N   UNL     1       1.235  -2.080  -0.021  0.00  0.00    -0.276 N 
ATOM      2  C   UNL     1       0.083  -2.772   0.088  0.00  0.00    +0.303 C 
ATOM      3  O   UNL     1      -0.979  -2.185   0.102  0.00  0.00    -0.265 OA
ATOM      4  H   UNL     1       2.079  -2.552  -0.098  0.00  0.00    +0.155 HD
ENDROOT
BRANCH   1   9
ATOM      5  C   UNL     1       0.135   1.378  -0.617  0.00  0.00    +0.002 A 
ATOM      6  C   UNL     1       1.167   2.090  -0.031  0.00  0.00    +0.002 A 
ATOM      7  C   UNL     1       2.224   1.424   0.559  0.00  0.00    +0.025 A 
ATOM      8  C   UNL     1       2.252   0.037   0.566  0.00  0.00    +0.051 A 
ATOM      9  C   UNL     1       1.212  -0.681  -0.024  0.00  0.00    +0.055 A 
ATOM     10  C   UNL     1       0.155  -0.004  -0.615  0.00  0.00    +0.025 A 
BRANCH   8  11
ATOM     11  N   UNL     1       3.321  -0.639   1.163  0.00  0.00    -0.328 N 
ATOM     12  C   UNL     1       4.564  -1.041   0.488  0.00  0.00    +0.105 C 
ATOM     13  C   UNL     1       5.433  -1.778   1.530  0.00  0.00    +0.020 C 
ATOM     14  C   UNL     1       4.393  -2.246   2.581  0.00  0.00    +0.020 C 
ATOM     15  C   UNL     1       3.391  -1.062   2.573  0.00  0.00    +0.105 C 
ENDBRANCH   8  11
ENDBRANCH   1   9
BRANCH   2  16
ATOM     16  C   UNL     1       0.115  -4.262   0.192  0.00  0.00    +0.299 C 
ATOM     17  O   UNL     1       1.177  -4.849   0.178  0.00  0.00    -0.265 OA
ATOM     18  N   UNL     1      -1.036  -4.954   0.300  0.00  0.00    -0.304 N 
ATOM     19  H   UNL     1      -1.885  -4.485   0.312  0.00  0.00    +0.149 HD
BRANCH  18  20
ATOM     20  C   UNL     1      -1.006  -6.415   0.402  0.00  0.00    +0.152 C 
BRANCH  20  21
ATOM     21  C   UNL     1      -2.435  -6.949   0.515  0.00  0.00    +0.228 C 
ATOM     22  C   UNL     1      -2.405  -8.468   0.732  0.00  0.00    +0.275 C 
ATOM     23  O   UNL     1      -3.755  -8.935   0.819  0.00  0.00    -0.485 OA
ATOM     24  C   UNL     1      -4.623  -8.474  -0.123  0.00  0.00    +0.162 A 
ATOM     25  C   UNL     1      -5.822  -9.140  -0.327  0.00  0.00    +0.049 A 
ATOM     26  C   UNL     1      -6.715  -8.682  -1.277  0.00  0.00    +0.004 A 
ATOM     27  C   UNL     1      -6.417  -7.559  -2.026  0.00  0.00    +0.004 A 
ATOM     28  C   UNL     1      -5.223  -6.891  -1.828  0.00  0.00    +0.049 A 
ATOM     29  C   UNL     1      -4.321  -7.347  -0.877  0.00  0.00    +0.163 A 
ATOM     30  O   UNL     1      -3.146  -6.683  -0.699  0.00  0.00    -0.480 OA
ENDBRANCH  20  21
ENDBRANCH  18  20
ENDBRANCH   2  16
TORSDOF 5
