REMARK  Name = ZINC13510640
REMARK  11 active torsions:
REMARK  status: ('A' for Active; 'I' for Inactive)
REMARK    1  A    between atoms: C_1  and  O_2
REMARK    2  A    between atoms: O_2  and  C_3
REMARK    3  A    between atoms: C_6  and  C_11
REMARK    4  A    between atoms: C_8  and  O_9
REMARK    5  A    between atoms: O_9  and  C_10
REMARK    6  A    between atoms: C_11  and  C_12
REMARK    7  A    between atoms: C_12  and  N_13
REMARK    8  A    between atoms: C_17  and  C_26
REMARK    9  A    between atoms: C_18  and  N_20
REMARK   10  A    between atoms: N_30  and  C_32
REMARK   11  A    between atoms: C_32  and  C_33
REMARK                            x       y       z     vdW  Elec       q    Type
REMARK                         _______ _______ _______ _____ _____    ______ ____
ROOT
ATOM      1  N   UNL     1      -2.451   0.649  -3.905  0.00  0.00    -0.330 N 
ATOM      2  C   UNL     1      -1.960   1.560  -2.983  0.00  0.00    +0.102 A 
ATOM      3  C   UNL     1      -2.225   2.922  -3.157  0.00  0.00    +0.009 A 
ATOM      4  C   UNL     1      -1.745   3.816  -2.247  0.00  0.00    -0.018 A 
ATOM      5  C   UNL     1      -0.990   3.337  -1.163  0.00  0.00    +0.093 A 
ATOM      6  C   UNL     1      -0.759   1.956  -1.050  0.00  0.00    +0.118 A 
ATOM      7  N   UNL     1      -1.244   1.125  -1.959  0.00  0.00    -0.331 N 
ATOM      8  C   UNL     1      -2.002   5.293  -2.364  0.00  0.00    +0.052 C 
ATOM      9  C   UNL     1      -2.464   5.631  -3.783  0.00  0.00    +0.090 C 
ATOM     10  N   UNL     1      -3.555   4.713  -4.150  0.00  0.00    -0.294 NA
ATOM     11  C   UNL     1      -3.032   3.358  -4.351  0.00  0.00    +0.123 C 
ATOM     12  H   UNL     1      -3.043   1.000  -4.763  0.00  0.00    +0.147 HD
ATOM     13  H   UNL     1      -1.040   0.049  -1.848  0.00  0.00    +0.168 HD
ENDROOT
BRANCH   6  14
ATOM     14  N   UNL     1      -0.018   1.464   0.010  0.00  0.00    -0.316 N 
ATOM     15  C   UNL     1       1.203   0.801  -0.464  0.00  0.00    +0.106 C 
ATOM     16  C   UNL     1       2.066   0.400   0.734  0.00  0.00    +0.019 C 
ATOM     17  C   UNL     1       1.268  -0.544   1.638  0.00  0.00    +0.003 C 
ATOM     18  C   UNL     1      -0.022   0.153   2.079  0.00  0.00    +0.019 C 
ATOM     19  C   UNL     1      -0.824   0.561   0.842  0.00  0.00    +0.106 C 
ENDBRANCH   6  14
BRANCH   5  20
ATOM     20  C   UNL     1      -0.463   4.244  -0.188  0.00  0.00    +0.103 C 
ATOM     21  N   UNL     1      -0.045   4.964   0.586  0.00  0.00    -0.191 NA
ENDBRANCH   5  20
BRANCH   1  22
ATOM     22  C   UNL     1      -2.181  -0.781  -3.737  0.00  0.00    +0.107 C 
BRANCH  22  23
ATOM     23  C   UNL     1      -2.831  -1.561  -4.881  0.00  0.00    +0.054 C 
BRANCH  23  27
ATOM     24  C   UNL     1      -2.038  -5.735  -4.394  0.00  0.00    +0.161 A 
ATOM     25  C   UNL     1      -1.165  -4.941  -5.119  0.00  0.00    +0.049 A 
ATOM     26  C   UNL     1      -1.427  -3.593  -5.280  0.00  0.00    +0.007 A 
ATOM     27  C   UNL     1      -2.554  -3.032  -4.708  0.00  0.00    -0.042 A 
ATOM     28  C   UNL     1      -3.429  -3.818  -3.983  0.00  0.00    +0.053 A 
ATOM     29  C   UNL     1      -3.176  -5.171  -3.823  0.00  0.00    +0.162 A 
BRANCH  24  31
ATOM     30  C   UNL     1      -0.599  -7.572  -4.852  0.00  0.00    +0.277 C 
ATOM     31  O   UNL     1      -1.785  -7.062  -4.239  0.00  0.00    -0.491 OA
ENDBRANCH  24  31
BRANCH  29  32
ATOM     32  O   UNL     1      -4.036  -5.946  -3.110  0.00  0.00    -0.491 OA
ATOM     33  C   UNL     1      -5.182  -5.299  -2.552  0.00  0.00    +0.277 C 
ENDBRANCH  29  32
ENDBRANCH  23  27
ENDBRANCH  22  23
ENDBRANCH   1  22
BRANCH  10  34
ATOM     34  C   UNL     1      -4.262   5.188  -5.347  0.00  0.00    +0.120 C 
BRANCH  34  35
ATOM     35  C   UNL     1      -4.989   6.468  -5.026  0.00  0.00    -0.033 A 
ATOM     36  C   UNL     1      -6.291   6.425  -4.563  0.00  0.00    +0.005 A 
ATOM     37  C   UNL     1      -6.957   7.599  -4.263  0.00  0.00    +0.000 A 
ATOM     38  C   UNL     1      -6.325   8.816  -4.438  0.00  0.00    +0.000 A 
ATOM     39  C   UNL     1      -5.025   8.859  -4.906  0.00  0.00    +0.000 A 
ATOM     40  C   UNL     1      -4.357   7.685  -5.200  0.00  0.00    +0.005 A 
ENDBRANCH  34  35
ENDBRANCH  10  34
TORSDOF 9
