REMARK  Name = ZINC40666390
REMARK  5 active torsions:
REMARK  status: ('A' for Active; 'I' for Inactive)
REMARK    1  A    between atoms: C_1  and  C_2
REMARK    2  A    between atoms: C_2  and  C_3
REMARK    3  A    between atoms: C_2  and  C_4
REMARK    4  A    between atoms: C_4  and  C_5
REMARK    5  A    between atoms: C_5  and  N_6
REMARK                            x       y       z     vdW  Elec       q    Type
REMARK                         _______ _______ _______ _____ _____    ______ ____
ROOT
ATOM      1  N   UNL     1       0.669  -0.605   3.684  0.00  0.00    -0.299 N 
ATOM      2  C   UNL     1       0.159  -0.382   4.912  0.00  0.00    +0.303 C 
ATOM      3  O   UNL     1      -0.840   0.299   5.040  0.00  0.00    -0.253 OA
ATOM      4  N   UNL     1       0.756  -0.914   5.997  0.00  0.00    -0.276 N 
ATOM      5  C   UNL     1       2.031  -1.656   5.907  0.00  0.00    +0.138 C 
ATOM      6  C   UNL     1       3.017  -1.127   6.949  0.00  0.00    +0.179 C 
ATOM      7  O   UNL     1       2.398  -1.033   8.242  0.00  0.00    -0.372 OA
ATOM      8  C   UNL     1       1.272  -0.174   8.236  0.00  0.00    +0.161 C 
ATOM      9  C   UNL     1       0.186  -0.788   7.339  0.00  0.00    +0.129 C 
ATOM     10  C   UNL     1      -1.038   0.153   7.393  0.00  0.00    +0.191 C 
ATOM     11  S   UNL     1      -1.064   0.529   9.202  0.00  0.00    -0.027 S 
ATOM     12  O   UNL     1      -1.910  -0.407   9.857  0.00  0.00    -0.174 OA
ATOM     13  O   UNL     1      -1.288   1.920   9.383  0.00  0.00    -0.174 OA
ATOM     14  C   UNL     1       0.668   0.117   9.616  0.00  0.00    +0.199 C 
ATOM     15  H   UNL     1       1.506  -1.087   3.587  0.00  0.00    +0.150 HD
ENDROOT
BRANCH   1  16
ATOM     16  C   UNL     1      -0.039  -0.120   2.497  0.00  0.00    +0.106 C 
BRANCH  16  17
ATOM     17  C   UNL     1       0.748  -0.503   1.242  0.00  0.00    +0.022 C 
BRANCH  17  19
ATOM     18  C   UNL     1      -0.016   1.534   0.014  0.00  0.00    +0.007 C 
ATOM     19  C   UNL     1       0.009   0.004   0.003  0.00  0.00    -0.016 C 
ATOM     20  C   UNL     1       0.728  -0.485  -1.256  0.00  0.00    +0.007 C 
ENDBRANCH  17  19
ENDBRANCH  16  17
ENDBRANCH   1  16
TORSDOF 3
