REMARK  Name = ZINC23022215
REMARK  8 active torsions:
REMARK  status: ('A' for Active; 'I' for Inactive)
REMARK    1  A    between atoms: C_1  and  O_2
REMARK    2  A    between atoms: O_2  and  C_3
REMARK    3  A    between atoms: C_8  and  N_9
REMARK    4  A    between atoms: N_9  and  S_10
REMARK    5  A    between atoms: S_10  and  C_13
REMARK    6  A    between atoms: C_16  and  O_33
REMARK    7  A    between atoms: C_17  and  N_19
REMARK    8  A    between atoms: C_20  and  C_22
REMARK                            x       y       z     vdW  Elec       q    Type
REMARK                         _______ _______ _______ _____ _____    ______ ____
ROOT
ATOM      1  C   UNL     1      -2.362  -0.769   2.525  0.00  0.00    +0.110 A 
ATOM      2  C   UNL     1      -3.499  -0.531   3.275  0.00  0.00    +0.032 A 
ATOM      3  C   UNL     1      -3.393  -0.217   4.617  0.00  0.00    +0.049 A 
ATOM      4  C   UNL     1      -2.145  -0.141   5.215  0.00  0.00    +0.138 A 
ATOM      5  C   UNL     1      -1.000  -0.381   4.460  0.00  0.00    +0.077 A 
ATOM      6  C   UNL     1      -1.114  -0.701   3.115  0.00  0.00    +0.055 A 
ENDROOT
BRANCH   5   7
ATOM      7  N   UNL     1       0.265  -0.306   5.059  0.00  0.00    -0.282 N 
ATOM      8  C   UNL     1       1.361  -0.118   4.298  0.00  0.00    +0.225 C 
ATOM      9  O   UNL     1       1.256  -0.037   3.092  0.00  0.00    -0.275 OA
ATOM     10  H   UNL     1       0.363  -0.401   6.151  0.00  0.00    +0.155 HD
BRANCH   8  11
ATOM     11  C   UNL     1       2.718  -0.009   4.945  0.00  0.00    +0.105 C 
ATOM     12  C   UNL     1       3.796  -0.042   3.864  0.00  0.00    +0.018 C 
ATOM     13  C   UNL     1       5.144   0.287   4.514  0.00  0.00    +0.006 C 
ATOM     14  C   UNL     1       5.138   1.760   4.917  0.00  0.00    +0.035 C 
ATOM     15  C   UNL     1       3.907   2.084   5.721  0.00  0.00    -0.043 A 
ATOM     16  C   UNL     1       2.792   1.275   5.729  0.00  0.00    -0.032 A 
ATOM     17  C   UNL     1       1.684   1.638   6.482  0.00  0.00    +0.004 A 
ATOM     18  C   UNL     1       1.692   2.800   7.226  0.00  0.00    +0.000 A 
ATOM     19  C   UNL     1       2.812   3.610   7.222  0.00  0.00    +0.000 A 
ATOM     20  C   UNL     1       3.914   3.252   6.473  0.00  0.00    +0.004 A 
ENDBRANCH   8  11
ENDBRANCH   5   7
BRANCH   1  21
ATOM     21  S   UNL     1      -2.505  -1.169   0.815  0.00  0.00    +0.073 S 
ATOM     22  O   UNL     1      -3.805  -1.711   0.631  0.00  0.00    -0.150 OA
ATOM     23  O   UNL     1      -1.326  -1.882   0.464  0.00  0.00    -0.150 OA
BRANCH  21  24
ATOM     24  N   UNL     1      -2.463   0.257  -0.026  0.00  0.00    -0.213 N 
ATOM     25  H   UNL     1      -3.329   0.564  -0.631  0.00  0.00    +0.174 HD
BRANCH  24  31
ATOM     26  C   UNL     1      -1.459   2.458   0.021  0.00  0.00    +0.142 A 
ATOM     27  C   UNL     1      -0.330   3.259   0.072  0.00  0.00    +0.047 A 
ATOM     28  C   UNL     1       0.925   2.682   0.142  0.00  0.00    +0.004 A 
ATOM     29  C   UNL     1       1.057   1.306   0.160  0.00  0.00    +0.002 A 
ATOM     30  C   UNL     1      -0.064   0.500   0.108  0.00  0.00    +0.028 A 
ATOM     31  C   UNL     1      -1.326   1.071   0.033  0.00  0.00    +0.090 A 
BRANCH  26  33
ATOM     32  C   UNL     1      -2.753   4.452  -0.062  0.00  0.00    +0.277 C 
ATOM     33  O   UNL     1      -2.694   3.024  -0.047  0.00  0.00    -0.493 OA
ENDBRANCH  26  33
ENDBRANCH  24  31
ENDBRANCH  21  24
ENDBRANCH   1  21
BRANCH   4  34
ATOM     34  O   UNL     1      -2.040   0.168   6.535  0.00  0.00    -0.505 OA
ATOM     35  H   UNL     1      -1.049   0.227   7.008  0.00  0.00    +0.292 HD
ENDBRANCH   4  34
TORSDOF 7
