REMARK  Name = ZINC25580996
REMARK  9 active torsions:
REMARK  status: ('A' for Active; 'I' for Inactive)
REMARK    1  A    between atoms: C_1  and  C_2
REMARK    2  A    between atoms: C_3  and  N_15
REMARK    3  A    between atoms: N_6  and  C_9
REMARK    4  A    between atoms: N_7  and  C_8
REMARK    5  A    between atoms: C_16  and  C_18
REMARK    6  A    between atoms: C_18  and  C_38
REMARK    7  A    between atoms: C_19  and  C_20
REMARK    8  A    between atoms: N_22  and  C_32
REMARK    9  A    between atoms: C_24  and  C_25
REMARK                            x       y       z     vdW  Elec       q    Type
REMARK                         _______ _______ _______ _____ _____    ______ ____
ROOT
ATOM      1  C   UNL     1      -1.077  -2.314   3.937  0.00  0.00    +0.114 C 
ATOM      2  C   UNL     1      -0.707  -2.483   5.255  0.00  0.00    +0.035 C 
ENDROOT
BRANCH   2   3
ATOM      3  C   UNL     1      -0.346  -3.810   5.748  0.00  0.00    +0.022 A 
ATOM      4  C   UNL     1      -0.629  -5.027   5.146  0.00  0.00    +0.123 A 
ATOM      5  N   UNL     1      -0.119  -5.997   5.923  0.00  0.00    -0.239 N 
ATOM      6  N   UNL     1       0.493  -5.431   7.045  0.00  0.00    -0.166 NA
ATOM      7  C   UNL     1       0.383  -4.124   6.985  0.00  0.00    +0.100 A 
BRANCH   7   8
ATOM      8  C   UNL     1       0.896  -3.150   7.977  0.00  0.00    +0.003 A 
ATOM      9  C   UNL     1       1.387  -1.915   7.554  0.00  0.00    +0.013 A 
ATOM     10  C   UNL     1       1.860  -1.009   8.482  0.00  0.00    +0.039 A 
ATOM     11  C   UNL     1       1.857  -1.329   9.830  0.00  0.00    +0.123 A 
ATOM     12  C   UNL     1       1.375  -2.558  10.254  0.00  0.00    +0.039 A 
ATOM     13  C   UNL     1       0.896  -3.467   9.335  0.00  0.00    +0.013 A 
ATOM     14  F   UNL     1       2.327  -0.442  10.733  0.00  0.00    -0.205 F 
ENDBRANCH   7   8
BRANCH   5  15
ATOM     15  C   UNL     1      -0.195  -7.369   5.653  0.00  0.00    +0.065 A 
ATOM     16  C   UNL     1      -0.835  -7.818   4.505  0.00  0.00    +0.028 A 
ATOM     17  C   UNL     1      -0.904  -9.172   4.239  0.00  0.00    +0.002 A 
ATOM     18  C   UNL     1      -0.345 -10.080   5.120  0.00  0.00    +0.000 A 
ATOM     19  C   UNL     1       0.289  -9.637   6.266  0.00  0.00    +0.002 A 
ATOM     20  C   UNL     1       0.365  -8.284   6.535  0.00  0.00    +0.028 A 
ENDBRANCH   5  15
ENDBRANCH   2   3
BRANCH   1  22
ATOM     21  N   UNL     1      -1.948  -0.849   2.189  0.00  0.00    -0.275 N 
ATOM     22  C   UNL     1      -1.586  -1.014   3.477  0.00  0.00    +0.259 C 
ATOM     23  O   UNL     1      -1.681  -0.086   4.259  0.00  0.00    -0.269 OA
ATOM     24  H   UNL     1      -1.939  -1.707   1.501  0.00  0.00    +0.155 HD
BRANCH  21  27
ATOM     25  C   UNL     1      -0.716   0.578  -0.232  0.00  0.00    +0.067 C 
ATOM     26  C   UNL     1      -1.818   1.082   0.664  0.00  0.00    +0.059 A 
ATOM     27  C   UNL     1      -2.336   0.423   1.724  0.00  0.00    +0.121 A 
ATOM     28  C   UNL     1      -3.376   1.278   2.300  0.00  0.00    +0.293 A 
ATOM     29  O   UNL     1      -4.068   1.024   3.269  0.00  0.00    -0.264 OA
ATOM     30  N   UNL     1      -3.421   2.399   1.552  0.00  0.00    -0.216 N 
ATOM     31  N   UNL     1      -2.458   2.288   0.542  0.00  0.00    -0.282 N 
ATOM     32  C   UNL     1      -2.180   3.297  -0.482  0.00  0.00    +0.171 C 
BRANCH  30  33
ATOM     33  C   UNL     1      -4.278   3.486   1.752  0.00  0.00    +0.067 A 
ATOM     34  C   UNL     1      -4.583   3.903   3.042  0.00  0.00    +0.028 A 
ATOM     35  C   UNL     1      -5.425   4.980   3.237  0.00  0.00    +0.002 A 
ATOM     36  C   UNL     1      -5.972   5.637   2.150  0.00  0.00    +0.000 A 
ATOM     37  C   UNL     1      -5.675   5.222   0.865  0.00  0.00    +0.002 A 
ATOM     38  C   UNL     1      -4.830   4.148   0.663  0.00  0.00    +0.028 A 
ENDBRANCH  30  33
ENDBRANCH  21  27
ENDBRANCH   1  22
BRANCH   1  39
ATOM     39  C   UNL     1      -0.966  -3.405   3.016  0.00  0.00    +0.104 C 
ATOM     40  N   UNL     1      -0.877  -4.271   2.286  0.00  0.00    -0.191 NA
ENDBRANCH   1  39
TORSDOF 7
