REMARK  Name = ZINC40734141
REMARK  5 active torsions:
REMARK  status: ('A' for Active; 'I' for Inactive)
REMARK    1  A    between atoms: C_1  and  C_2
REMARK    2  A    between atoms: C_2  and  C_3
REMARK    3  A    between atoms: C_11  and  N_24
REMARK    4  A    between atoms: C_12  and  O_16
REMARK    5  A    between atoms: O_16  and  C_17
REMARK                            x       y       z     vdW  Elec       q    Type
REMARK                         _______ _______ _______ _____ _____    ______ ____
ROOT
ATOM      1  C   UNL     1      -2.962   0.401   0.321  0.00  0.00    +0.075 C 
ATOM      2  C   UNL     1      -2.433  -0.234  -0.968  0.00  0.00    +0.022 C 
ATOM      3  C   UNL     1      -2.488  -1.758  -0.841  0.00  0.00    +0.003 C 
ATOM      4  C   UNL     1      -1.597  -2.208   0.319  0.00  0.00    +0.019 C 
ATOM      5  C   UNL     1      -2.117  -1.595   1.623  0.00  0.00    +0.107 C 
ATOM      6  N   UNL     1      -2.207  -0.137   1.461  0.00  0.00    -0.311 N 
ATOM      7  C   UNL     1      -1.586   0.716   2.366  0.00  0.00    +0.149 A 
ATOM      8  C   UNL     1      -2.233   1.090   3.547  0.00  0.00    +0.128 A 
ATOM      9  C   UNL     1      -1.566   1.948   4.419  0.00  0.00    +0.246 A 
ATOM     10  N   UNL     1      -0.348   2.375   4.099  0.00  0.00    -0.199 NA
ATOM     11  C   UNL     1       0.228   1.999   2.975  0.00  0.00    +0.227 A 
ATOM     12  N   UNL     1      -0.365   1.185   2.124  0.00  0.00    -0.219 NA
ENDROOT
BRANCH   8  13
ATOM     13  N   UNL     1      -3.520   0.616   3.845  0.00  0.00    -0.351 N 
ATOM     14  H   UNL     1      -4.003   0.081   3.196  0.00  0.00    +0.143 HD
ATOM     15  H   UNL     1      -3.927   0.823   4.701  0.00  0.00    +0.143 HD
ENDBRANCH   8  13
BRANCH   1  17
ATOM     16  C   UNL     1      -3.675   2.493  -0.844  0.00  0.00    +0.006 C 
ATOM     17  C   UNL     1      -2.780   1.919   0.257  0.00  0.00    +0.019 C 
ENDBRANCH   1  17
BRANCH   9  18
ATOM     18  O   UNL     1      -2.151   2.341   5.579  0.00  0.00    -0.436 OA
BRANCH  18  19
ATOM     19  C   UNL     1      -1.504   3.265   6.338  0.00  0.00    +0.130 A 
ATOM     20  C   UNL     1      -1.513   4.601   5.965  0.00  0.00    +0.047 A 
ATOM     21  C   UNL     1      -0.855   5.537   6.738  0.00  0.00    +0.019 A 
ATOM     22  C   UNL     1      -0.188   5.144   7.884  0.00  0.00    +0.018 A 
ATOM     23  C   UNL     1      -0.177   3.812   8.258  0.00  0.00    +0.019 A 
ATOM     24  C   UNL     1      -0.838   2.873   7.491  0.00  0.00    +0.047 A 
ATOM     25 BR   UNL     1       0.712   6.428   8.941  0.00  0.00    -0.050 Br
ENDBRANCH  18  19
ENDBRANCH   9  18
TORSDOF 4
