REMARK  Name = ZINC13065434
REMARK  11 active torsions:
REMARK  status: ('A' for Active; 'I' for Inactive)
REMARK    1  A    between atoms: C_1  and  C_2
REMARK    2  A    between atoms: C_5  and  C_8
REMARK    3  A    between atoms: C_8  and  N_67
REMARK    4  A    between atoms: C_9  and  C_10
REMARK    5  A    between atoms: C_9  and  N_67
REMARK    6  A    between atoms: C_25  and  C_26
REMARK    7  A    between atoms: C_25  and  N_67
REMARK    8  A    between atoms: N_30  and  C_31
REMARK    9  A    between atoms: C_31  and  C_32
REMARK   10  A    between atoms: C_35  and  O_38
REMARK   11  A    between atoms: O_38  and  C_39
REMARK                            x       y       z     vdW  Elec       q    Type
REMARK                         _______ _______ _______ _____ _____    ______ ____
ROOT
ATOM      1  N   UNL     1       1.574  -2.082  -1.327  0.00  0.00    +0.390 N 
ATOM      2  H   UNL     1       0.852  -1.852  -2.020  0.00  0.00    -0.080 HD
ENDROOT
BRANCH   1   3
ATOM      3  C   UNL     1       2.905  -1.929  -1.952  0.00  0.00    -0.042 C 
BRANCH   3   8
ATOM      4  C   UNL     1       2.833  -4.496  -7.128  0.00  0.00    +0.044 C 
ATOM      5  C   UNL     1       2.852  -3.826  -5.779  0.00  0.00    -0.050 A 
ATOM      6  C   UNL     1       2.379  -2.535  -5.641  0.00  0.00    +0.003 A 
ATOM      7  C   UNL     1       2.396  -1.921  -4.402  0.00  0.00    +0.002 A 
ATOM      8  C   UNL     1       2.886  -2.598  -3.302  0.00  0.00    -0.064 A 
ATOM      9  C   UNL     1       3.364  -3.888  -3.440  0.00  0.00    +0.002 A 
ATOM     10  C   UNL     1       3.342  -4.504  -4.678  0.00  0.00    +0.003 A 
ENDBRANCH   3   8
ENDBRANCH   1   3
BRANCH   1  11
ATOM     11  C   UNL     1       1.383  -3.478  -0.880  0.00  0.00    -0.036 C 
BRANCH  11  12
ATOM     12  C   UNL     1      -0.091  -3.728  -0.694  0.00  0.00    +0.001 A 
ATOM     13  C   UNL     1      -0.822  -4.249  -1.713  0.00  0.00    +0.017 A 
ATOM     14  C   UNL     1      -2.250  -4.481  -1.501  0.00  0.00    +0.002 A 
ATOM     15  C   UNL     1      -3.053  -5.019  -2.516  0.00  0.00    +0.059 A 
ATOM     16  C   UNL     1      -4.395  -5.226  -2.287  0.00  0.00    +0.167 A 
ATOM     17  C   UNL     1      -4.957  -4.903  -1.046  0.00  0.00    +0.168 A 
ATOM     18  C   UNL     1      -4.173  -4.372  -0.038  0.00  0.00    +0.075 A 
ATOM     19  C   UNL     1      -2.817  -4.157  -0.254  0.00  0.00    +0.053 A 
ATOM     20  N   UNL     1      -2.018  -3.630   0.741  0.00  0.00    -0.322 N 
ATOM     21  H   UNL     1      -2.409  -3.406   1.600  0.00  0.00    +0.169 HD
ATOM     22  C   UNL     1      -0.705  -3.426   0.538  0.00  0.00    +0.251 A 
ATOM     23  O   UNL     1      -0.029  -2.963   1.441  0.00  0.00    -0.268 OA
ATOM     24  O   UNL     1      -6.288  -5.204  -1.082  0.00  0.00    -0.453 OA
ATOM     25  C   UNL     1      -6.452  -6.092  -2.203  0.00  0.00    +0.466 C 
ATOM     26  O   UNL     1      -5.378  -5.728  -3.091  0.00  0.00    -0.453 OA
ENDBRANCH  11  12
ENDBRANCH   1  11
BRANCH   1  27
ATOM     27  C   UNL     1       1.446  -1.161  -0.178  0.00  0.00    +0.001 C 
BRANCH  27  28
ATOM     28  C   UNL     1       1.490   0.258  -0.683  0.00  0.00    +0.135 A 
ATOM     29  N   UNL     1       2.563   0.975  -0.909  0.00  0.00    -0.115 NA
ATOM     30  N   UNL     1       2.186   2.132  -1.333  0.00  0.00    -0.023 NA
ATOM     31  N   UNL     1       0.900   2.171  -1.383  0.00  0.00    -0.044 NA
ATOM     32  N   UNL     1       0.434   1.034  -0.990  0.00  0.00    -0.227 N 
BRANCH  32  33
ATOM     33  C   UNL     1      -0.979   0.658  -0.896  0.00  0.00    +0.182 C 
BRANCH  33  34
ATOM     34  C   UNL     1      -1.472   0.214  -2.249  0.00  0.00    -0.026 A 
ATOM     35  C   UNL     1      -1.916   1.150  -3.164  0.00  0.00    +0.009 A 
ATOM     36  C   UNL     1      -2.363   0.745  -4.407  0.00  0.00    +0.046 A 
ATOM     37  C   UNL     1      -2.377  -0.603  -4.732  0.00  0.00    +0.120 A 
ATOM     38  C   UNL     1      -1.937  -1.541  -3.810  0.00  0.00    +0.046 A 
ATOM     39  C   UNL     1      -1.485  -1.131  -2.571  0.00  0.00    +0.009 A 
BRANCH  37  40
ATOM     40  O   UNL     1      -2.821  -1.004  -5.952  0.00  0.00    -0.495 OA
ATOM     41  C   UNL     1      -3.260   0.017  -6.851  0.00  0.00    +0.277 C 
ENDBRANCH  37  40
ENDBRANCH  33  34
ENDBRANCH  32  33
ENDBRANCH  27  28
ENDBRANCH   1  27
TORSDOF 9
