REMARK  Name = ZINC03878502
REMARK  9 active torsions:
REMARK  status: ('A' for Active; 'I' for Inactive)
REMARK    1  A    between atoms: C_1  and  C_2
REMARK    2  A    between atoms: C_2  and  C_4
REMARK    3  A    between atoms: C_2  and  N_14
REMARK    4  A    between atoms: N_14  and  S_15
REMARK    5  A    between atoms: S_15  and  C_18
REMARK    6  A    between atoms: C_21  and  N_24
REMARK    7  A    between atoms: N_24  and  C_25
REMARK    8  A    between atoms: C_25  and  N_27
REMARK    9  A    between atoms: C_28  and  C_30
REMARK                            x       y       z     vdW  Elec       q    Type
REMARK                         _______ _______ _______ _____ _____    ______ ____
ROOT
ATOM      1  C   UNL     1      -3.047   2.188  -1.042  0.00  0.00    +0.105 A 
ATOM      2  C   UNL     1      -2.095   3.095  -1.468  0.00  0.00    +0.030 A 
ATOM      3  C   UNL     1      -1.864   3.272  -2.819  0.00  0.00    +0.025 A 
ATOM      4  C   UNL     1      -2.597   2.546  -3.748  0.00  0.00    +0.033 A 
ATOM      5  C   UNL     1      -3.557   1.640  -3.316  0.00  0.00    +0.025 A 
ATOM      6  C   UNL     1      -3.779   1.464  -1.964  0.00  0.00    +0.030 A 
ENDROOT
BRANCH   1   7
ATOM      7  S   UNL     1      -3.334   1.960   0.682  0.00  0.00    +0.059 S 
ATOM      8  O   UNL     1      -4.658   1.460   0.811  0.00  0.00    -0.153 OA
ATOM      9  O   UNL     1      -2.903   3.151   1.326  0.00  0.00    -0.153 OA
BRANCH   7  10
ATOM     10  N   UNL     1      -2.321   0.754   1.192  0.00  0.00    -0.187 NA
ATOM     11  H   UNL     1      -2.688  -0.085   1.513  0.00  0.00    +0.148 HD
BRANCH  10  13
ATOM     12  C   UNL     1      -0.307   0.376  -0.144  0.00  0.00    +0.026 C 
ATOM     13  C   UNL     1      -0.869   0.953   1.157  0.00  0.00    +0.080 C 
BRANCH  13  14
ATOM     14  C   UNL     1      -0.229   0.240   2.350  0.00  0.00    -0.012 C 
ATOM     15  C   UNL     1      -0.540  -1.256   2.278  0.00  0.00    +0.012 C 
ATOM     16  C   UNL     1       0.101  -1.968   3.470  0.00  0.00    -0.010 C 
ATOM     17  C   UNL     1       1.616  -1.761   3.434  0.00  0.00    +0.007 C 
ATOM     18  C   UNL     1       1.928  -0.265   3.506  0.00  0.00    -0.010 C 
ATOM     19  C   UNL     1       1.287   0.448   2.314  0.00  0.00    +0.012 C 
ATOM     20  C   UNL     1       1.365   0.311   4.807  0.00  0.00    +0.007 C 
ATOM     21  C   UNL     1      -0.150   0.104   4.843  0.00  0.00    -0.010 C 
ATOM     22  C   UNL     1      -0.462  -1.392   4.771  0.00  0.00    +0.007 C 
ATOM     23  C   UNL     1      -0.791   0.816   3.651  0.00  0.00    +0.012 C 
ENDBRANCH  13  14
ENDBRANCH  10  13
ENDBRANCH   7  10
ENDBRANCH   1   7
BRANCH   4  24
ATOM     24  N   UNL     1      -2.369   2.726  -5.116  0.00  0.00    -0.297 N 
ATOM     25  H   UNL     1      -1.462   2.808  -5.450  0.00  0.00    +0.154 HD
BRANCH  24  26
ATOM     26  C   UNL     1      -3.410   2.786  -5.971  0.00  0.00    +0.141 C 
ATOM     27  S   UNL     1      -5.013   2.784  -5.369  0.00  0.00    -0.018 S 
BRANCH  26  28
ATOM     28  N   UNL     1      -3.189   2.848  -7.299  0.00  0.00    -0.261 N 
ATOM     29  C   UNL     1      -4.229   2.908  -8.153  0.00  0.00    +0.285 C 
ATOM     30  O   UNL     1      -5.368   2.906  -7.725  0.00  0.00    -0.266 OA
ATOM     31  H   UNL     1      -2.281   2.849  -7.640  0.00  0.00    +0.157 HD
BRANCH  29  32
ATOM     32  C   UNL     1      -3.989   2.975  -9.597  0.00  0.00    +0.189 A 
ATOM     33  C   UNL     1      -4.947   3.039 -10.568  0.00  0.00    +0.054 A 
ATOM     34  C   UNL     1      -4.273   3.088 -11.798  0.00  0.00    +0.042 A 
ATOM     35  C   UNL     1      -2.949   3.053 -11.527  0.00  0.00    +0.196 A 
ATOM     36  O   UNL     1      -2.782   2.990 -10.200  0.00  0.00    -0.458 OA
ENDBRANCH  29  32
ENDBRANCH  26  28
ENDBRANCH  24  26
ENDBRANCH   4  24
TORSDOF 8
