REMARK  Name = ZINC06239263
REMARK  9 active torsions:
REMARK  status: ('A' for Active; 'I' for Inactive)
REMARK    1  A    between atoms: C_1  and  O_2
REMARK    2  A    between atoms: O_2  and  C_3
REMARK    3  A    between atoms: C_5  and  C_13
REMARK    4  A    between atoms: C_7  and  O_11
REMARK    5  A    between atoms: C_8  and  O_9
REMARK    6  A    between atoms: O_9  and  C_10
REMARK    7  A    between atoms: O_11  and  C_12
REMARK    8  A    between atoms: C_13  and  C_15
REMARK    9  A    between atoms: C_15  and  C_26
REMARK                            x       y       z     vdW  Elec       q    Type
REMARK                         _______ _______ _______ _____ _____    ______ ____
ROOT
ATOM      1  C   UNL     1       2.435  -0.158   5.527  0.00  0.00    +0.135 C 
ATOM      2  C   UNL     1       2.924   0.653   6.563  0.00  0.00    +0.114 C 
ATOM      3  N   UNL     1       3.435   1.903   6.410  0.00  0.00    -0.300 N 
ATOM      4  C   UNL     1       3.811   2.377   7.663  0.00  0.00    +0.054 A 
ATOM      5  C   UNL     1       4.378   3.568   8.094  0.00  0.00    +0.026 A 
ATOM      6  C   UNL     1       4.645   3.757   9.435  0.00  0.00    +0.022 A 
ATOM      7  C   UNL     1       4.349   2.762  10.353  0.00  0.00    +0.043 A 
ATOM      8  C   UNL     1       3.785   1.573   9.934  0.00  0.00    +0.045 A 
ATOM      9  C   UNL     1       3.512   1.374   8.588  0.00  0.00    +0.055 A 
ATOM     10  N   UNL     1       2.956   0.315   7.879  0.00  0.00    -0.300 N 
ATOM     11 CL   UNL     1       4.690   3.011  12.037  0.00  0.00    -0.083 Cl
ATOM     12  H   UNL     1       3.523   2.383   5.571  0.00  0.00    +0.153 HD
ATOM     13  H   UNL     1       2.647  -0.523   8.258  0.00  0.00    +0.153 HD
ENDROOT
BRANCH   1  14
ATOM     14  C   UNL     1       2.456   0.311   4.191  0.00  0.00    +0.207 C 
ATOM     15  O   UNL     1       2.783   1.461   3.954  0.00  0.00    -0.286 OA
BRANCH  14  18
ATOM     16  C   UNL     1       1.107  -0.931   0.910  0.00  0.00    +0.166 A 
ATOM     17  C   UNL     1       1.457  -0.083   1.944  0.00  0.00    +0.061 A 
ATOM     18  C   UNL     1       2.081  -0.594   3.084  0.00  0.00    +0.030 A 
ATOM     19  C   UNL     1       2.350  -1.961   3.177  0.00  0.00    +0.061 A 
ATOM     20  C   UNL     1       1.998  -2.806   2.140  0.00  0.00    +0.166 A 
ATOM     21  C   UNL     1       1.371  -2.295   1.007  0.00  0.00    +0.204 A 
BRANCH  16  23
ATOM     22  C   UNL     1       0.259   0.974  -0.233  0.00  0.00    +0.277 C 
ATOM     23  O   UNL     1       0.500  -0.434  -0.201  0.00  0.00    -0.491 OA
ENDBRANCH  16  23
BRANCH  21  24
ATOM     24  O   UNL     1       1.022  -3.128  -0.008  0.00  0.00    -0.488 OA
ATOM     25  C   UNL     1       1.992  -3.343  -1.034  0.00  0.00    +0.277 C 
ENDBRANCH  21  24
BRANCH  20  26
ATOM     26  O   UNL     1       2.260  -4.137   2.230  0.00  0.00    -0.491 OA
ATOM     27  C   UNL     1       2.900  -4.594   3.424  0.00  0.00    +0.277 C 
ENDBRANCH  20  26
ENDBRANCH  14  18
ENDBRANCH   1  14
BRANCH   1  28
ATOM     28  C   UNL     1       1.914  -1.459   5.821  0.00  0.00    +0.106 C 
ATOM     29  N   UNL     1       1.502  -2.491   6.054  0.00  0.00    -0.191 NA
ENDBRANCH   1  28
TORSDOF 6
