REMARK  Name = ZINC58412087
REMARK  6 active torsions:
REMARK  status: ('A' for Active; 'I' for Inactive)
REMARK    1  A    between atoms: C_1  and  C_2
REMARK    2  A    between atoms: C_2  and  C_3
REMARK    3  A    between atoms: C_2  and  C_4
REMARK    4  A    between atoms: C_2  and  N_5
REMARK    5  A    between atoms: N_14  and  C_15
REMARK    6  A    between atoms: C_15  and  C_17
REMARK                            x       y       z     vdW  Elec       q    Type
REMARK                         _______ _______ _______ _____ _____    ______ ____
ROOT
ATOM      1  N   UNL     1       0.700  -0.476  -1.195  0.00  0.00    -0.306 N 
ATOM      2  C   UNL     1       0.908  -1.806  -1.546  0.00  0.00    +0.068 A 
ATOM      3  C   UNL     1       0.580  -3.009  -0.936  0.00  0.00    +0.028 A 
ATOM      4  C   UNL     1       0.927  -4.202  -1.537  0.00  0.00    +0.002 A 
ATOM      5  C   UNL     1       1.603  -4.204  -2.746  0.00  0.00    +0.002 A 
ATOM      6  C   UNL     1       1.935  -3.013  -3.360  0.00  0.00    +0.028 A 
ATOM      7  C   UNL     1       1.590  -1.808  -2.765  0.00  0.00    +0.066 A 
ATOM      8  N   UNL     1       1.781  -0.480  -3.129  0.00  0.00    -0.326 N 
ATOM      9  C   UNL     1       1.231   0.309  -2.170  0.00  0.00    +0.202 A 
ATOM     10  N   UNL     1       1.216   1.639  -2.180  0.00  0.00    -0.144 NA
ATOM     11  H   UNL     1       2.228  -0.170  -3.933  0.00  0.00    +0.169 HD
ENDROOT
BRANCH   1  13
ATOM     12  C   UNL     1      -0.005   1.527   0.018  0.00  0.00    +0.034 C 
ATOM     13  C   UNL     1       0.021  -0.003   0.013  0.00  0.00    +0.040 C 
ATOM     14  C   UNL     1       0.770  -0.505   1.249  0.00  0.00    +0.034 C 
ATOM     15  C   UNL     1      -1.413  -0.537   0.034  0.00  0.00    +0.034 C 
ENDBRANCH   1  13
BRANCH  10  16
ATOM     16  C   UNL     1       1.863   2.304  -3.133  0.00  0.00    +0.268 C 
ATOM     17  O   UNL     1       2.386   1.698  -4.048  0.00  0.00    -0.271 OA
BRANCH  16  18
ATOM     18  C   UNL     1       1.946   3.807  -3.080  0.00  0.00    +0.206 C 
ATOM     19  C   UNL     1       0.537   4.416  -3.240  0.00  0.00    +0.043 C 
ATOM     20  C   UNL     1       0.813   5.655  -4.136  0.00  0.00    +0.031 C 
ATOM     21  C   UNL     1       1.964   5.123  -5.026  0.00  0.00    +0.161 C 
ATOM     22  O   UNL     1       2.753   4.288  -4.162  0.00  0.00    -0.367 OA
ENDBRANCH  16  18
ENDBRANCH  10  16
TORSDOF 3
