REMARK  Name = ZINC12623940
REMARK  11 active torsions:
REMARK  status: ('A' for Active; 'I' for Inactive)
REMARK    1  A    between atoms: C_1  and  C_2
REMARK    2  A    between atoms: C_3  and  C_15
REMARK    3  A    between atoms: C_4  and  N_8
REMARK    4  A    between atoms: N_5  and  C_7
REMARK    5  A    between atoms: N_8  and  C_9
REMARK    6  A    between atoms: C_15  and  C_16
REMARK    7  A    between atoms: C_15  and  C_23
REMARK    8  A    between atoms: C_24  and  C_36
REMARK    9  A    between atoms: N_26  and  C_35
REMARK   10  A    between atoms: C_27  and  N_28
REMARK   11  A    between atoms: N_28  and  C_29
REMARK                            x       y       z     vdW  Elec       q    Type
REMARK                         _______ _______ _______ _____ _____    ______ ____
ROOT
ATOM      1  C   UNL     1       3.063   5.689  -0.635  0.00  0.00    +0.089 C 
ENDROOT
BRANCH   1   4
ATOM      2  C   UNL     1       0.983   7.169  -2.507  0.00  0.00    +0.068 C 
ATOM      3  C   UNL     1       1.352   7.574  -1.103  0.00  0.00    +0.066 A 
ATOM      4  C   UNL     1       2.270   6.919  -0.278  0.00  0.00    +0.027 A 
ATOM      5  C   UNL     1       2.325   7.594   0.903  0.00  0.00    +0.125 A 
ATOM      6  N   UNL     1       1.460   8.638   0.817  0.00  0.00    -0.253 N 
ATOM      7  N   UNL     1       0.864   8.596  -0.449  0.00  0.00    -0.175 NA
ATOM      8  C   UNL     1       1.199   9.630   1.863  0.00  0.00    +0.174 C 
BRANCH   5   9
ATOM      9  N   UNL     1       3.123   7.273   1.999  0.00  0.00    -0.299 N 
ATOM     10  H   UNL     1       3.035   6.406   2.425  0.00  0.00    +0.154 HD
BRANCH   9  11
ATOM     11  C   UNL     1       4.050   8.200   2.483  0.00  0.00    +0.032 A 
ATOM     12  C   UNL     1       4.276   9.384   1.794  0.00  0.00    +0.023 A 
ATOM     13  C   UNL     1       5.189  10.300   2.278  0.00  0.00    +0.002 A 
ATOM     14  C   UNL     1       5.886  10.034   3.443  0.00  0.00    +0.000 A 
ATOM     15  C   UNL     1       5.667   8.854   4.129  0.00  0.00    +0.002 A 
ATOM     16  C   UNL     1       4.751   7.936   3.653  0.00  0.00    +0.023 A 
ENDBRANCH   9  11
ENDBRANCH   5   9
ENDBRANCH   1   4
BRANCH   1  17
ATOM     17  C   UNL     1       2.275   4.847  -1.605  0.00  0.00    -0.033 A 
ATOM     18  C   UNL     1       2.887   4.344  -2.739  0.00  0.00    +0.005 A 
ATOM     19  C   UNL     1       2.165   3.571  -3.630  0.00  0.00    +0.003 A 
ATOM     20  C   UNL     1       0.830   3.304  -3.390  0.00  0.00    +0.038 A 
ATOM     21  C   UNL     1       0.219   3.803  -2.253  0.00  0.00    +0.124 A 
ATOM     22  C   UNL     1       0.942   4.577  -1.361  0.00  0.00    +0.043 A 
ATOM     23  F   UNL     1      -1.085   3.539  -2.015  0.00  0.00    -0.205 F 
ENDBRANCH   1  17
BRANCH   1  24
ATOM     24  C   UNL     1       3.341   4.890   0.613  0.00  0.00    +0.027 A 
ATOM     25  C   UNL     1       2.400   4.512   1.573  0.00  0.00    +0.066 A 
ATOM     26  N   UNL     1       3.012   3.829   2.506  0.00  0.00    -0.175 NA
ATOM     27  N   UNL     1       4.372   3.753   2.179  0.00  0.00    -0.253 N 
ATOM     28  C   UNL     1       4.554   4.414   1.007  0.00  0.00    +0.125 A 
ATOM     29  C   UNL     1       5.412   3.082   2.962  0.00  0.00    +0.174 C 
ATOM     30  C   UNL     1       0.928   4.833   1.539  0.00  0.00    +0.068 C 
BRANCH  28  31
ATOM     31  N   UNL     1       5.762   4.576   0.332  0.00  0.00    -0.299 N 
ATOM     32  H   UNL     1       5.867   4.223  -0.565  0.00  0.00    +0.154 HD
BRANCH  31  33
ATOM     33  C   UNL     1       6.821   5.248   0.947  0.00  0.00    +0.032 A 
ATOM     34  C   UNL     1       6.579   6.092   2.023  0.00  0.00    +0.023 A 
ATOM     35  C   UNL     1       7.629   6.752   2.631  0.00  0.00    +0.002 A 
ATOM     36  C   UNL     1       8.919   6.579   2.164  0.00  0.00    +0.000 A 
ATOM     37  C   UNL     1       9.163   5.743   1.090  0.00  0.00    +0.002 A 
ATOM     38  C   UNL     1       8.118   5.077   0.480  0.00  0.00    +0.023 A 
ENDBRANCH  31  33
ENDBRANCH  28  31
ENDBRANCH   1  24
TORSDOF 7
