REMARK  Name = ZINC42015695
REMARK  3 active torsions:
REMARK  status: ('A' for Active; 'I' for Inactive)
REMARK    1  A    between atoms: C_5  and  N_7
REMARK    2  A    between atoms: C_8  and  C_12
REMARK    3  A    between atoms: C_16  and  N_18
REMARK                            x       y       z     vdW  Elec       q    Type
REMARK                         _______ _______ _______ _____ _____    ______ ____
ROOT
ATOM      1  N   UNL     1       1.215  -2.096  -0.203  0.00  0.00    -0.190 N 
ATOM      2  C   UNL     1       0.171  -2.929   0.072  0.00  0.00    +0.187 A 
ATOM      3  N   UNL     1       0.671  -4.142   0.196  0.00  0.00    -0.108 NA
ATOM      4  N   UNL     1       1.942  -4.124   0.020  0.00  0.00    -0.022 NA
ATOM      5  N   UNL     1       2.349  -2.928  -0.232  0.00  0.00    -0.039 NA
ENDROOT
BRANCH   1  10
ATOM      6  C   UNL     1       0.312   1.177  -1.621  0.00  0.00    +0.002 A 
ATOM      7  C   UNL     1       1.075   2.023  -0.838  0.00  0.00    +0.003 A 
ATOM      8  C   UNL     1       1.885   1.507   0.157  0.00  0.00    +0.040 A 
ATOM      9  C   UNL     1       1.935   0.141   0.371  0.00  0.00    +0.149 A 
ATOM     10  C   UNL     1       1.168  -0.711  -0.416  0.00  0.00    +0.104 A 
ATOM     11  C   UNL     1       0.356  -0.188  -1.412  0.00  0.00    +0.031 A 
ATOM     12  F   UNL     1       2.727  -0.363   1.342  0.00  0.00    -0.203 F 
ENDBRANCH   1  10
BRANCH   2  13
ATOM     13  C   UNL     1      -1.252  -2.545   0.206  0.00  0.00    +0.023 A 
ATOM     14  C   UNL     1      -1.597  -1.215   0.449  0.00  0.00    +0.013 A 
ATOM     15  C   UNL     1      -2.924  -0.858   0.574  0.00  0.00    +0.018 A 
ATOM     16  C   UNL     1      -3.916  -1.815   0.459  0.00  0.00    +0.039 A 
ATOM     17  C   UNL     1      -3.581  -3.143   0.216  0.00  0.00    +0.039 A 
ATOM     18  C   UNL     1      -2.251  -3.509   0.083  0.00  0.00    +0.035 A 
ATOM     19 BR   UNL     1      -5.732  -1.317   0.632  0.00  0.00    -0.048 Br
BRANCH  17  20
ATOM     20  N   UNL     1      -4.587  -4.107   0.101  0.00  0.00    -0.357 N 
ATOM     21  H   UNL     1      -5.518  -3.850   0.190  0.00  0.00    +0.142 HD
ATOM     22  H   UNL     1      -4.353  -5.034  -0.069  0.00  0.00    +0.142 HD
ENDBRANCH  17  20
ENDBRANCH   2  13
TORSDOF 3
