REMARK  Name = ZINC20744782
REMARK  6 active torsions:
REMARK  status: ('A' for Active; 'I' for Inactive)
REMARK    1  A    between atoms: C_1  and  C_2
REMARK    2  A    between atoms: C_8  and  C_12
REMARK    3  A    between atoms: C_12  and  C_14
REMARK    4  A    between atoms: C_12  and  N_17
REMARK    5  A    between atoms: N_20  and  C_23
REMARK    6  A    between atoms: C_23  and  C_24
REMARK                            x       y       z     vdW  Elec       q    Type
REMARK                         _______ _______ _______ _____ _____    ______ ____
ROOT
ATOM      1  C   UNL     1      -2.545   1.335   0.020  0.00  0.00    +0.080 C 
ENDROOT
BRANCH   1   9
ATOM      2  C   UNL     1      -1.368   6.941   0.051  0.00  0.00    +0.044 C 
ATOM      3  C   UNL     1      -0.644   5.620   0.038  0.00  0.00    -0.050 A 
ATOM      4  C   UNL     1       0.744   5.595   0.024  0.00  0.00    +0.005 A 
ATOM      5  C   UNL     1       1.426   4.399   0.012  0.00  0.00    +0.026 A 
ATOM      6  C   UNL     1       0.719   3.200   0.012  0.00  0.00    +0.047 A 
ATOM      7  C   UNL     1      -0.687   3.230   0.026  0.00  0.00    +0.002 A 
ATOM      8  C   UNL     1      -1.358   4.455   0.039  0.00  0.00    +0.013 A 
ATOM      9  C   UNL     1      -1.122   1.831   0.017  0.00  0.00    -0.025 A 
ATOM     10  C   UNL     1      -0.013   1.076   0.008  0.00  0.00    +0.086 A 
ATOM     11  N   UNL     1       1.097   1.877   0.002  0.00  0.00    -0.360 N 
ATOM     12  H   UNL     1       2.164   1.609  -0.010  0.00  0.00    +0.165 HD
ENDBRANCH   1   9
BRANCH   1  13
ATOM     13  N   UNL     1      -2.580  -0.053  -0.461  0.00  0.00    +0.393 N 
ATOM     14  C   UNL     1      -1.968  -0.164  -1.793  0.00  0.00    -0.062 C 
ATOM     15  C   UNL     1      -1.952  -1.633  -2.223  0.00  0.00    +0.066 C 
ATOM     16  N   UNL     1      -3.327  -2.152  -2.233  0.00  0.00    -0.302 NA
ATOM     17  C   UNL     1      -3.940  -2.040  -0.902  0.00  0.00    +0.066 C 
ATOM     18  C   UNL     1      -3.955  -0.572  -0.472  0.00  0.00    -0.062 C 
ATOM     19  H   UNL     1      -1.991  -0.666   0.236  0.00  0.00    -0.080 HD
BRANCH  16  20
ATOM     20  C   UNL     1      -3.362  -3.540  -2.715  0.00  0.00    +0.121 C 
BRANCH  20  21
ATOM     21  C   UNL     1      -2.957  -3.579  -4.165  0.00  0.00    -0.015 A 
ATOM     22  C   UNL     1      -3.911  -3.462  -5.165  0.00  0.00    +0.008 A 
ATOM     23  C   UNL     1      -3.491  -3.498  -6.485  0.00  0.00    +0.020 A 
ATOM     24  C   UNL     1      -2.146  -3.660  -6.760  0.00  0.00    +0.111 A 
ATOM     25  N   UNL     1      -1.267  -3.773  -5.784  0.00  0.00    -0.263 NA
ATOM     26  C   UNL     1      -1.630  -3.738  -4.516  0.00  0.00    +0.115 A 
ENDBRANCH  20  21
ENDBRANCH  16  20
ENDBRANCH   1  13
BRANCH   1  27
ATOM     27  C   UNL     1      -3.095   1.395   1.421  0.00  0.00    +0.347 C 
ATOM     28  O   UNL     1      -3.477   0.385   1.964  0.00  0.00    -0.248 OA
ATOM     29  O   UNL     1      -3.160   2.570   2.067  0.00  0.00    -0.248 OA
ENDBRANCH   1  27
TORSDOF 5
