REMARK  Name = ZINC36571194
REMARK  13 active torsions:
REMARK  status: ('A' for Active; 'I' for Inactive)
REMARK    1  A    between atoms: C_1  and  C_2
REMARK    2  A    between atoms: C_2  and  C_3
REMARK    3  A    between atoms: C_3  and  N_4
REMARK    4  A    between atoms: N_4  and  C_5
REMARK    5  A    between atoms: C_5  and  C_7
REMARK    6  A    between atoms: C_5  and  C_13
REMARK    7  A    between atoms: N_15  and  C_16
REMARK    8  A    between atoms: C_16  and  S_17
REMARK    9  A    between atoms: S_17  and  C_20
REMARK   10  A    between atoms: C_23  and  C_26
REMARK   11  A    between atoms: C_27  and  C_29
REMARK   12  A    between atoms: C_33  and  O_36
REMARK   13  A    between atoms: C_34  and  O_35
REMARK                            x       y       z     vdW  Elec       q    Type
REMARK                         _______ _______ _______ _____ _____    ______ ____
ROOT
ATOM      1  C   UNL     1      -1.748  -2.968   1.549  0.00  0.00    +0.165 C 
ENDROOT
BRANCH   1   2
ATOM      2  C   UNL     1      -0.692  -2.344   2.464  0.00  0.00    +0.018 C 
ATOM      3  C   UNL     1       0.684  -2.455   1.804  0.00  0.00    +0.006 C 
ATOM      4  C   UNL     1       1.740  -1.831   2.719  0.00  0.00    +0.000 C 
ATOM      5  C   UNL     1       1.755  -2.570   4.059  0.00  0.00    +0.000 C 
ATOM      6  C   UNL     1       0.379  -2.458   4.718  0.00  0.00    +0.000 C 
ATOM      7  C   UNL     1      -0.677  -3.083   3.803  0.00  0.00    +0.006 C 
ENDBRANCH   1   2
BRANCH   1   8
ATOM      8  C   UNL     1      -3.094  -2.909   2.223  0.00  0.00    +0.235 C 
ATOM      9  O   UNL     1      -3.906  -2.075   1.883  0.00  0.00    -0.274 OA
ATOM     10  N   UNL     1      -3.397  -3.784   3.202  0.00  0.00    -0.295 N 
ATOM     11  H   UNL     1      -2.724  -4.405   3.522  0.00  0.00    +0.150 HD
BRANCH  10  12
ATOM     12  C   UNL     1      -4.742  -3.799   3.782  0.00  0.00    +0.278 C 
BRANCH  12  13
ATOM     13  S   UNL     1      -5.749  -5.053   2.944  0.00  0.00    +0.013 S 
ATOM     14  O   UNL     1      -7.038  -5.123   3.538  0.00  0.00    -0.168 OA
ATOM     15  O   UNL     1      -5.606  -4.934   1.535  0.00  0.00    -0.168 OA
BRANCH  13  16
ATOM     16  C   UNL     1      -4.985  -6.589   3.345  0.00  0.00    +0.090 A 
ATOM     17  C   UNL     1      -3.987  -7.098   2.535  0.00  0.00    +0.027 A 
ATOM     18  C   UNL     1      -3.388  -8.303   2.849  0.00  0.00    +0.005 A 
ATOM     19  C   UNL     1      -3.786  -9.000   3.975  0.00  0.00    -0.050 A 
ATOM     20  C   UNL     1      -4.783  -8.491   4.786  0.00  0.00    +0.005 A 
ATOM     21  C   UNL     1      -5.380  -7.283   4.474  0.00  0.00    +0.027 A 
ATOM     22  C   UNL     1      -3.134 -10.314   4.318  0.00  0.00    +0.044 C 
ENDBRANCH  13  16
ENDBRANCH  12  13
ENDBRANCH  10  12
ENDBRANCH   1   8
BRANCH   1  23
ATOM     23  N   UNL     1      -1.800  -2.226   0.287  0.00  0.00    -0.286 N 
ATOM     24  C   UNL     1      -1.543  -2.856  -0.877  0.00  0.00    +0.251 C 
ATOM     25  O   UNL     1      -1.490  -2.221  -1.913  0.00  0.00    -0.270 OA
BRANCH  24  26
ATOM     26  C   UNL     1      -1.325  -4.315  -0.893  0.00  0.00    +0.082 A 
ATOM     27  C   UNL     1      -2.270  -5.173  -0.321  0.00  0.00    +0.017 A 
ATOM     28  C   UNL     1      -2.063  -6.534  -0.339  0.00  0.00    +0.005 A 
ATOM     29  C   UNL     1      -0.922  -7.062  -0.921  0.00  0.00    +0.049 A 
ATOM     30  C   UNL     1       0.022  -6.226  -1.491  0.00  0.00    +0.159 A 
ATOM     31  C   UNL     1      -0.175  -4.848  -1.486  0.00  0.00    +0.171 A 
BRANCH  31  32
ATOM     32  O   UNL     1       0.746  -4.025  -2.050  0.00  0.00    -0.503 OA
ATOM     33  H   UNL     1       1.437  -3.732  -1.440  0.00  0.00    +0.292 HD
ENDBRANCH  31  32
BRANCH  30  34
ATOM     34  O   UNL     1       1.140  -6.750  -2.061  0.00  0.00    -0.503 OA
ATOM     35  H   UNL     1       1.044  -6.956  -3.001  0.00  0.00    +0.292 HD
ENDBRANCH  30  34
ENDBRANCH  24  26
BRANCH  23  36
ATOM     36  C   UNL     1      -2.133  -0.799   0.289  0.00  0.00    +0.108 C 
BRANCH  36  38
ATOM     37  C   UNL     1      -1.192   1.515   0.264  0.00  0.00    +0.005 C 
ATOM     38  C   UNL     1      -0.845   0.025   0.262  0.00  0.00    +0.016 C 
ENDBRANCH  36  38
ENDBRANCH  23  36
ENDBRANCH   1  23
TORSDOF 11
