REMARK  Name = ZINC13136897
REMARK  12 active torsions:
REMARK  status: ('A' for Active; 'I' for Inactive)
REMARK    1  A    between atoms: C_1  and  S_2
REMARK    2  A    between atoms: S_2  and  C_3
REMARK    3  A    between atoms: C_3  and  C_4
REMARK    4  A    between atoms: C_4  and  C_5
REMARK    5  A    between atoms: C_5  and  C_7
REMARK    6  A    between atoms: C_5  and  N_24
REMARK    7  A    between atoms: C_7  and  O_9
REMARK    8  A    between atoms: O_9  and  C_10
REMARK    9  A    between atoms: C_10  and  C_11
REMARK   10  A    between atoms: N_13  and  C_14
REMARK   11  A    between atoms: N_24  and  S_25
REMARK   12  A    between atoms: S_25  and  C_28
REMARK                            x       y       z     vdW  Elec       q    Type
REMARK                         _______ _______ _______ _____ _____    ______ ____
ROOT
ATOM      1  C   UNL     1      -3.418  -3.698   0.619  0.00  0.00    +0.326 C 
ATOM      2  O   UNL     1      -4.074  -4.414  -0.101  0.00  0.00    -0.249 OA
ENDROOT
BRANCH   1   3
ATOM      3  C   UNL     1      -3.246  -2.240   0.277  0.00  0.00    +0.186 C 
BRANCH   3   4
ATOM      4  N   UNL     1      -3.965  -1.941  -0.964  0.00  0.00    -0.176 NA
ATOM      5  H   UNL     1      -3.542  -2.103  -1.821  0.00  0.00    +0.149 HD
BRANCH   4   6
ATOM      6  S   UNL     1      -5.502  -1.326  -0.902  0.00  0.00    +0.059 S 
ATOM      7  O   UNL     1      -5.900  -1.094  -2.246  0.00  0.00    -0.153 OA
ATOM      8  O   UNL     1      -6.239  -2.164  -0.023  0.00  0.00    -0.153 OA
BRANCH   6   9
ATOM      9  C   UNL     1      -5.400   0.253  -0.127  0.00  0.00    +0.105 A 
ATOM     10  C   UNL     1      -5.442   0.350   1.251  0.00  0.00    +0.030 A 
ATOM     11  C   UNL     1      -5.363   1.589   1.859  0.00  0.00    +0.022 A 
ATOM     12  C   UNL     1      -5.241   2.731   1.089  0.00  0.00    +0.041 A 
ATOM     13  C   UNL     1      -5.199   2.633  -0.291  0.00  0.00    +0.022 A 
ATOM     14  C   UNL     1      -5.273   1.394  -0.898  0.00  0.00    +0.030 A 
ATOM     15 CL   UNL     1      -5.141   4.287   1.852  0.00  0.00    -0.084 Cl
ENDBRANCH   6   9
ENDBRANCH   4   6
ENDBRANCH   3   4
BRANCH   3  16
ATOM     16  C   UNL     1      -1.759  -1.932   0.092  0.00  0.00    +0.042 C 
BRANCH  16  17
ATOM     17  C   UNL     1      -1.572  -0.428  -0.118  0.00  0.00    +0.071 C 
BRANCH  17  19
ATOM     18  C   UNL     1       0.252   1.733  -0.541  0.00  0.00    +0.084 C 
ATOM     19  S   UNL     1       0.172  -0.078  -0.471  0.00  0.00    -0.164 S 
ENDBRANCH  17  19
ENDBRANCH  16  17
ENDBRANCH   3  16
ENDBRANCH   1   3
BRANCH   1  20
ATOM     20  O   UNL     1      -2.842  -4.202   1.722  0.00  0.00    -0.454 OA
BRANCH  20  21
ATOM     21  C   UNL     1      -3.047  -5.591   1.984  0.00  0.00    +0.327 C 
BRANCH  21  22
ATOM     22  C   UNL     1      -2.331  -5.974   3.254  0.00  0.00    +0.251 C 
ATOM     23  O   UNL     1      -1.707  -5.138   3.873  0.00  0.00    -0.272 OA
ATOM     24  N   UNL     1      -2.384  -7.244   3.701  0.00  0.00    -0.307 N 
ATOM     25  H   UNL     1      -2.883  -7.912   3.205  0.00  0.00    +0.149 HD
BRANCH  24  26
ATOM     26  C   UNL     1      -1.689  -7.616   4.935  0.00  0.00    +0.035 C 
ATOM     27  C   UNL     1      -0.192  -7.341   4.780  0.00  0.00    +0.029 C 
ATOM     28  C   UNL     1       0.535  -7.730   6.069  0.00  0.00    -0.008 C 
ATOM     29  C   UNL     1       0.316  -9.218   6.349  0.00  0.00    +0.007 C 
ATOM     30  C   UNL     1      -1.181  -9.492   6.505  0.00  0.00    -0.008 C 
ATOM     31  C   UNL     1      -1.908  -9.104   5.216  0.00  0.00    +0.029 C 
ATOM     32  C   UNL     1      -1.733  -8.667   7.670  0.00  0.00    +0.007 C 
ATOM     33  C   UNL     1      -1.514  -7.179   7.389  0.00  0.00    -0.008 C 
ATOM     34  C   UNL     1      -0.017  -6.905   7.233  0.00  0.00    +0.007 C 
ATOM     35  C   UNL     1      -2.240  -6.791   6.100  0.00  0.00    +0.029 C 
ENDBRANCH  24  26
ENDBRANCH  21  22
ENDBRANCH  20  21
ENDBRANCH   1  20
TORSDOF 11
