REMARK  Name = ZINC04776997
REMARK  4 active torsions:
REMARK  status: ('A' for Active; 'I' for Inactive)
REMARK    1  A    between atoms: C_1  and  C_2
REMARK    2  A    between atoms: C_6  and  C_7
REMARK    3  A    between atoms: C_20  and  S_22
REMARK    4  A    between atoms: S_22  and  C_23
REMARK                            x       y       z     vdW  Elec       q    Type
REMARK                         _______ _______ _______ _____ _____    ______ ____
ROOT
ATOM      1  C   UNL     1       0.030  -0.179   2.581  0.00  0.00    +0.182 C 
ATOM      2  C   UNL     1       1.282  -0.655   3.284  0.00  0.00    +0.041 C 
ATOM      3  C   UNL     1       1.254  -1.627   4.220  0.00  0.00    +0.020 C 
ATOM      4  C   UNL     1       2.520  -2.081   4.907  0.00  0.00    +0.052 C 
ATOM      5  C   UNL     1       3.707  -1.925   3.954  0.00  0.00    +0.014 C 
ATOM      6  C   UNL     1       3.800  -0.453   3.537  0.00  0.00    +0.080 C 
ATOM      7  C   UNL     1       2.493  -0.038   2.921  0.00  0.00    +0.163 C 
ATOM      8  O   UNL     1       2.482   0.849   2.090  0.00  0.00    -0.292 OA
ATOM      9  N   UNL     1       0.081  -2.239   4.593  0.00  0.00    -0.287 N 
ATOM     10  C   UNL     1      -1.112  -1.641   4.222  0.00  0.00    +0.219 A 
ATOM     11  N   UNL     1      -1.151  -0.668   3.282  0.00  0.00    -0.219 N 
ATOM     12  N   UNL     1      -2.486  -0.288   3.161  0.00  0.00    -0.141 NA
ATOM     13  C   UNL     1      -3.170  -1.032   4.004  0.00  0.00    +0.210 A 
ATOM     14  N   UNL     1      -2.330  -1.849   4.643  0.00  0.00    -0.187 NA
ATOM     15  H   UNL     1       0.088  -3.066   5.100  0.00  0.00    +0.155 HD
ENDROOT
BRANCH   1  21
ATOM     16  C   UNL     1      -0.018   1.503   0.010  0.00  0.00    +0.044 C 
ATOM     17  C   UNL     1       0.002  -0.004   0.002  0.00  0.00    -0.038 A 
ATOM     18  C   UNL     1       0.006  -0.699  -1.193  0.00  0.00    +0.011 A 
ATOM     19  C   UNL     1       0.024  -2.054  -1.165  0.00  0.00    +0.046 A 
ATOM     20  S   UNL     1       0.037  -2.387   0.589  0.00  0.00    -0.099 S 
ATOM     21  C   UNL     1       0.023  -0.698   1.166  0.00  0.00    +0.022 A 
ENDBRANCH   1  21
BRANCH  13  22
ATOM     22  S   UNL     1      -4.913  -0.960   4.252  0.00  0.00    -0.088 S 
ATOM     23  C   UNL     1      -5.228  -2.215   5.523  0.00  0.00    +0.093 C 
ENDBRANCH  13  22
TORSDOF 2
