REMARK  Name = ZINC09559535
REMARK  10 active torsions:
REMARK  status: ('A' for Active; 'I' for Inactive)
REMARK    1  A    between atoms: C_1  and  N_2
REMARK    2  A    between atoms: N_2  and  C_3
REMARK    3  A    between atoms: N_2  and  S_19
REMARK    4  A    between atoms: C_3  and  C_4
REMARK    5  A    between atoms: N_6  and  C_7
REMARK    6  A    between atoms: C_7  and  C_8
REMARK    7  A    between atoms: C_8  and  C_9
REMARK    8  A    between atoms: C_12  and  S_15
REMARK    9  A    between atoms: S_15  and  N_18
REMARK   10  A    between atoms: S_19  and  C_22
REMARK                            x       y       z     vdW  Elec       q    Type
REMARK                         _______ _______ _______ _____ _____    ______ ____
ROOT
ATOM      1  C   UNL     1      -1.384  -0.909   1.776  0.00  0.00    +0.229 C 
ATOM      2  O   UNL     1      -2.315  -0.455   1.145  0.00  0.00    -0.274 OA
ATOM      3  N   UNL     1      -1.610  -1.563   2.933  0.00  0.00    -0.314 N 
ATOM      4  H   UNL     1      -0.866  -1.926   3.438  0.00  0.00    +0.149 HD
ENDROOT
BRANCH   1   5
ATOM      5  C   UNL     1       0.024  -0.743   1.267  0.00  0.00    +0.204 C 
BRANCH   5   7
ATOM      6  C   UNL     1      -0.018   1.461   0.010  0.00  0.00    +0.132 C 
ATOM      7  N   UNL     1       0.002  -0.004   0.002  0.00  0.00    -0.170 NA
BRANCH   7   8
ATOM      8  S   UNL     1      -0.000  -0.824  -1.437  0.00  0.00    +0.067 S 
ATOM      9  O   UNL     1      -0.531  -2.115  -1.167  0.00  0.00    -0.152 OA
ATOM     10  O   UNL     1      -0.572   0.049  -2.401  0.00  0.00    -0.152 OA
BRANCH   8  11
ATOM     11  C   UNL     1       1.682  -1.059  -1.905  0.00  0.00    +0.144 A 
ATOM     12  C   UNL     1       2.512  -2.090  -1.615  0.00  0.00    +0.037 A 
ATOM     13  C   UNL     1       3.808  -2.063  -2.095  0.00  0.00    +0.025 A 
ATOM     14  C   UNL     1       4.210  -1.004  -2.842  0.00  0.00    +0.057 A 
ATOM     15  S   UNL     1       2.732  -0.005  -2.891  0.00  0.00    -0.062 S 
ATOM     16 BR   UNL     1       5.897  -0.676  -3.632  0.00  0.00    -0.043 Br
ENDBRANCH   8  11
ENDBRANCH   7   8
ENDBRANCH   5   7
ENDBRANCH   1   5
BRANCH   3  17
ATOM     17  C   UNL     1      -2.979  -1.724   3.429  0.00  0.00    +0.109 C 
BRANCH  17  18
ATOM     18  C   UNL     1      -2.956  -2.496   4.749  0.00  0.00    +0.054 C 
BRANCH  18  19
ATOM     19  C   UNL     1      -4.365  -2.662   5.259  0.00  0.00    -0.046 A 
ATOM     20  C   UNL     1      -4.917  -1.704   6.089  0.00  0.00    +0.005 A 
ATOM     21  C   UNL     1      -6.209  -1.856   6.556  0.00  0.00    +0.029 A 
ATOM     22  C   UNL     1      -6.949  -2.966   6.193  0.00  0.00    +0.105 A 
ATOM     23  C   UNL     1      -6.397  -3.923   5.362  0.00  0.00    +0.029 A 
ATOM     24  C   UNL     1      -5.107  -3.769   4.891  0.00  0.00    +0.005 A 
BRANCH  22  25
ATOM     25  S   UNL     1      -8.595  -3.160   6.790  0.00  0.00    +0.056 S 
ATOM     26  O   UNL     1      -8.882  -4.551   6.746  0.00  0.00    -0.153 OA
ATOM     27  O   UNL     1      -8.685  -2.402   7.988  0.00  0.00    -0.153 OA
BRANCH  25  28
ATOM     28  N   UNL     1      -9.602  -2.435   5.694  0.00  0.00    -0.204 NA
ATOM     29  H   UNL     1     -10.505  -2.767   5.570  0.00  0.00    +0.144 HD
ATOM     30  H   UNL     1      -9.289  -1.677   5.175  0.00  0.00    +0.144 HD
ENDBRANCH  25  28
ENDBRANCH  22  25
ENDBRANCH  18  19
ENDBRANCH  17  18
ENDBRANCH   3  17
TORSDOF 9
