REMARK  Name = ZINC67380759
REMARK  4 active torsions:
REMARK  status: ('A' for Active; 'I' for Inactive)
REMARK    1  A    between atoms: C_1  and  C_2
REMARK    2  A    between atoms: C_3  and  C_7
REMARK    3  A    between atoms: N_9  and  C_10
REMARK    4  A    between atoms: N_18  and  C_19
REMARK                            x       y       z     vdW  Elec       q    Type
REMARK                         _______ _______ _______ _____ _____    ______ ____
ROOT
ATOM      1  C   UNL     1      -4.894  -0.912   0.015  0.00  0.00    +0.076 C 
ATOM      2  C   UNL     1      -5.339  -0.658   1.457  0.00  0.00    +0.041 C 
ATOM      3  C   UNL     1      -6.802  -0.203   1.462  0.00  0.00    +0.111 C 
ATOM      4  N   UNL     1      -7.610  -1.200   0.748  0.00  0.00    -0.286 N 
ATOM      5  C   UNL     1      -7.216  -1.586  -0.614  0.00  0.00    +0.111 C 
ATOM      6  C   UNL     1      -5.748  -2.025  -0.596  0.00  0.00    +0.041 C 
ATOM      7  C   UNL     1      -8.693  -1.752   1.331  0.00  0.00    +0.303 C 
ATOM      8  O   UNL     1      -8.955  -1.497   2.491  0.00  0.00    -0.253 OA
ATOM      9  N   UNL     1      -9.485  -2.586   0.629  0.00  0.00    -0.292 N 
ATOM     10  H   UNL     1      -9.236  -2.850  -0.270  0.00  0.00    +0.151 HD
ENDROOT
BRANCH   9  11
ATOM     11  C   UNL     1     -10.724  -3.094   1.224  0.00  0.00    +0.105 C 
ATOM     12  C   UNL     1     -11.088  -4.425   0.570  0.00  0.00    +0.027 C 
ATOM     13  C   UNL     1     -12.488  -4.831   1.044  0.00  0.00    +0.007 C 
ATOM     14  C   UNL     1     -13.504  -3.877   0.417  0.00  0.00    +0.035 C 
ATOM     15  C   UNL     1     -13.101  -2.445   0.652  0.00  0.00    -0.042 A 
ATOM     16  C   UNL     1     -11.824  -2.085   1.018  0.00  0.00    -0.024 A 
ATOM     17  C   UNL     1     -11.517  -0.745   1.213  0.00  0.00    +0.006 A 
ATOM     18  C   UNL     1     -12.482   0.227   1.045  0.00  0.00    +0.000 A 
ATOM     19  C   UNL     1     -13.765  -0.136   0.681  0.00  0.00    +0.000 A 
ATOM     20  C   UNL     1     -14.071  -1.465   0.487  0.00  0.00    +0.004 A 
ENDBRANCH   9  11
BRANCH   1  23
ATOM     21  C   UNL     1      -2.516  -0.379   0.002  0.00  0.00    +0.248 C 
ATOM     22  O   UNL     1      -2.811   0.801   0.011  0.00  0.00    -0.270 OA
ATOM     23  N   UNL     1      -3.486  -1.316   0.003  0.00  0.00    -0.308 N 
ATOM     24  H   UNL     1      -3.251  -2.257  -0.004  0.00  0.00    +0.149 HD
BRANCH  21  27
ATOM     25  C   UNL     1      -0.034   1.539  -0.004  0.00  0.00    +0.087 C 
ATOM     26  C   UNL     1      -0.007   0.032  -0.012  0.00  0.00    +0.114 A 
ATOM     27  C   UNL     1      -1.100  -0.785  -0.010  0.00  0.00    +0.077 A 
ATOM     28  C   UNL     1      -0.568  -2.156  -0.021  0.00  0.00    +0.054 A 
ATOM     29  C   UNL     1       0.768  -2.033  -0.029  0.00  0.00    +0.196 A 
ATOM     30  O   UNL     1       1.090  -0.730  -0.029  0.00  0.00    -0.467 OA
ENDBRANCH  21  27
ENDBRANCH   1  23
TORSDOF 3
