REMARK  Name = ZINC41033568
REMARK  3 active torsions:
REMARK  status: ('A' for Active; 'I' for Inactive)
REMARK    1  A    between atoms: C_1  and  C_2
REMARK    2  A    between atoms: N_10  and  C_14
REMARK    3  A    between atoms: C_17  and  C_20
REMARK                            x       y       z     vdW  Elec       q    Type
REMARK                         _______ _______ _______ _____ _____    ______ ____
ROOT
ATOM      1  C   UNL     1      -0.019   1.526  -0.000  0.00  0.00    +0.007 C 
ATOM      2  C   UNL     1       0.002  -0.004  -0.019  0.00  0.00    -0.014 C 
ATOM      3  C   UNL     1       0.739  -0.488  -1.269  0.00  0.00    +0.006 C 
ATOM      4  C   UNL     1       0.750  -2.019  -1.292  0.00  0.00    +0.035 C 
ATOM      5  C   UNL     1       1.442  -2.543  -0.039  0.00  0.00    +0.113 C 
ATOM      6  C   UNL     1       0.730  -2.050   1.216  0.00  0.00    +0.035 C 
ATOM      7  C   UNL     1       0.720  -0.519   1.230  0.00  0.00    +0.006 C 
ATOM      8  C   UNL     1       1.495  -4.053  -0.057  0.00  0.00    +0.251 C 
ATOM      9  O   UNL     1       0.556  -4.820  -0.073  0.00  0.00    -0.272 OA
ATOM     10  N   UNL     1       2.807  -4.367  -0.051  0.00  0.00    -0.192 N 
ATOM     11  C   UNL     1       3.576  -3.272  -0.031  0.00  0.00    +0.314 C 
ATOM     12  O   UNL     1       4.791  -3.300  -0.022  0.00  0.00    -0.252 OA
ATOM     13  N   UNL     1       2.853  -2.136  -0.023  0.00  0.00    -0.285 N 
ATOM     14  H   UNL     1       3.196  -1.229  -0.010  0.00  0.00    +0.151 HD
ENDROOT
BRANCH  10  15
ATOM     15  C   UNL     1       3.302  -5.676  -0.062  0.00  0.00    +0.046 A 
ATOM     16  C   UNL     1       4.670  -5.899  -0.177  0.00  0.00    +0.025 A 
ATOM     17  C   UNL     1       5.161  -7.186  -0.188  0.00  0.00    +0.021 A 
ATOM     18  C   UNL     1       4.282  -8.268  -0.085  0.00  0.00    +0.052 A 
ATOM     19  C   UNL     1       2.908  -8.039   0.031  0.00  0.00    +0.021 A 
ATOM     20  C   UNL     1       2.425  -6.750   0.047  0.00  0.00    +0.025 A 
BRANCH  18  21
ATOM     21  C   UNL     1       4.789  -9.607  -0.097  0.00  0.00    +0.099 C 
ATOM     22  N   UNL     1       5.191 -10.669  -0.106  0.00  0.00    -0.191 NA
ENDBRANCH  18  21
ENDBRANCH  10  15
TORSDOF 2
