REMARK  Name = ZINC09249955
REMARK  5 active torsions:
REMARK  status: ('A' for Active; 'I' for Inactive)
REMARK    1  A    between atoms: C_1  and  N_2
REMARK    2  A    between atoms: C_8  and  S_9
REMARK    3  A    between atoms: S_9  and  C_10
REMARK    4  A    between atoms: C_10  and  C_11
REMARK    5  A    between atoms: C_18  and  C_24
REMARK                            x       y       z     vdW  Elec       q    Type
REMARK                         _______ _______ _______ _____ _____    ______ ____
ROOT
ATOM      1  C   UNL     1       3.481   3.235   0.766  0.00  0.00    +0.152 C 
ATOM      2  N   UNL     1       2.274   3.962   0.363  0.00  0.00    -0.311 N 
ATOM      3  C   UNL     1       1.150   3.271  -0.004  0.00  0.00    +0.116 A 
ATOM      4  C   UNL     1       0.038   3.963  -0.373  0.00  0.00    +0.065 A 
ATOM      5  C   UNL     1       0.074   5.373  -0.369  0.00  0.00    +0.279 A 
ATOM      6  O   UNL     1      -0.913   6.015  -0.696  0.00  0.00    -0.265 OA
ATOM      7  N   UNL     1       1.201   6.004  -0.001  0.00  0.00    -0.185 NA
ATOM      8  C   UNL     1       2.271   5.324   0.355  0.00  0.00    +0.174 A 
ATOM      9  C   UNL     1      -1.212   3.232  -0.782  0.00  0.00    +0.066 C 
ATOM     10  C   UNL     1      -1.332   1.938   0.019  0.00  0.00    +0.109 C 
ATOM     11  C   UNL     1      -0.014   1.208   0.009  0.00  0.00    +0.219 C 
ATOM     12  O   UNL     1       0.002  -0.004   0.002  0.00  0.00    -0.275 OA
ATOM     13  N   UNL     1       1.145   1.892   0.001  0.00  0.00    -0.271 N 
ATOM     14  H   UNL     1       1.986   1.409  -0.000  0.00  0.00    +0.156 HD
ENDROOT
BRANCH   9  15
ATOM     15  C   UNL     1      -1.144   2.905  -2.252  0.00  0.00    -0.036 A 
ATOM     16  C   UNL     1      -0.117   2.117  -2.736  0.00  0.00    +0.008 A 
ATOM     17  C   UNL     1      -0.053   1.811  -4.083  0.00  0.00    +0.050 A 
ATOM     18  C   UNL     1      -1.015   2.303  -4.953  0.00  0.00    +0.162 A 
ATOM     19  C   UNL     1      -2.047   3.096  -4.466  0.00  0.00    +0.162 A 
ATOM     20  C   UNL     1      -2.106   3.397  -3.113  0.00  0.00    +0.053 A 
ATOM     21  O   UNL     1      -3.006   3.582  -5.301  0.00  0.00    -0.485 OA
ATOM     22  C   UNL     1      -2.706   3.571  -6.701  0.00  0.00    +0.270 C 
ATOM     23  C   UNL     1      -2.119   2.198  -7.056  0.00  0.00    +0.270 C 
ATOM     24  O   UNL     1      -0.933   2.002  -6.278  0.00  0.00    -0.485 OA
ENDBRANCH   9  15
BRANCH   8  25
ATOM     25  S   UNL     1       3.728   6.194   0.831  0.00  0.00    -0.083 S 
BRANCH  25  26
ATOM     26  C   UNL     1       3.155   7.899   0.633  0.00  0.00    +0.112 C 
BRANCH  26  27
ATOM     27  C   UNL     1       4.268   8.849   0.994  0.00  0.00    -0.037 A 
ATOM     28  C   UNL     1       4.400   9.294   2.296  0.00  0.00    +0.006 A 
ATOM     29  C   UNL     1       5.424  10.161   2.630  0.00  0.00    +0.020 A 
ATOM     30  C   UNL     1       6.310  10.591   1.658  0.00  0.00    +0.041 A 
ATOM     31  C   UNL     1       6.174  10.149   0.354  0.00  0.00    +0.020 A 
ATOM     32  C   UNL     1       5.153   9.278   0.023  0.00  0.00    +0.006 A 
ATOM     33 CL   UNL     1       7.593  11.684   2.075  0.00  0.00    -0.084 Cl
ENDBRANCH  26  27
ENDBRANCH  25  26
ENDBRANCH   8  25
TORSDOF 4
