REMARK  Name = ZINC28166880
REMARK  4 active torsions:
REMARK  status: ('A' for Active; 'I' for Inactive)
REMARK    1  A    between atoms: C_4  and  N_17
REMARK    2  A    between atoms: C_5  and  C_7
REMARK    3  A    between atoms: C_7  and  C_9
REMARK    4  A    between atoms: C_14  and  N_15
REMARK                            x       y       z     vdW  Elec       q    Type
REMARK                         _______ _______ _______ _____ _____    ______ ____
ROOT
ATOM      1  C   UNL     1      -1.349  -0.853   0.212  0.00  0.00    +0.197 C 
ATOM      2  O   UNL     1      -2.451  -0.340   0.257  0.00  0.00    -0.287 OA
ENDROOT
BRANCH   1   3
ATOM      3  C   UNL     1      -1.213  -2.316   0.327  0.00  0.00    +0.044 A 
ATOM      4  C   UNL     1       0.056  -2.902   0.384  0.00  0.00    +0.028 A 
ATOM      5  C   UNL     1       0.176  -4.270   0.492  0.00  0.00    +0.019 A 
ATOM      6  C   UNL     1      -0.955  -5.071   0.543  0.00  0.00    +0.017 A 
ATOM      7  C   UNL     1      -2.214  -4.508   0.488  0.00  0.00    +0.024 A 
ATOM      8  C   UNL     1      -2.356  -3.130   0.384  0.00  0.00    +0.036 A 
ATOM      9 BR   UNL     1       1.892  -5.060   0.569  0.00  0.00    -0.050 Br
BRANCH   8  10
ATOM     10  N   UNL     1      -3.622  -2.561   0.334  0.00  0.00    -0.357 N 
ATOM     11  H   UNL     1      -4.515  -3.201   0.379  0.00  0.00    +0.142 HD
ATOM     12  H   UNL     1      -3.731  -1.470   0.248  0.00  0.00    +0.142 HD
ENDBRANCH   8  10
ENDBRANCH   1   3
BRANCH   1  17
ATOM     13  C   UNL     1       1.291   1.303  -1.363  0.00  0.00    +0.001 A 
ATOM     14  C   UNL     1       2.104   1.571  -0.275  0.00  0.00    +0.002 A 
ATOM     15  C   UNL     1       1.797   1.053   0.970  0.00  0.00    +0.033 A 
ATOM     16  C   UNL     1       0.677   0.264   1.135  0.00  0.00    +0.137 A 
ATOM     17  C   UNL     1      -0.148  -0.010   0.042  0.00  0.00    +0.052 A 
ATOM     18  C   UNL     1       0.168   0.517  -1.212  0.00  0.00    +0.014 A 
BRANCH  16  19
ATOM     19  N   UNL     1       0.346  -0.284   2.470  0.00  0.00    +0.057 N 
ATOM     20  O   UNL     1       1.118  -0.132   3.399  0.00  0.00    -0.126 OA
ATOM     21  O   UNL     1      -0.698  -0.889   2.638  0.00  0.00    -0.126 OA
ENDBRANCH  16  19
ENDBRANCH   1  17
TORSDOF 4
