REMARK  Name = ZINC65265907
REMARK  4 active torsions:
REMARK  status: ('A' for Active; 'I' for Inactive)
REMARK    1  A    between atoms: C_1  and  O_2
REMARK    2  A    between atoms: O_2  and  C_3
REMARK    3  A    between atoms: C_3  and  C_4
REMARK    4  A    between atoms: N_21  and  C_22
REMARK                            x       y       z     vdW  Elec       q    Type
REMARK                         _______ _______ _______ _____ _____    ______ ____
ROOT
ATOM      1  C   UNL     1       0.633  -2.085   1.012  0.00  0.00    +0.241 C 
ATOM      2  O   UNL     1       0.084  -2.609   0.067  0.00  0.00    -0.273 OA
ATOM      3  N   UNL     1       1.208  -2.846   1.964  0.00  0.00    -0.297 N 
ATOM      4  C   UNL     1       1.899  -2.344   3.162  0.00  0.00    +0.110 C 
ATOM      5  C   UNL     1       2.370  -3.573   3.971  0.00  0.00    +0.050 C 
ATOM      6  C   UNL     1       1.456  -4.695   3.452  0.00  0.00    +0.091 C 
ATOM      7  C   UNL     1       1.242  -4.323   1.980  0.00  0.00    +0.137 C 
ATOM      8  C   UNL     1       2.072  -6.043   3.611  0.00  0.00    +0.095 C 
ATOM      9  N   UNL     1       1.206  -7.102   3.736  0.00  0.00    -0.303 N 
ATOM     10  C   UNL     1       0.769  -7.468   5.005  0.00  0.00    +0.037 A 
ATOM     11  C   UNL     1       0.750  -8.806   5.374  0.00  0.00    +0.023 A 
ATOM     12  C   UNL     1       0.302  -9.174   6.627  0.00  0.00    +0.002 A 
ATOM     13  C   UNL     1      -0.127  -8.199   7.509  0.00  0.00    +0.000 A 
ATOM     14  C   UNL     1      -0.102  -6.870   7.145  0.00  0.00    +0.007 A 
ATOM     15  C   UNL     1       0.353  -6.480   5.889  0.00  0.00    -0.012 A 
ATOM     16  C   UNL     1       0.373  -5.000   5.602  0.00  0.00    +0.119 C 
ATOM     17  N   UNL     1       0.167  -4.696   4.179  0.00  0.00    -0.299 NA
ATOM     18  N   UNL     1       3.355  -6.206   3.631  0.00  0.00    -0.372 N 
ATOM     19  H   UNL     1      -0.314  -3.817   4.063  0.00  0.00    +0.123 HD
ATOM     20  H   UNL     1       3.943  -5.440   3.541  0.00  0.00    +0.161 HD
ATOM     21  H   UNL     1       0.904  -7.587   2.952  0.00  0.00    +0.153 HD
ENDROOT
BRANCH  18  22
ATOM     22  C   UNL     1       3.919  -7.549   3.790  0.00  0.00    +0.080 C 
ATOM     23  C   UNL     1       4.072  -7.885   5.287  0.00  0.00    +0.024 C 
ATOM     24  C   UNL     1       5.393  -8.690   5.364  0.00  0.00    +0.002 C 
ATOM     25  C   UNL     1       6.293  -7.968   4.331  0.00  0.00    +0.002 C 
ATOM     26  C   UNL     1       5.332  -7.601   3.181  0.00  0.00    +0.024 C 
ENDBRANCH  18  22
BRANCH   1  27
ATOM     27  C   UNL     1       0.673  -0.582   1.123  0.00  0.00    +0.255 C 
BRANCH  27  29
ATOM     28  C   UNL     1      -0.017   1.425   0.010  0.00  0.00    +0.194 C 
ATOM     29  O   UNL     1       0.002  -0.004   0.002  0.00  0.00    -0.374 OA
ENDBRANCH  27  29
ENDBRANCH   1  27
TORSDOF 3
