REMARK  Name = ZINC00565922
REMARK  4 active torsions:
REMARK  status: ('A' for Active; 'I' for Inactive)
REMARK    1  A    between atoms: C_6  and  C_7
REMARK    2  A    between atoms: C_7  and  N_8
REMARK    3  A    between atoms: C_12  and  C_13
REMARK    4  A    between atoms: C_18  and  O_19
REMARK                            x       y       z     vdW  Elec       q    Type
REMARK                         _______ _______ _______ _____ _____    ______ ____
ROOT
ATOM      1  N   UNL     1      -1.724  -1.020  -1.370  0.00  0.00    -0.216 N 
ATOM      2  C   UNL     1      -2.484  -0.180  -2.101  0.00  0.00    +0.269 C 
ATOM      3  O   UNL     1      -2.910   0.907  -1.758  0.00  0.00    -0.268 OA
ATOM      4  C   UNL     1      -2.694  -0.842  -3.398  0.00  0.00    +0.098 C 
ATOM      5  C   UNL     1      -3.400  -0.373  -4.458  0.00  0.00    +0.040 C 
ATOM      6  N   UNL     1      -2.009  -2.061  -3.303  0.00  0.00    -0.265 N 
ATOM      7  C   UNL     1      -1.444  -2.121  -2.084  0.00  0.00    +0.313 C 
ATOM      8  O   UNL     1      -0.771  -3.050  -1.682  0.00  0.00    -0.252 OA
ATOM      9  H   UNL     1      -1.949  -2.739  -3.995  0.00  0.00    +0.157 HD
ENDROOT
BRANCH   5  10
ATOM     10  C   UNL     1      -3.370  -1.094  -5.736  0.00  0.00    +0.020 A 
ATOM     11  C   UNL     1      -2.275  -1.902  -6.064  0.00  0.00    +0.031 A 
ATOM     12  C   UNL     1      -2.255  -2.576  -7.266  0.00  0.00    +0.042 A 
ATOM     13  C   UNL     1      -3.314  -2.458  -8.153  0.00  0.00    +0.023 A 
ATOM     14  C   UNL     1      -4.401  -1.664  -7.842  0.00  0.00    +0.047 A 
ATOM     15  C   UNL     1      -4.443  -0.983  -6.636  0.00  0.00    +0.124 A 
ATOM     16 CL   UNL     1      -0.896  -3.578  -7.673  0.00  0.00    -0.084 Cl
BRANCH  15  17
ATOM     17  O   UNL     1      -5.513  -0.207  -6.327  0.00  0.00    -0.506 OA
ATOM     18  H   UNL     1      -5.431   0.711  -6.620  0.00  0.00    +0.292 HD
ENDBRANCH  15  17
ENDBRANCH   5  10
BRANCH   1  19
ATOM     19  C   UNL     1      -1.268  -0.766  -0.001  0.00  0.00    +0.153 C 
BRANCH  19  25
ATOM     20  C   UNL     1       0.100   1.329  -0.062  0.00  0.00    +0.008 A 
ATOM     21  C   UNL     1       1.316   1.984  -0.096  0.00  0.00    +0.038 A 
ATOM     22  C   UNL     1       2.494   1.256  -0.107  0.00  0.00    +0.123 A 
ATOM     23  C   UNL     1       2.452  -0.127  -0.083  0.00  0.00    +0.038 A 
ATOM     24  C   UNL     1       1.234  -0.780  -0.049  0.00  0.00    +0.008 A 
ATOM     25  C   UNL     1       0.059  -0.053  -0.038  0.00  0.00    -0.029 A 
ATOM     26  F   UNL     1       3.684   1.896  -0.141  0.00  0.00    -0.205 F 
ENDBRANCH  19  25
ENDBRANCH   1  19
TORSDOF 4
