REMARK  Name = ZINC14473858
REMARK  4 active torsions:
REMARK  status: ('A' for Active; 'I' for Inactive)
REMARK    1  A    between atoms: C_1  and  C_2
REMARK    2  A    between atoms: C_5  and  N_25
REMARK    3  A    between atoms: C_9  and  C_18
REMARK    4  A    between atoms: C_23  and  O_24
REMARK                            x       y       z     vdW  Elec       q    Type
REMARK                         _______ _______ _______ _____ _____    ______ ____
ROOT
ATOM      1  C   UNL     1       1.375   3.627  -0.250  0.00  0.00    +0.045 C 
ATOM      2  C   UNL     1       1.333   2.124  -0.148  0.00  0.00    -0.029 A 
ATOM      3  C   UNL     1       2.510   1.413  -0.091  0.00  0.00    +0.007 A 
ATOM      4  C   UNL     1       2.487   0.033   0.003  0.00  0.00    +0.033 A 
ATOM      5  C   UNL     1       1.274  -0.629   0.030  0.00  0.00    +0.132 A 
ATOM      6  C   UNL     1       0.091   0.074  -0.036  0.00  0.00    +0.011 A 
ATOM      7  C   UNL     1       0.100   1.470  -0.114  0.00  0.00    +0.037 A 
ATOM      8  N   UNL     1      -1.049   2.258  -0.137  0.00  0.00    -0.336 N 
ATOM      9  C   UNL     1      -2.337   1.549  -0.206  0.00  0.00    +0.108 C 
ATOM     10  C   UNL     1      -2.225   0.332   0.689  0.00  0.00    +0.029 C 
ATOM     11  C   UNL     1      -1.221  -0.608  -0.049  0.00  0.00    +0.051 C 
ATOM     12  C   UNL     1      -1.449  -1.921   0.604  0.00  0.00    -0.023 C 
ATOM     13  C   UNL     1      -2.704  -1.965   1.036  0.00  0.00    -0.030 C 
ATOM     14  C   UNL     1      -3.409  -0.641   0.730  0.00  0.00    +0.033 C 
ATOM     15  H   UNL     1      -1.044   2.927   0.618  0.00  0.00    +0.147 HD
ENDROOT
BRANCH   9  16
ATOM     16  C   UNL     1      -3.445   2.446   0.283  0.00  0.00    +0.014 A 
ATOM     17  C   UNL     1      -3.940   2.297   1.565  0.00  0.00    +0.009 A 
ATOM     18  C   UNL     1      -4.954   3.122   2.016  0.00  0.00    +0.001 A 
ATOM     19  C   UNL     1      -5.481   4.092   1.183  0.00  0.00    +0.004 A 
ATOM     20  C   UNL     1      -4.992   4.242  -0.100  0.00  0.00    +0.046 A 
ATOM     21  C   UNL     1      -3.972   3.418  -0.554  0.00  0.00    +0.122 A 
BRANCH  21  22
ATOM     22  O   UNL     1      -3.490   3.564  -1.816  0.00  0.00    -0.506 OA
ATOM     23  H   UNL     1      -3.996   3.087  -2.488  0.00  0.00    +0.292 HD
ENDBRANCH  21  22
ENDBRANCH   9  16
BRANCH   5  24
ATOM     24  N   UNL     1       1.246  -2.106   0.131  0.00  0.00    +0.057 N 
ATOM     25  O   UNL     1       1.867  -2.668   1.015  0.00  0.00    -0.126 OA
ATOM     26  O   UNL     1       0.601  -2.759  -0.670  0.00  0.00    -0.126 OA
ENDBRANCH   5  24
TORSDOF 3
