REMARK  Name = ZINC63804519
REMARK  14 active torsions:
REMARK  status: ('A' for Active; 'I' for Inactive)
REMARK    1  A    between atoms: C_1  and  C_2
REMARK    2  A    between atoms: C_2  and  O_3
REMARK    3  A    between atoms: O_3  and  C_4
REMARK    4  A    between atoms: C_7  and  C_32
REMARK    5  A    between atoms: C_9  and  S_10
REMARK    6  A    between atoms: S_10  and  N_13
REMARK    7  A    between atoms: N_13  and  C_14
REMARK    8  A    between atoms: C_14  and  C_15
REMARK    9  A    between atoms: C_15  and  C_16
REMARK   10  A    between atoms: C_19  and  O_27
REMARK   11  A    between atoms: C_24  and  C_26
REMARK   12  A    between atoms: O_27  and  C_28
REMARK   13  A    between atoms: C_32  and  C_33
REMARK   14  A    between atoms: C_32  and  C_34
REMARK                            x       y       z     vdW  Elec       q    Type
REMARK                         _______ _______ _______ _____ _____    ______ ____
ROOT
ATOM      1  C   UNL     1       0.113   0.756  -3.639  0.00  0.00    +0.110 C 
ENDROOT
BRANCH   1   2
ATOM      2  N   UNL     1       0.890  -0.204  -4.425  0.00  0.00    -0.190 NA
ATOM      3  H   UNL     1       0.528  -0.559  -5.253  0.00  0.00    +0.148 HD
BRANCH   2   4
ATOM      4  S   UNL     1       2.386  -0.685  -3.902  0.00  0.00    +0.062 S 
ATOM      5  O   UNL     1       2.896  -1.572  -4.888  0.00  0.00    -0.153 OA
ATOM      6  O   UNL     1       2.238  -1.063  -2.541  0.00  0.00    -0.153 OA
BRANCH   4  12
ATOM      7  C   UNL     1       3.718   1.369  -5.119  0.00  0.00    +0.147 A 
ATOM      8  C   UNL     1       4.533   2.493  -5.128  0.00  0.00    +0.048 A 
ATOM      9  C   UNL     1       5.054   2.976  -3.944  0.00  0.00    +0.007 A 
ATOM     10  C   UNL     1       4.765   2.341  -2.750  0.00  0.00    -0.043 A 
ATOM     11  C   UNL     1       3.954   1.222  -2.738  0.00  0.00    +0.036 A 
ATOM     12  C   UNL     1       3.425   0.738  -3.919  0.00  0.00    +0.147 A 
BRANCH  10  13
ATOM     13  C   UNL     1       5.336   2.870  -1.459  0.00  0.00    +0.013 C 
ATOM     14  C   UNL     1       6.864   2.848  -1.530  0.00  0.00    +0.012 C 
ATOM     15  C   UNL     1       4.856   4.307  -1.241  0.00  0.00    +0.012 C 
ENDBRANCH  10  13
BRANCH   7  16
ATOM     16  O   UNL     1       3.203   0.892  -6.282  0.00  0.00    -0.490 OA
BRANCH  16  18
ATOM     17  C   UNL     1       2.884   0.918  -8.678  0.00  0.00    +0.048 C 
ATOM     18  C   UNL     1       3.630   1.528  -7.489  0.00  0.00    +0.226 C 
ENDBRANCH  16  18
ENDBRANCH   7  16
ENDBRANCH   4  12
ENDBRANCH   2   4
ENDBRANCH   1   2
BRANCH   1  19
ATOM     19  C   UNL     1      -1.001   1.345  -4.508  0.00  0.00    +0.050 C 
BRANCH  19  20
ATOM     20  C   UNL     1      -1.803   2.329  -3.697  0.00  0.00    -0.037 C 
ATOM     21  C   UNL     1      -1.607   2.668  -2.403  0.00  0.00    +0.003 A 
ATOM     22  C   UNL     1      -0.627   2.239  -1.399  0.00  0.00    +0.056 A 
ATOM     23  C   UNL     1      -0.676   2.764  -0.151  0.00  0.00    +0.131 A 
ATOM     24  C   UNL     1      -1.641   3.715   0.225  0.00  0.00    +0.048 A 
ATOM     25  C   UNL     1      -2.584   4.171  -0.627  0.00  0.00    +0.029 A 
ATOM     26  C   UNL     1      -2.623   3.670  -2.005  0.00  0.00    +0.043 A 
ATOM     27  N   UNL     1      -3.415   3.940  -3.012  0.00  0.00    -0.378 N 
ATOM     28  C   UNL     1      -2.988   3.143  -4.169  0.00  0.00    +0.103 C 
ATOM     29  C   UNL     1      -2.572   4.061  -5.320  0.00  0.00    +0.035 C 
ATOM     30  H   UNL     1      -4.157   4.564  -2.998  0.00  0.00    +0.160 HD
BRANCH  23  31
ATOM     31  O   UNL     1       0.238   2.356   0.768  0.00  0.00    -0.406 OA
BRANCH  31  32
ATOM     32  C   UNL     1       0.128   2.910   2.081  0.00  0.00    +0.575 C 
ATOM     33  F   UNL     1      -1.120   2.584   2.622  0.00  0.00    -0.133 F 
ATOM     34  F   UNL     1       1.140   2.387   2.894  0.00  0.00    -0.133 F 
ATOM     35  F   UNL     1       0.258   4.301   2.013  0.00  0.00    -0.133 F 
ENDBRANCH  31  32
ENDBRANCH  23  31
ENDBRANCH  19  20
ENDBRANCH   1  19
TORSDOF 10
