REMARK  Name = ZINC04236605
REMARK  12 active torsions:
REMARK  status: ('A' for Active; 'I' for Inactive)
REMARK    1  A    between atoms: C_1  and  C_2
REMARK    2  A    between atoms: N_4  and  C_5
REMARK    3  A    between atoms: C_11  and  C_13
REMARK    4  A    between atoms: C_13  and  C_14
REMARK    5  A    between atoms: C_16  and  O_42
REMARK    6  A    between atoms: C_22  and  C_41
REMARK    7  A    between atoms: C_25  and  O_31
REMARK    8  A    between atoms: C_27  and  C_28
REMARK    9  A    between atoms: C_27  and  C_29
REMARK   10  A    between atoms: C_29  and  O_30
REMARK   11  A    between atoms: O_31  and  C_32
REMARK   12  A    between atoms: N_34  and  C_35
REMARK                            x       y       z     vdW  Elec       q    Type
REMARK                         _______ _______ _______ _____ _____    ______ ____
ROOT
ATOM      1  C   UNL     1      -0.321  -4.085  -0.217  0.00  0.00    +0.032 C 
ATOM      2  C   UNL     1       0.747  -4.117   0.878  0.00  0.00    +0.119 C 
ATOM      3  C   UNL     1       0.123  -3.702   2.212  0.00  0.00    +0.032 C 
ATOM      4  C   UNL     1      -0.441  -2.285   2.091  0.00  0.00    +0.007 C 
ATOM      5  C   UNL     1      -1.509  -2.252   0.996  0.00  0.00    +0.007 C 
ATOM      6  C   UNL     1      -0.885  -2.668  -0.337  0.00  0.00    -0.023 C 
ATOM      7  C   UNL     1       0.243  -1.699  -0.697  0.00  0.00    +0.011 C 
ATOM      8  C   UNL     1      -0.321  -0.282  -0.817  0.00  0.00    +0.046 C 
ATOM      9  C   UNL     1      -0.945   0.134   0.516  0.00  0.00    +0.186 C 
ATOM     10  C   UNL     1      -2.074  -0.836   0.876  0.00  0.00    +0.031 C 
ATOM     11  C   UNL     1      -2.698  -0.420   2.209  0.00  0.00    +0.017 C 
ATOM     12  C   UNL     1      -1.953  -2.636  -1.432  0.00  0.00    +0.012 C 
ENDROOT
BRANCH   2  13
ATOM     13  O   UNL     1       1.274  -5.441   0.991  0.00  0.00    -0.391 OA
ATOM     14  H   UNL     1       1.958  -5.536   1.668  0.00  0.00    +0.210 HD
ENDBRANCH   2  13
BRANCH   1  15
ATOM     15  C   UNL     1      -1.449  -5.054   0.143  0.00  0.00    +0.102 C 
BRANCH  15  21
ATOM     16  C   UNL     1      -2.695  -9.675   0.459  0.00  0.00    +0.092 C 
ATOM     17  C   UNL     1      -3.517  -8.792   1.435  0.00  0.00    +0.043 C 
ATOM     18  C   UNL     1      -3.025  -7.365   1.111  0.00  0.00    +0.109 C 
ATOM     19  N   UNL     1      -1.706  -7.492   0.475  0.00  0.00    -0.300 N 
ATOM     20  C   UNL     1      -1.343  -8.920   0.420  0.00  0.00    +0.130 C 
ATOM     21  C   UNL     1      -0.951  -6.472   0.022  0.00  0.00    +0.216 C 
ATOM     22  O   UNL     1       0.129  -6.694  -0.483  0.00  0.00    -0.276 OA
BRANCH  16  26
ATOM     23  C   UNL     1      -3.228 -13.391   1.207  0.00  0.00    +0.109 C 
ATOM     24  C   UNL     1      -3.402 -11.998   0.660  0.00  0.00    +0.210 C 
ATOM     25  O   UNL     1      -4.332 -11.748  -0.078  0.00  0.00    -0.276 OA
ATOM     26  N   UNL     1      -2.526 -11.029   0.991  0.00  0.00    -0.311 N 
ATOM     27  H   UNL     1      -1.782 -11.229   1.581  0.00  0.00    +0.149 HD
ENDBRANCH  16  26
ENDBRANCH  15  21
ENDBRANCH   1  15
BRANCH  10  28
ATOM     28  C   UNL     1      -3.142  -0.803  -0.219  0.00  0.00    +0.166 C 
BRANCH  28  29
ATOM     29  O   UNL     1      -3.805   0.462  -0.200  0.00  0.00    -0.394 OA
ATOM     30  H   UNL     1      -4.497   0.553  -0.870  0.00  0.00    +0.209 HD
ENDBRANCH  28  29
ENDBRANCH  10  28
BRANCH   9  31
ATOM     31  O   UNL     1      -1.481   1.478   0.402  0.00  0.00    -0.446 OA
BRANCH  31  32
ATOM     32  C   UNL     1      -0.652   2.494   0.707  0.00  0.00    +0.401 C 
ATOM     33  O   UNL     1       0.488   2.264   1.059  0.00  0.00    -0.226 OA
ATOM     34  N   UNL     1      -1.086   3.768   0.622  0.00  0.00    -0.278 N 
ATOM     35  H   UNL     1      -1.996   3.952   0.340  0.00  0.00    +0.152 HD
BRANCH  34  36
ATOM     36  C   UNL     1      -0.184   4.873   0.954  0.00  0.00    +0.076 C 
ATOM     37  C   UNL     1      -0.213   5.119   2.463  0.00  0.00    +0.022 C 
ATOM     38  C   UNL     1       0.729   6.274   2.810  0.00  0.00    +0.002 C 
ATOM     39  C   UNL     1       0.276   7.539   2.078  0.00  0.00    +0.000 C 
ATOM     40  C   UNL     1       0.305   7.293   0.569  0.00  0.00    +0.002 C 
ATOM     41  C   UNL     1      -0.637   6.138   0.222  0.00  0.00    +0.022 C 
ENDBRANCH  34  36
ENDBRANCH  31  32
ENDBRANCH   9  31
TORSDOF 9
