REMARK  Name = ZINC04989849
REMARK  4 active torsions:
REMARK  status: ('A' for Active; 'I' for Inactive)
REMARK    1  A    between atoms: C_4  and  C_7
REMARK    2  A    between atoms: N_10  and  C_11
REMARK    3  A    between atoms: C_14  and  S_17
REMARK    4  A    between atoms: S_17  and  N_20
REMARK                            x       y       z     vdW  Elec       q    Type
REMARK                         _______ _______ _______ _____ _____    ______ ____
ROOT
ATOM      1  C   UNL     1      -1.802   5.473   0.044  0.00  0.00    +0.139 C 
ATOM      2  C   UNL     1      -2.408   4.107  -0.174  0.00  0.00    +0.065 C 
ATOM      3  N   UNL     1      -3.644   3.765   0.056  0.00  0.00    -0.251 NA
ATOM      4  C   UNL     1      -1.344   3.234  -0.694  0.00  0.00    +0.008 A 
ATOM      5  C   UNL     1      -1.369   1.885  -1.065  0.00  0.00    +0.010 A 
ATOM      6  C   UNL     1      -0.223   1.274  -1.529  0.00  0.00    +0.001 A 
ATOM      7  C   UNL     1       0.958   1.988  -1.641  0.00  0.00    +0.001 A 
ATOM      8  C   UNL     1       1.006   3.320  -1.287  0.00  0.00    +0.012 A 
ATOM      9  C   UNL     1      -0.142   3.961  -0.809  0.00  0.00    +0.027 A 
ATOM     10  C   UNL     1      -0.355   5.348  -0.370  0.00  0.00    +0.177 C 
ATOM     11  O   UNL     1       0.478   6.229  -0.345  0.00  0.00    -0.291 OA
ENDROOT
BRANCH   1  15
ATOM     12  C   UNL     1      -2.069   6.570   4.164  0.00  0.00    +0.000 A 
ATOM     13  C   UNL     1      -2.638   7.375   3.196  0.00  0.00    +0.000 A 
ATOM     14  C   UNL     1      -2.552   7.020   1.863  0.00  0.00    +0.005 A 
ATOM     15  C   UNL     1      -1.896   5.860   1.497  0.00  0.00    -0.031 A 
ATOM     16  C   UNL     1      -1.330   5.052   2.466  0.00  0.00    +0.005 A 
ATOM     17  C   UNL     1      -1.413   5.409   3.799  0.00  0.00    +0.000 A 
ENDBRANCH   1  15
BRANCH   3  18
ATOM     18  C   UNL     1      -4.023   2.456  -0.051  0.00  0.00    +0.064 A 
ATOM     19  C   UNL     1      -4.917   2.062  -1.049  0.00  0.00    +0.029 A 
ATOM     20  C   UNL     1      -5.290   0.739  -1.154  0.00  0.00    +0.030 A 
ATOM     21  C   UNL     1      -4.790  -0.197  -0.266  0.00  0.00    +0.105 A 
ATOM     22  C   UNL     1      -3.907   0.186   0.729  0.00  0.00    +0.030 A 
ATOM     23  C   UNL     1      -3.521   1.505   0.843  0.00  0.00    +0.029 A 
BRANCH  21  24
ATOM     24  S   UNL     1      -5.278  -1.885  -0.403  0.00  0.00    +0.056 S 
ATOM     25  O   UNL     1      -5.684  -2.082  -1.750  0.00  0.00    -0.153 OA
ATOM     26  O   UNL     1      -4.250  -2.655   0.204  0.00  0.00    -0.153 OA
BRANCH  24  27
ATOM     27  N   UNL     1      -6.630  -2.080   0.533  0.00  0.00    -0.204 NA
ATOM     28  H   UNL     1      -6.995  -1.326   1.022  0.00  0.00    +0.144 HD
ATOM     29  H   UNL     1      -7.058  -2.949   0.592  0.00  0.00    +0.144 HD
ENDBRANCH  24  27
ENDBRANCH  21  24
ENDBRANCH   3  18
TORSDOF 4
