REMARK  Name = ZINC64539228
REMARK  8 active torsions:
REMARK  status: ('A' for Active; 'I' for Inactive)
REMARK    1  A    between atoms: C_1  and  C_2
REMARK    2  A    between atoms: C_8  and  C_11
REMARK    3  A    between atoms: C_11  and  C_12
REMARK    4  A    between atoms: C_12  and  N_13
REMARK    5  A    between atoms: C_14  and  C_16
REMARK    6  A    between atoms: C_16  and  C_17
REMARK    7  A    between atoms: C_17  and  C_18
REMARK    8  A    between atoms: N_23  and  C_26
REMARK                            x       y       z     vdW  Elec       q    Type
REMARK                         _______ _______ _______ _____ _____    ______ ____
ROOT
ATOM      1  C   UNL     1      -3.969  -2.393   8.313  0.00  0.00    +0.105 C 
ENDROOT
BRANCH   1   2
ATOM      2  C   UNL     1      -3.966  -2.132   9.797  0.00  0.00    +0.216 C 
ATOM      3  O   UNL     1      -2.920  -1.923  10.375  0.00  0.00    -0.276 OA
ATOM      4  N   UNL     1      -5.127  -2.131  10.483  0.00  0.00    -0.299 N 
ATOM      5  C   UNL     1      -6.405  -2.387   9.804  0.00  0.00    +0.123 C 
ATOM      6  C   UNL     1      -7.385  -1.268  10.171  0.00  0.00    +0.106 C 
ATOM      7  N   UNL     1      -7.470  -1.156  11.634  0.00  0.00    -0.273 NA
ATOM      8  C   UNL     1      -6.177  -0.773  12.215  0.00  0.00    +0.106 C 
ATOM      9  C   UNL     1      -5.146  -1.878  11.932  0.00  0.00    +0.123 C 
BRANCH   7  10
ATOM     10  C   UNL     1      -8.525  -0.214  12.029  0.00  0.00    +0.208 C 
ATOM     11  N   UNL     1      -8.558  -0.040  13.488  0.00  0.00    -0.318 N 
ATOM     12  C   UNL     1      -8.306   1.235  13.989  0.00  0.00    +0.061 A 
ATOM     13  C   UNL     1      -8.293   1.599  15.348  0.00  0.00    +0.027 A 
ATOM     14  C   UNL     1      -8.026   2.909  15.698  0.00  0.00    +0.022 A 
ATOM     15  C   UNL     1      -7.774   3.851  14.723  0.00  0.00    +0.112 A 
ATOM     16  N   UNL     1      -7.788   3.500  13.448  0.00  0.00    -0.247 NA
ATOM     17  C   UNL     1      -8.039   2.264  13.077  0.00  0.00    +0.121 A 
ATOM     18  S   UNL     1      -8.128   1.493  11.475  0.00  0.00    -0.066 S 
ATOM     19  H   UNL     1      -8.749  -0.784  14.079  0.00  0.00    +0.148 HD
ENDBRANCH   7  10
ENDBRANCH   1   2
BRANCH   1  20
ATOM     20  C   UNL     1      -2.534  -2.338   7.783  0.00  0.00    +0.105 C 
BRANCH  20  22
ATOM     21  N   UNL     1      -1.377  -2.600   5.613  0.00  0.00    -0.315 N 
ATOM     22  C   UNL     1      -2.537  -2.599   6.299  0.00  0.00    +0.213 C 
ATOM     23  O   UNL     1      -3.583  -2.808   5.722  0.00  0.00    -0.276 OA
ATOM     24  H   UNL     1      -0.540  -2.433   6.075  0.00  0.00    +0.149 HD
BRANCH  21  25
ATOM     25  C   UNL     1      -1.379  -2.854   4.170  0.00  0.00    +0.108 C 
BRANCH  25  26
ATOM     26  C   UNL     1       0.055  -2.799   3.641  0.00  0.00    +0.052 C 
BRANCH  26  34
ATOM     27  C   UNL     1      -0.018   1.503   0.010  0.00  0.00    +0.044 C 
ATOM     28  C   UNL     1       0.002  -0.004   0.002  0.00  0.00    -0.050 A 
ATOM     29  C   UNL     1       0.005  -0.680  -1.226  0.00  0.00    +0.005 A 
ATOM     30  C   UNL     1       0.023  -2.026  -1.317  0.00  0.00    +0.026 A 
ATOM     31  C   UNL     1       0.039  -2.826  -0.141  0.00  0.00    +0.043 A 
ATOM     32  N   UNL     1       0.057  -4.126   0.030  0.00  0.00    -0.380 N 
ATOM     33  C   UNL     1       0.067  -4.408   1.470  0.00  0.00    +0.144 C 
ATOM     34  C   UNL     1       0.052  -3.060   2.156  0.00  0.00    -0.040 C 
ATOM     35  C   UNL     1       0.036  -2.137   1.168  0.00  0.00    -0.001 A 
ATOM     36  C   UNL     1       0.022  -0.669   1.180  0.00  0.00    +0.013 A 
ATOM     37  H   UNL     1       0.062  -4.790  -0.677  0.00  0.00    +0.160 HD
ENDBRANCH  26  34
ENDBRANCH  25  26
ENDBRANCH  21  25
ENDBRANCH  20  22
ENDBRANCH   1  20
TORSDOF 7
