REMARK  Name = ZINC33860910
REMARK  8 active torsions:
REMARK  status: ('A' for Active; 'I' for Inactive)
REMARK    1  A    between atoms: C_1  and  C_2
REMARK    2  A    between atoms: C_5  and  C_40
REMARK    3  A    between atoms: C_6  and  C_8
REMARK    4  A    between atoms: N_16  and  C_19
REMARK    5  A    between atoms: C_25  and  C_27
REMARK    6  A    between atoms: C_25  and  C_37
REMARK    7  A    between atoms: C_27  and  C_28
REMARK    8  A    between atoms: C_31  and  N_34
REMARK                            x       y       z     vdW  Elec       q    Type
REMARK                         _______ _______ _______ _____ _____    ______ ____
ROOT
ATOM      1  C   UNL     1       0.121  -3.212   2.231  0.00  0.00    +0.098 C 
ATOM      2  C   UNL     1       1.564  -3.571   2.571  0.00  0.00    +0.111 C 
ATOM      3  C   UNL     1       1.293  -4.115   4.025  0.00  0.00    +0.121 C 
ATOM      4  C   UNL     1       2.498  -4.863   4.294  0.00  0.00    +0.228 C 
ATOM      5  O   UNL     1       3.056  -5.005   5.361  0.00  0.00    -0.275 OA
ATOM      6  N   UNL     1       2.874  -5.378   3.078  0.00  0.00    -0.238 N 
ATOM      7  C   UNL     1       2.204  -4.804   2.017  0.00  0.00    +0.228 C 
ATOM      8  O   UNL     1       2.137  -5.211   0.877  0.00  0.00    -0.275 OA
ATOM      9  C   UNL     1       0.457  -3.071   4.631  0.00  0.00    +0.138 C 
ATOM     10  N   UNL     1      -0.371  -2.546   3.481  0.00  0.00    -0.293 NA
ATOM     11  H   UNL     1      -0.286  -1.543   3.414  0.00  0.00    +0.124 HD
ENDROOT
BRANCH   1  17
ATOM     12  C   UNL     1       2.457  -0.196  -1.008  0.00  0.00    +0.044 C 
ATOM     13  C   UNL     1       1.187  -0.817  -0.484  0.00  0.00    -0.050 A 
ATOM     14  C   UNL     1      -0.025  -0.512  -1.075  0.00  0.00    +0.003 A 
ATOM     15  C   UNL     1      -1.190  -1.080  -0.596  0.00  0.00    +0.004 A 
ATOM     16  C   UNL     1      -1.143  -1.954   0.475  0.00  0.00    -0.046 A 
ATOM     17  C   UNL     1       0.069  -2.260   1.065  0.00  0.00    -0.027 A 
ATOM     18  C   UNL     1       1.235  -1.694   0.582  0.00  0.00    +0.008 A 
ATOM     19  C   UNL     1      -2.413  -2.574   0.998  0.00  0.00    +0.044 C 
ENDBRANCH   1  17
BRANCH   6  20
ATOM     20  C   UNL     1       3.892  -6.419   2.919  0.00  0.00    +0.084 C 
ATOM     21  C   UNL     1       5.034  -5.888   2.050  0.00  0.00    +0.023 C 
ATOM     22  C   UNL     1       6.097  -6.976   1.883  0.00  0.00    +0.002 C 
ATOM     23  C   UNL     1       5.473  -8.200   1.212  0.00  0.00    +0.000 C 
ATOM     24  C   UNL     1       4.331  -8.732   2.081  0.00  0.00    +0.002 C 
ATOM     25  C   UNL     1       3.268  -7.644   2.247  0.00  0.00    +0.023 C 
ENDBRANCH   6  20
BRANCH   9  26
ATOM     26  C   UNL     1       1.318  -1.989   5.229  0.00  0.00    +0.377 C 
ATOM     27  O   UNL     1       1.220  -0.841   4.830  0.00  0.00    -0.244 OA
ATOM     28  O   UNL     1       2.114  -2.261   6.112  0.00  0.00    -0.244 OA
ENDBRANCH   9  26
BRANCH   9  29
ATOM     29  C   UNL     1      -0.461  -3.675   5.696  0.00  0.00    +0.069 C 
BRANCH  29  30
ATOM     30  C   UNL     1      -1.393  -2.611   6.217  0.00  0.00    -0.045 A 
ATOM     31  C   UNL     1      -1.022  -1.836   7.299  0.00  0.00    +0.006 A 
ATOM     32  C   UNL     1      -1.877  -0.860   7.776  0.00  0.00    +0.033 A 
ATOM     33  C   UNL     1      -3.104  -0.660   7.171  0.00  0.00    +0.126 A 
ATOM     34  C   UNL     1      -3.475  -1.435   6.088  0.00  0.00    +0.033 A 
ATOM     35  C   UNL     1      -2.618  -2.408   5.608  0.00  0.00    +0.006 A 
BRANCH  33  36
ATOM     36  N   UNL     1      -4.020   0.384   7.683  0.00  0.00    +0.056 N 
ATOM     37  O   UNL     1      -3.696   1.061   8.630  0.00  0.00    -0.126 OA
ATOM     38  O   UNL     1      -5.093   0.558   7.154  0.00  0.00    -0.126 OA
ENDBRANCH  33  36
ENDBRANCH  29  30
ENDBRANCH   9  29
TORSDOF 6
