REMARK  Name = ZINC06077452
REMARK  16 active torsions:
REMARK  status: ('A' for Active; 'I' for Inactive)
REMARK    1  A    between atoms: C_1  and  C_2
REMARK    2  A    between atoms: C_2  and  C_3
REMARK    3  A    between atoms: C_3  and  C_4
REMARK    4  A    between atoms: C_3  and  C_5
REMARK    5  A    between atoms: C_3  and  N_6
REMARK    6  A    between atoms: C_7  and  C_9
REMARK    7  A    between atoms: C_9  and  C_11
REMARK    8  A    between atoms: C_9  and  N_20
REMARK    9  A    between atoms: C_14  and  N_17
REMARK   10  A    between atoms: N_17  and  C_18
REMARK   11  A    between atoms: N_17  and  C_19
REMARK   12  A    between atoms: N_20  and  C_21
REMARK   13  A    between atoms: C_21  and  C_22
REMARK   14  A    between atoms: C_27  and  C_29
REMARK   15  A    between atoms: C_30  and  N_37
REMARK   16  A    between atoms: C_31  and  C_34
REMARK                            x       y       z     vdW  Elec       q    Type
REMARK                         _______ _______ _______ _____ _____    ______ ____
ROOT
ATOM      1  N   UNL     1      -0.826  -0.275  -0.813  0.00  0.00    -0.277 N 
ATOM      2  C   UNL     1      -1.399  -0.233  -2.032  0.00  0.00    +0.258 C 
ATOM      3  O   UNL     1      -0.789   0.234  -2.976  0.00  0.00    -0.269 OA
ENDROOT
BRANCH   2   4
ATOM      4  C   UNL     1      -2.757  -0.749  -2.221  0.00  0.00    +0.115 A 
ATOM      5  C   UNL     1      -3.482  -0.921  -3.401  0.00  0.00    +0.076 A 
ATOM      6  C   UNL     1      -4.755  -1.444  -3.175  0.00  0.00    +0.155 A 
ATOM      7  N   UNL     1      -5.131  -1.712  -1.943  0.00  0.00    -0.203 NA
ATOM      8  S   UNL     1      -3.921  -1.334  -1.007  0.00  0.00    +0.019 S 
BRANCH   6   9
ATOM      9  C   UNL     1      -5.669  -1.695  -4.304  0.00  0.00    +0.262 C 
ATOM     10  O   UNL     1      -5.315  -1.445  -5.440  0.00  0.00    -0.269 OA
ATOM     11  N   UNL     1      -6.898  -2.201  -4.077  0.00  0.00    -0.324 N 
ATOM     12  H   UNL     1      -7.180  -2.400  -3.170  0.00  0.00    +0.145 HD
ATOM     13  H   UNL     1      -7.499  -2.366  -4.819  0.00  0.00    +0.145 HD
ENDBRANCH   6   9
BRANCH   5  14
ATOM     14  N   UNL     1      -2.991  -0.605  -4.661  0.00  0.00    -0.355 N 
ATOM     15  H   UNL     1      -2.096  -0.242  -4.756  0.00  0.00    +0.142 HD
ATOM     16  H   UNL     1      -3.543  -0.746  -5.446  0.00  0.00    +0.142 HD
ENDBRANCH   5  14
ENDBRANCH   2   4
BRANCH   1  17
ATOM     17  C   UNL     1       0.470   0.371  -0.591  0.00  0.00    +0.193 C 
BRANCH  17  18
ATOM     18  C   UNL     1       0.272   1.857  -0.441  0.00  0.00    -0.018 A 
ATOM     19  C   UNL     1      -0.854   2.342   0.200  0.00  0.00    +0.008 A 
ATOM     20  C   UNL     1      -1.036   3.703   0.344  0.00  0.00    +0.023 A 
ATOM     21  C   UNL     1      -0.093   4.586  -0.167  0.00  0.00    +0.029 A 
ATOM     22  C   UNL     1       1.034   4.096  -0.815  0.00  0.00    +0.023 A 
ATOM     23  C   UNL     1       1.213   2.734  -0.950  0.00  0.00    +0.008 A 
BRANCH  21  24
ATOM     24  N   UNL     1      -0.277   5.964  -0.028  0.00  0.00    -0.336 N 
ATOM     25  C   UNL     1       0.658   6.896  -0.664  0.00  0.00    +0.129 C 
ATOM     26  C   UNL     1      -1.406   6.477   0.752  0.00  0.00    +0.129 C 
ENDBRANCH  21  24
ENDBRANCH  17  18
BRANCH  17  28
ATOM     27  N   UNL     1       2.183   0.418   1.194  0.00  0.00    -0.308 N 
ATOM     28  C   UNL     1       1.098  -0.181   0.663  0.00  0.00    +0.239 C 
ATOM     29  O   UNL     1       0.627  -1.164   1.195  0.00  0.00    -0.273 OA
ATOM     30  H   UNL     1       2.518   1.243   0.808  0.00  0.00    +0.149 HD
BRANCH  27  31
ATOM     31  C   UNL     1       2.854  -0.176   2.352  0.00  0.00    +0.029 C 
ATOM     32  C   UNL     1       1.855  -0.323   3.501  0.00  0.00    +0.031 C 
ATOM     33  C   UNL     1       3.402  -1.554   1.972  0.00  0.00    +0.031 C 
BRANCH  31  35
ATOM     34  C   UNL     1       4.710   0.107   4.001  0.00  0.00    +0.006 C 
ATOM     35  C   UNL     1       4.008   0.727   2.791  0.00  0.00    +0.022 C 
ENDBRANCH  31  35
ENDBRANCH  27  31
ENDBRANCH  17  28
ENDBRANCH   1  17
BRANCH   1  36
ATOM     36  C   UNL     1      -1.498  -0.966   0.289  0.00  0.00    +0.151 C 
BRANCH  36  37
ATOM     37  C   UNL     1      -1.313  -2.454   0.137  0.00  0.00    +0.007 A 
ATOM     38  C   UNL     1      -0.447  -3.277   0.777  0.00  0.00    +0.013 A 
ATOM     39  C   UNL     1      -0.455  -4.625   0.474  0.00  0.00    +0.008 A 
ATOM     40  C   UNL     1      -1.328  -5.085  -0.455  0.00  0.00    +0.045 A 
ATOM     41  S   UNL     1      -2.184  -3.592  -0.929  0.00  0.00    -0.100 S 
ENDBRANCH  36  37
ENDBRANCH   1  36
TORSDOF 11
