REMARK  Name = ZINC38596754
REMARK  13 active torsions:
REMARK  status: ('A' for Active; 'I' for Inactive)
REMARK    1  A    between atoms: C_1  and  N_2
REMARK    2  A    between atoms: N_2  and  C_3
REMARK    3  A    between atoms: N_2  and  C_9
REMARK    4  A    between atoms: C_3  and  C_4
REMARK    5  A    between atoms: C_4  and  O_5
REMARK    6  A    between atoms: C_4  and  O_7
REMARK    7  A    between atoms: O_5  and  C_6
REMARK    8  A    between atoms: O_7  and  C_8
REMARK    9  A    between atoms: C_9  and  C_10
REMARK   10  A    between atoms: N_12  and  C_13
REMARK   11  A    between atoms: C_21  and  C_23
REMARK   12  A    between atoms: C_23  and  O_25
REMARK   13  A    between atoms: O_25  and  C_26
REMARK                            x       y       z     vdW  Elec       q    Type
REMARK                         _______ _______ _______ _____ _____    ______ ____
ROOT
ATOM      1  C   UNL     1       4.627  -2.079   1.084  0.00  0.00    +0.053 C 
ATOM      2  C   UNL     1       5.705  -2.877   1.425  0.00  0.00    +0.019 A 
ATOM      3  C   UNL     1       6.116  -3.454   2.651  0.00  0.00    +0.026 A 
ATOM      4  C   UNL     1       7.243  -4.209   2.694  0.00  0.00    +0.019 A 
ATOM      5  C   UNL     1       8.017  -4.435   1.552  0.00  0.00    +0.017 A 
ATOM      6  C   UNL     1       7.684  -3.914   0.347  0.00  0.00    +0.027 A 
ATOM      7  C   UNL     1       6.519  -3.114   0.221  0.00  0.00    +0.045 A 
ATOM      8  N   UNL     1       5.989  -2.503  -0.820  0.00  0.00    -0.367 N 
ATOM      9  C   UNL     1       4.768  -1.810  -0.398  0.00  0.00    +0.234 C 
ATOM     10 BR   UNL     1       7.779  -4.972   4.339  0.00  0.00    -0.050 Br
ATOM     11  H   UNL     1       6.346  -2.515  -1.721  0.00  0.00    +0.161 HD
ENDROOT
BRANCH   1  14
ATOM     12  C   UNL     1       2.571  -0.992   1.399  0.00  0.00    +0.200 C 
ATOM     13  O   UNL     1       2.438  -0.898   0.198  0.00  0.00    -0.278 OA
ATOM     14  N   UNL     1       3.639  -1.634   1.911  0.00  0.00    -0.288 N 
ATOM     15  H   UNL     1       3.705  -1.779   2.868  0.00  0.00    +0.155 HD
BRANCH  12  16
ATOM     16  C   UNL     1       1.540  -0.390   2.320  0.00  0.00    +0.019 C 
BRANCH  16  18
ATOM     17  C   UNL     1       1.050   1.382   0.779  0.00  0.00    -0.095 C 
ATOM     18  N   UNL     1       0.484   0.248   1.523  0.00  0.00    +0.387 N 
ATOM     19  H   UNL     1       0.101  -0.422   0.874  0.00  0.00    -0.081 HD
BRANCH  18  20
ATOM     20  C   UNL     1      -0.579   0.729   2.415  0.00  0.00    -0.016 C 
BRANCH  20  21
ATOM     21  C   UNL     1      -1.734   1.284   1.579  0.00  0.00    +0.233 C 
BRANCH  21  22
ATOM     22  O   UNL     1      -1.293   2.440   0.865  0.00  0.00    -0.356 OA
ATOM     23  C   UNL     1      -2.336   3.126   0.169  0.00  0.00    +0.197 C 
ENDBRANCH  21  22
BRANCH  21  24
ATOM     24  O   UNL     1      -2.171   0.289   0.651  0.00  0.00    -0.356 OA
ATOM     25  C   UNL     1      -3.507   0.479   0.180  0.00  0.00    +0.197 C 
ENDBRANCH  21  24
ENDBRANCH  20  21
ENDBRANCH  18  20
ENDBRANCH  16  18
ENDBRANCH  12  16
ENDBRANCH   1  14
BRANCH   9  26
ATOM     26  C   UNL     1       4.902  -0.330  -0.646  0.00  0.00    +0.335 C 
ATOM     27  O   UNL     1       5.987   0.198  -0.573  0.00  0.00    -0.248 OA
BRANCH  26  28
ATOM     28  O   UNL     1       3.818   0.402  -0.947  0.00  0.00    -0.466 OA
ATOM     29  C   UNL     1       4.020   1.799  -1.170  0.00  0.00    +0.280 C 
ENDBRANCH  26  28
ENDBRANCH   9  26
TORSDOF 9
