REMARK  Name = ZINC16693860
REMARK  5 active torsions:
REMARK  status: ('A' for Active; 'I' for Inactive)
REMARK    1  A    between atoms: C_1  and  C_2
REMARK    2  A    between atoms: C_3  and  C_27
REMARK    3  A    between atoms: N_6  and  C_26
REMARK    4  A    between atoms: C_10  and  N_11
REMARK    5  A    between atoms: N_11  and  C_12
REMARK                            x       y       z     vdW  Elec       q    Type
REMARK                         _______ _______ _______ _____ _____    ______ ____
ROOT
ATOM      1  N   UNL     1      -0.040  -0.719   3.560  0.00  0.00    -0.319 N 
ATOM      2  H   UNL     1      -0.847  -1.040   3.128  0.00  0.00    +0.152 HD
ENDROOT
BRANCH   1   3
ATOM      3  C   UNL     1      -0.125  -0.009   4.743  0.00  0.00    +0.049 A 
ATOM      4  C   UNL     1       0.067   1.385   4.771  0.00  0.00    +0.022 A 
ATOM      5  C   UNL     1       0.352   2.107   3.599  0.00  0.00    +0.012 A 
ATOM      6  C   UNL     1       0.531   3.454   3.668  0.00  0.00    +0.001 A 
ATOM      7  C   UNL     1       0.438   4.139   4.878  0.00  0.00    +0.002 A 
ATOM      8  C   UNL     1       0.166   3.498   6.045  0.00  0.00    +0.028 A 
ATOM      9  C   UNL     1      -0.031   2.101   6.044  0.00  0.00    +0.073 A 
ATOM     10  N   UNL     1      -0.299   1.451   7.173  0.00  0.00    -0.247 NA
ATOM     11  C   UNL     1      -0.487   0.134   7.193  0.00  0.00    +0.073 A 
ATOM     12  C   UNL     1      -0.412  -0.653   5.961  0.00  0.00    +0.022 A 
ATOM     13  C   UNL     1      -0.622  -2.042   6.021  0.00  0.00    +0.012 A 
ATOM     14  C   UNL     1      -0.897  -2.627   7.218  0.00  0.00    +0.001 A 
ATOM     15  C   UNL     1      -0.976  -1.881   8.392  0.00  0.00    +0.002 A 
ATOM     16  C   UNL     1      -0.770  -0.538   8.401  0.00  0.00    +0.028 A 
ENDBRANCH   1   3
BRANCH   1  26
ATOM     17  C   UNL     1       3.786  -1.530   1.938  0.00  0.00    +0.046 C 
ATOM     18  C   UNL     1       2.528  -2.116   1.352  0.00  0.00    -0.015 C 
ATOM     19  C   UNL     1       2.588  -2.969   0.260  0.00  0.00    +0.118 C 
ATOM     20  C   UNL     1       1.350  -3.526  -0.291  0.00  0.00    +0.263 C 
ATOM     21  O   UNL     1       1.403  -4.275  -1.250  0.00  0.00    -0.269 OA
ATOM     22  N   UNL     1       0.157  -3.220   0.248  0.00  0.00    -0.237 N 
ATOM     23  C   UNL     1       0.058  -2.397   1.307  0.00  0.00    +0.254 C 
ATOM     24  O   UNL     1      -1.036  -2.139   1.773  0.00  0.00    -0.270 OA
ATOM     25  C   UNL     1       1.265  -1.812   1.908  0.00  0.00    +0.055 C 
ATOM     26  C   UNL     1       1.165  -0.966   3.006  0.00  0.00    +0.085 C 
ATOM     27  C   UNL     1      -1.060  -3.796  -0.330  0.00  0.00    +0.142 C 
BRANCH  19  28
ATOM     28  C   UNL     1       3.851  -3.303  -0.326  0.00  0.00    +0.105 C 
ATOM     29  N   UNL     1       4.854  -3.568  -0.790  0.00  0.00    -0.191 NA
ENDBRANCH  19  28
ENDBRANCH   1  26
TORSDOF 3
