REMARK  Name = ZINC39448255
REMARK  9 active torsions:
REMARK  status: ('A' for Active; 'I' for Inactive)
REMARK    1  A    between atoms: C_1  and  C_2
REMARK    2  A    between atoms: C_4  and  C_16
REMARK    3  A    between atoms: C_5  and  C_15
REMARK    4  A    between atoms: N_7  and  C_8
REMARK    5  A    between atoms: C_8  and  C_9
REMARK    6  A    between atoms: C_16  and  N_17
REMARK    7  A    between atoms: C_18  and  C_20
REMARK    8  A    between atoms: C_20  and  C_21
REMARK    9  A    between atoms: C_21  and  N_22
REMARK                            x       y       z     vdW  Elec       q    Type
REMARK                         _______ _______ _______ _____ _____    ______ ____
ROOT
ATOM      1  N   UNL     1      -3.121   0.640  -1.124  0.00  0.00    -0.311 N 
ATOM      2  C   UNL     1      -4.072   0.805  -2.064  0.00  0.00    +0.215 C 
ATOM      3  O   UNL     1      -4.337  -0.103  -2.824  0.00  0.00    -0.276 OA
ATOM      4  H   UNL     1      -2.909   1.366  -0.516  0.00  0.00    +0.149 HD
ENDROOT
BRANCH   1   5
ATOM      5  C   UNL     1      -2.408  -0.635  -1.019  0.00  0.00    +0.138 C 
BRANCH   5   8
ATOM      6  C   UNL     1      -0.019   1.526   0.010  0.00  0.00    +0.030 C 
ATOM      7  C   UNL     1       0.002  -0.004   0.002  0.00  0.00    +0.100 C 
ATOM      8  C   UNL     1      -1.405  -0.558   0.104  0.00  0.00    -0.018 C 
ATOM      9  C   UNL     1      -1.599  -0.959   1.335  0.00  0.00    -0.000 C 
ATOM     10  N   UNL     1      -0.470  -0.740   2.129  0.00  0.00    -0.354 NA
ATOM     11  N   UNL     1       0.667  -0.526   1.223  0.00  0.00    -0.235 NA
ATOM     12  C   UNL     1      -2.879  -1.578   1.833  0.00  0.00    +0.060 C 
ATOM     13  H   UNL     1      -0.609   0.077   2.705  0.00  0.00    +0.141 HD
ATOM     14  H   UNL     1      -0.298  -1.546   2.711  0.00  0.00    +0.141 HD
BRANCH  11  15
ATOM     15  C   UNL     1       1.605   0.461   1.774  0.00  0.00    +0.139 C 
BRANCH  15  16
ATOM     16  C   UNL     1       2.349  -0.146   2.936  0.00  0.00    -0.032 A 
ATOM     17  C   UNL     1       1.837  -0.040   4.215  0.00  0.00    +0.005 A 
ATOM     18  C   UNL     1       2.519  -0.597   5.281  0.00  0.00    +0.000 A 
ATOM     19  C   UNL     1       3.713  -1.261   5.066  0.00  0.00    +0.000 A 
ATOM     20  C   UNL     1       4.224  -1.368   3.786  0.00  0.00    +0.000 A 
ATOM     21  C   UNL     1       3.539  -0.815   2.720  0.00  0.00    +0.005 A 
ENDBRANCH  15  16
ENDBRANCH  11  15
ENDBRANCH   5   8
ENDBRANCH   1   5
BRANCH   2  22
ATOM     22  C   UNL     1      -4.806   2.116  -2.173  0.00  0.00    +0.117 C 
BRANCH  22  23
ATOM     23  C   UNL     1      -5.824   2.039  -3.312  0.00  0.00    +0.136 C 
BRANCH  23  24
ATOM     24  N   UNL     1      -6.538   3.314  -3.417  0.00  0.00    -0.288 N 
ATOM     25  C   UNL     1      -7.671   3.499  -2.706  0.00  0.00    +0.262 A 
ATOM     26  O   UNL     1      -8.104   2.623  -1.983  0.00  0.00    -0.267 OA
ATOM     27  C   UNL     1      -8.370   4.792  -2.830  0.00  0.00    +0.063 A 
ATOM     28  C   UNL     1      -9.543   5.060  -2.130  0.00  0.00    +0.015 A 
ATOM     29  C   UNL     1     -10.159   6.285  -2.280  0.00  0.00    +0.001 A 
ATOM     30  C   UNL     1      -9.616   7.245  -3.121  0.00  0.00    +0.002 A 
ATOM     31  C   UNL     1      -8.453   6.991  -3.821  0.00  0.00    +0.026 A 
ATOM     32  C   UNL     1      -7.820   5.766  -3.682  0.00  0.00    +0.053 A 
ATOM     33  N   UNL     1      -6.650   5.471  -4.366  0.00  0.00    -0.335 N 
ATOM     34  H   UNL     1      -6.259   6.133  -4.957  0.00  0.00    +0.168 HD
ATOM     35  C   UNL     1      -6.050   4.278  -4.214  0.00  0.00    +0.161 A 
ATOM     36  S   UNL     1      -4.604   3.972  -5.078  0.00  0.00    -0.013 S 
ENDBRANCH  23  24
ENDBRANCH  22  23
ENDBRANCH   2  22
TORSDOF 7
