REMARK  Name = ZINC29787311
REMARK  9 active torsions:
REMARK  status: ('A' for Active; 'I' for Inactive)
REMARK    1  A    between atoms: C_1  and  C_2
REMARK    2  A    between atoms: C_2  and  C_26
REMARK    3  A    between atoms: C_4  and  N_10
REMARK    4  A    between atoms: C_6  and  C_8
REMARK    5  A    between atoms: C_6  and  C_9
REMARK    6  A    between atoms: C_11  and  C_13
REMARK    7  A    between atoms: C_13  and  C_14
REMARK    8  A    between atoms: C_14  and  C_15
REMARK    9  A    between atoms: C_15  and  N_16
REMARK                            x       y       z     vdW  Elec       q    Type
REMARK                         _______ _______ _______ _____ _____    ______ ____
ROOT
ATOM      1  N   UNL     1       7.402   0.505  -3.178  0.00  0.00    -0.313 N 
ATOM      2  C   UNL     1       6.080   0.540  -2.919  0.00  0.00    +0.213 C 
ATOM      3  O   UNL     1       5.282   0.567  -3.832  0.00  0.00    -0.276 OA
ATOM      4  H   UNL     1       8.124   0.480  -2.350  0.00  0.00    +0.149 HD
ENDROOT
BRANCH   1   8
ATOM      5  C   UNL     1       9.158   2.181  -6.852  0.00  0.00    -0.010 C 
ATOM      6  C   UNL     1       9.822   1.056  -6.050  0.00  0.00    -0.072 C 
ATOM      7  C   UNL     1       9.294   1.069  -4.617  0.00  0.00    +0.009 C 
ATOM      8  C   UNL     1       7.877   0.498  -4.568  0.00  0.00    +0.070 C 
ATOM      9  C   UNL     1       7.915  -0.941  -5.080  0.00  0.00    +0.009 C 
ATOM     10  C   UNL     1       8.428  -0.981  -6.517  0.00  0.00    -0.072 C 
ATOM     11  N   UNL     1       9.649  -0.225  -6.703  0.00  0.00    +0.386 N 
ATOM     12  C   UNL     1       7.327  -0.495  -7.468  0.00  0.00    -0.010 C 
ATOM     13  C   UNL     1       8.716  -2.457  -6.868  0.00  0.00    -0.010 C 
ATOM     14  C   UNL     1      11.334   1.367  -5.991  0.00  0.00    -0.010 C 
ATOM     15  H   UNL     1       9.714  -0.092  -7.793  0.00  0.00    -0.084 HD
ATOM     16  H   UNL     1      10.439  -0.916  -6.370  0.00  0.00    -0.084 HD
ENDBRANCH   1   8
BRANCH   2  17
ATOM     17  C   UNL     1       5.592   0.547  -1.493  0.00  0.00    +0.097 C 
BRANCH  17  18
ATOM     18  C   UNL     1       4.062   0.589  -1.477  0.00  0.00    +0.031 C 
BRANCH  18  19
ATOM     19  C   UNL     1       3.567   0.596  -0.029  0.00  0.00    +0.129 C 
BRANCH  19  20
ATOM     20  N   UNL     1       2.103   0.636  -0.015  0.00  0.00    -0.274 N 
ATOM     21  C   UNL     1       1.310   1.784  -0.001  0.00  0.00    +0.090 A 
ATOM     22  C   UNL     1       1.597   3.139   0.004  0.00  0.00    +0.030 A 
ATOM     23  C   UNL     1       0.568   4.060   0.018  0.00  0.00    +0.002 A 
ATOM     24  C   UNL     1      -0.749   3.632   0.029  0.00  0.00    +0.004 A 
ATOM     25  C   UNL     1      -1.043   2.283   0.029  0.00  0.00    +0.048 A 
ATOM     26  C   UNL     1      -0.016   1.351   0.009  0.00  0.00    +0.157 A 
ATOM     27  O   UNL     1       0.002  -0.004   0.002  0.00  0.00    -0.407 OA
ATOM     28  C   UNL     1       1.276  -0.428  -0.012  0.00  0.00    +0.421 A 
ATOM     29  O   UNL     1       1.629  -1.591  -0.021  0.00  0.00    -0.223 OA
ENDBRANCH  19  20
ENDBRANCH  18  19
ENDBRANCH  17  18
ENDBRANCH   2  17
TORSDOF 5
