REMARK  Name = ZINC58302202
REMARK  11 active torsions:
REMARK  status: ('A' for Active; 'I' for Inactive)
REMARK    1  A    between atoms: C_1  and  C_2
REMARK    2  A    between atoms: C_2  and  C_3
REMARK    3  A    between atoms: N_11  and  C_15
REMARK    4  A    between atoms: C_15  and  C_16
REMARK    5  A    between atoms: N_18  and  C_19
REMARK    6  A    between atoms: C_22  and  N_25
REMARK    7  A    between atoms: N_25  and  C_26
REMARK    8  A    between atoms: N_25  and  C_28
REMARK    9  A    between atoms: C_26  and  C_27
REMARK   10  A    between atoms: C_28  and  C_29
REMARK   11  A    between atoms: C_28  and  C_30
REMARK                            x       y       z     vdW  Elec       q    Type
REMARK                         _______ _______ _______ _____ _____    ______ ____
ROOT
ATOM      1  C   UNL     1      -4.489  -3.739   5.351  0.00  0.00    +0.235 C 
ATOM      2  O   UNL     1      -4.798  -2.570   5.256  0.00  0.00    -0.274 OA
ATOM      3  N   UNL     1      -4.303  -4.290   6.567  0.00  0.00    -0.284 N 
ATOM      4  H   UNL     1      -4.123  -5.239   6.647  0.00  0.00    +0.155 HD
ENDROOT
BRANCH   3   5
ATOM      5  C   UNL     1      -4.368  -3.491   7.714  0.00  0.00    +0.034 A 
ATOM      6  C   UNL     1      -3.532  -3.752   8.792  0.00  0.00    +0.025 A 
ATOM      7  C   UNL     1      -3.599  -2.963   9.923  0.00  0.00    +0.023 A 
ATOM      8  C   UNL     1      -4.497  -1.913   9.983  0.00  0.00    +0.014 A 
ATOM      9  C   UNL     1      -5.331  -1.650   8.912  0.00  0.00    +0.023 A 
ATOM     10  C   UNL     1      -5.265  -2.432   7.775  0.00  0.00    +0.025 A 
BRANCH   8  11
ATOM     11  N   UNL     1      -4.562  -1.115  11.129  0.00  0.00    -0.392 NA
ATOM     12  H   UNL     1      -3.891  -1.444  11.807  0.00  0.00    +0.127 HD
BRANCH  11  13
ATOM     13  C   UNL     1      -5.913  -1.190  11.702  0.00  0.00    +0.049 C 
ATOM     14  C   UNL     1      -6.275  -2.654  11.964  0.00  0.00    +0.026 C 
ATOM     15  C   UNL     1      -5.953  -0.411  13.018  0.00  0.00    +0.026 C 
ENDBRANCH  11  13
BRANCH  11  16
ATOM     16  C   UNL     1      -4.258   0.278  10.775  0.00  0.00    +0.082 C 
ATOM     17  C   UNL     1      -2.809   0.376  10.293  0.00  0.00    +0.022 C 
ENDBRANCH  11  16
ENDBRANCH   8  11
ENDBRANCH   3   5
BRANCH   1  18
ATOM     18  C   UNL     1      -4.314  -4.575   4.110  0.00  0.00    +0.214 C 
BRANCH  18  27
ATOM     19  C   UNL     1      -2.230  -0.862  -0.210  0.00  0.00    -0.011 C 
ATOM     20  C   UNL     1      -2.779  -0.417   1.147  0.00  0.00    +0.006 C 
ATOM     21  C   UNL     1      -4.243  -0.847   1.270  0.00  0.00    +0.035 C 
ATOM     22  C   UNL     1      -4.344  -2.362   1.134  0.00  0.00    +0.113 C 
ATOM     23  C   UNL     1      -3.777  -2.824  -0.204  0.00  0.00    +0.035 C 
ATOM     24  C   UNL     1      -2.315  -2.386  -0.321  0.00  0.00    +0.006 C 
ATOM     25  C   UNL     1      -3.625  -3.044   2.275  0.00  0.00    +0.247 C 
ATOM     26  O   UNL     1      -2.446  -2.970   2.548  0.00  0.00    -0.273 OA
ATOM     27  N   UNL     1      -4.571  -3.752   2.926  0.00  0.00    -0.215 N 
ATOM     28  C   UNL     1      -5.773  -3.609   2.355  0.00  0.00    +0.310 C 
ATOM     29  O   UNL     1      -6.783  -4.150   2.761  0.00  0.00    -0.252 OA
ATOM     30  N   UNL     1      -5.739  -2.799   1.280  0.00  0.00    -0.285 N 
ATOM     31  H   UNL     1      -6.487  -2.553   0.714  0.00  0.00    +0.151 HD
BRANCH  19  33
ATOM     32  C   UNL     1      -0.698   1.106  -0.353  0.00  0.00    +0.004 C 
ATOM     33  C   UNL     1      -0.770  -0.422  -0.339  0.00  0.00    -0.000 C 
ENDBRANCH  19  33
ENDBRANCH  18  27
ENDBRANCH   1  18
TORSDOF 7
