REMARK  Name = ZINC23044261
REMARK  10 active torsions:
REMARK  status: ('A' for Active; 'I' for Inactive)
REMARK    1  A    between atoms: C_1  and  C_2
REMARK    2  A    between atoms: C_2  and  C_3
REMARK    3  A    between atoms: C_3  and  N_4
REMARK    4  A    between atoms: C_8  and  S_28
REMARK    5  A    between atoms: C_12  and  S_13
REMARK    6  A    between atoms: S_13  and  C_14
REMARK    7  A    between atoms: C_14  and  C_15
REMARK    8  A    between atoms: C_23  and  C_27
REMARK    9  A    between atoms: C_24  and  C_26
REMARK   10  A    between atoms: S_28  and  N_31
REMARK                            x       y       z     vdW  Elec       q    Type
REMARK                         _______ _______ _______ _____ _____    ______ ____
ROOT
ATOM      1  N   UNL     1      -4.112  -2.517  -2.361  0.00  0.00    -0.319 N 
ATOM      2  C   UNL     1      -5.153  -3.167  -1.718  0.00  0.00    +0.070 A 
ATOM      3  C   UNL     1      -6.274  -3.854  -2.158  0.00  0.00    +0.030 A 
ATOM      4  C   UNL     1      -7.146  -4.404  -1.241  0.00  0.00    +0.030 A 
ATOM      5  C   UNL     1      -6.909  -4.273   0.120  0.00  0.00    +0.107 A 
ATOM      6  C   UNL     1      -5.801  -3.593   0.574  0.00  0.00    +0.058 A 
ATOM      7  C   UNL     1      -4.908  -3.031  -0.342  0.00  0.00    +0.092 A 
ATOM      8  N   UNL     1      -3.754  -2.327  -0.208  0.00  0.00    -0.222 NA
ATOM      9  C   UNL     1      -3.286  -2.018  -1.393  0.00  0.00    +0.170 A 
ENDROOT
BRANCH   5  10
ATOM     10  S   UNL     1      -8.035  -4.981   1.275  0.00  0.00    +0.056 S 
ATOM     11  O   UNL     1      -7.884  -4.254   2.487  0.00  0.00    -0.153 OA
ATOM     12  O   UNL     1      -9.283  -5.098   0.607  0.00  0.00    -0.153 OA
BRANCH  10  13
ATOM     13  N   UNL     1      -7.516  -6.524   1.581  0.00  0.00    -0.204 NA
ATOM     14  H   UNL     1      -8.195  -7.003   2.302  0.00  0.00    +0.144 HD
ATOM     15  H   UNL     1      -6.499  -6.492   2.001  0.00  0.00    +0.144 HD
ENDBRANCH  10  13
ENDBRANCH   5  10
BRANCH   1  16
ATOM     16  C   UNL     1      -3.929  -2.388  -3.809  0.00  0.00    +0.124 C 
BRANCH  16  18
ATOM     17  C   UNL     1      -2.917  -3.437  -5.838  0.00  0.00    +0.005 C 
ATOM     18  C   UNL     1      -3.108  -3.571  -4.326  0.00  0.00    +0.018 C 
ENDBRANCH  16  18
ENDBRANCH   1  16
BRANCH   9  19
ATOM     19  S   UNL     1      -1.810  -1.104  -1.692  0.00  0.00    -0.083 S 
BRANCH  19  20
ATOM     20  C   UNL     1      -1.280  -0.796   0.011  0.00  0.00    +0.113 C 
BRANCH  20  21
ATOM     21  C   UNL     1       0.002  -0.004   0.002  0.00  0.00    -0.020 A 
ATOM     22  C   UNL     1      -0.016   1.353   0.009  0.00  0.00    +0.097 A 
ATOM     23  C   UNL     1       1.199   2.071   0.002  0.00  0.00    +0.338 A 
ATOM     24  O   UNL     1       1.169   3.289   0.008  0.00  0.00    -0.245 OA
ATOM     25  O   UNL     1       2.387   1.447  -0.013  0.00  0.00    -0.422 OA
ATOM     26  C   UNL     1       2.475   0.100  -0.021  0.00  0.00    +0.140 A 
ATOM     27  C   UNL     1       1.304  -0.679  -0.014  0.00  0.00    +0.022 A 
ATOM     28  C   UNL     1       1.393  -2.074  -0.022  0.00  0.00    +0.015 A 
ATOM     29  C   UNL     1       2.621  -2.674  -0.036  0.00  0.00    -0.047 A 
ATOM     30  C   UNL     1       3.778  -1.910  -0.043  0.00  0.00    -0.044 A 
ATOM     31  C   UNL     1       3.712  -0.532  -0.036  0.00  0.00    +0.050 A 
ATOM     32  C   UNL     1       5.122  -2.591  -0.058  0.00  0.00    +0.044 C 
ATOM     33  C   UNL     1       2.718  -4.178  -0.045  0.00  0.00    +0.044 C 
ENDBRANCH  20  21
ENDBRANCH  19  20
ENDBRANCH   9  19
TORSDOF 7
