REMARK  Name = ZINC09836178
REMARK  9 active torsions:
REMARK  status: ('A' for Active; 'I' for Inactive)
REMARK    1  A    between atoms: C_1  and  C_2
REMARK    2  A    between atoms: C_2  and  C_3
REMARK    3  A    between atoms: C_3  and  N_4
REMARK    4  A    between atoms: C_5  and  C_7
REMARK    5  A    between atoms: C_7  and  O_28
REMARK    6  A    between atoms: N_17  and  C_18
REMARK    7  A    between atoms: C_21  and  O_24
REMARK    8  A    between atoms: O_24  and  C_25
REMARK    9  A    between atoms: C_25  and  C_26
REMARK                            x       y       z     vdW  Elec       q    Type
REMARK                         _______ _______ _______ _____ _____    ______ ____
ROOT
ATOM      1  C   UNL     1      -2.497   4.771   0.477  0.00  0.00    +0.247 C 
ATOM      2  C   UNL     1      -1.203   3.992   0.429  0.00  0.00    +0.034 A 
ATOM      3  C   UNL     1      -1.152   2.667   0.795  0.00  0.00    +0.025 A 
ATOM      4  C   UNL     1       0.054   1.987   0.744  0.00  0.00    +0.018 A 
ATOM      5  C   UNL     1       1.198   2.637   0.316  0.00  0.00    +0.017 A 
ATOM      6  C   UNL     1       1.147   3.966  -0.056  0.00  0.00    +0.025 A 
ATOM      7  C   UNL     1      -0.058   4.654  -0.001  0.00  0.00    +0.043 A 
ATOM      8  N   UNL     1      -0.130   5.997  -0.373  0.00  0.00    -0.269 N 
ATOM      9  C   UNL     1      -1.267   6.703  -0.338  0.00  0.00    +0.314 C 
ATOM     10  O   UNL     1      -1.236   7.869  -0.680  0.00  0.00    -0.252 OA
ATOM     11  N   UNL     1      -2.442   6.182   0.059  0.00  0.00    -0.214 N 
ATOM     12 BR   UNL     1       0.135   0.167   1.251  0.00  0.00    -0.050 Br
ATOM     13  H   UNL     1       0.681   6.439  -0.670  0.00  0.00    +0.156 HD
ENDROOT
BRANCH  11  14
ATOM     14  C   UNL     1      -3.599   6.972   0.074  0.00  0.00    +0.042 A 
ATOM     15  C   UNL     1      -4.466   6.955  -1.010  0.00  0.00    +0.027 A 
ATOM     16  C   UNL     1      -5.609   7.729  -0.993  0.00  0.00    +0.047 A 
ATOM     17  C   UNL     1      -5.886   8.533   0.103  0.00  0.00    +0.121 A 
ATOM     18  C   UNL     1      -5.017   8.556   1.185  0.00  0.00    +0.047 A 
ATOM     19  C   UNL     1      -3.877   7.777   1.171  0.00  0.00    +0.027 A 
BRANCH  17  20
ATOM     20  O   UNL     1      -7.009   9.300   0.118  0.00  0.00    -0.492 OA
BRANCH  20  21
ATOM     21  C   UNL     1      -7.859   9.227  -1.029  0.00  0.00    +0.225 C 
ATOM     22  C   UNL     1      -9.062  10.151  -0.831  0.00  0.00    +0.048 C 
ENDBRANCH  20  21
ENDBRANCH  17  20
ENDBRANCH  11  14
BRANCH   1  24
ATOM     23  N   UNL     1      -2.320   5.314   2.884  0.00  0.00    -0.311 N 
ATOM     24  C   UNL     1      -3.016   4.725   1.891  0.00  0.00    +0.269 C 
ATOM     25  O   UNL     1      -4.059   4.157   2.137  0.00  0.00    -0.270 OA
ATOM     26  H   UNL     1      -1.485   5.768   2.687  0.00  0.00    +0.149 HD
BRANCH  23  27
ATOM     27  C   UNL     1      -2.823   5.270   4.258  0.00  0.00    +0.104 C 
BRANCH  27  29
ATOM     28  C   UNL     1      -2.378   5.961   6.618  0.00  0.00    +0.005 C 
ATOM     29  C   UNL     1      -1.852   6.008   5.182  0.00  0.00    +0.015 C 
ENDBRANCH  27  29
ENDBRANCH  23  27
ENDBRANCH   1  24
BRANCH   1  30
ATOM     30  O   UNL     1      -3.445   4.101  -0.357  0.00  0.00    -0.360 OA
ATOM     31  H   UNL     1      -3.633   3.192  -0.087  0.00  0.00    +0.213 HD
ENDBRANCH   1  30
TORSDOF 7
