REMARK  Name = ZINC23461019
REMARK  9 active torsions:
REMARK  status: ('A' for Active; 'I' for Inactive)
REMARK    1  A    between atoms: C_1  and  C_2
REMARK    2  A    between atoms: C_2  and  C_3
REMARK    3  A    between atoms: C_10  and  C_12
REMARK    4  A    between atoms: C_15  and  S_18
REMARK    5  A    between atoms: N_16  and  C_17
REMARK    6  A    between atoms: S_18  and  C_19
REMARK    7  A    between atoms: C_19  and  C_20
REMARK    8  A    between atoms: C_22  and  O_23
REMARK    9  A    between atoms: C_32  and  C_34
REMARK                            x       y       z     vdW  Elec       q    Type
REMARK                         _______ _______ _______ _____ _____    ______ ____
ROOT
ATOM      1  S   UNL     1       8.996  -0.470   6.934  0.00  0.00    -0.081 S 
ENDROOT
BRANCH   1   5
ATOM      2  C   UNL     1       6.465   0.151   4.020  0.00  0.00    +0.171 A 
ATOM      3  N   UNL     1       7.467   0.944   3.709  0.00  0.00    -0.128 NA
ATOM      4  N   UNL     1       8.394   0.847   4.593  0.00  0.00    -0.122 NA
ATOM      5  C   UNL     1       8.044  -0.012   5.523  0.00  0.00    +0.192 A 
ATOM      6  N   UNL     1       6.803  -0.482   5.195  0.00  0.00    -0.305 N 
ATOM      7  C   UNL     1       6.001  -1.458   5.937  0.00  0.00    +0.153 C 
BRANCH   2  14
ATOM      8  C   UNL     1       1.366   0.853   0.463  0.00  0.00    -0.007 C 
ATOM      9  C   UNL     1       1.212  -0.665   0.337  0.00  0.00    +0.009 C 
ATOM     10  C   UNL     1       1.592  -1.312   1.677  0.00  0.00    +0.043 C 
ATOM     11  C   UNL     1       2.885  -0.719   2.136  0.00  0.00    -0.006 A 
ATOM     12  C   UNL     1       3.492   0.409   1.668  0.00  0.00    -0.036 A 
ATOM     13  C   UNL     1       4.700   0.757   2.259  0.00  0.00    +0.023 A 
ATOM     14  C   UNL     1       5.217  -0.022   3.259  0.00  0.00    +0.057 A 
ATOM     15  S   UNL     1       3.981  -1.304   3.400  0.00  0.00    -0.090 S 
ATOM     16  C   UNL     1       2.848   1.221   0.549  0.00  0.00    +0.039 C 
BRANCH   8  18
ATOM     17  C   UNL     1       0.781   3.048  -0.577  0.00  0.00    +0.004 C 
ATOM     18  C   UNL     1       0.745   1.530  -0.761  0.00  0.00    +0.000 C 
ENDBRANCH   8  18
ENDBRANCH   2  14
ENDBRANCH   1   5
BRANCH   1  19
ATOM     19  C   UNL     1      10.514   0.510   6.776  0.00  0.00    +0.113 C 
BRANCH  19  20
ATOM     20  C   UNL     1      11.429   0.210   7.936  0.00  0.00    -0.020 A 
ATOM     21  C   UNL     1      11.163   0.714   9.193  0.00  0.00    +0.092 A 
ATOM     22  C   UNL     1      12.016   0.426  10.248  0.00  0.00    +0.285 A 
ATOM     23  O   UNL     1      13.102  -0.335  10.078  0.00  0.00    -0.425 OA
ATOM     24  C   UNL     1      13.409  -0.853   8.871  0.00  0.00    +0.141 A 
ATOM     25  C   UNL     1      12.572  -0.598   7.761  0.00  0.00    +0.022 A 
ATOM     26  C   UNL     1      12.886  -1.140   6.503  0.00  0.00    +0.013 A 
ATOM     27  C   UNL     1      13.992  -1.915   6.354  0.00  0.00    +0.024 A 
ATOM     28  C   UNL     1      14.828  -2.179   7.454  0.00  0.00    +0.037 A 
ATOM     29  C   UNL     1      14.536  -1.639   8.708  0.00  0.00    +0.070 A 
ATOM     30  N   UNL     1      15.933  -2.958   7.293  0.00  0.00    -0.286 N 
ATOM     31  C   UNL     1      16.539  -3.469   8.347  0.00  0.00    +0.214 C 
ATOM     32  O   UNL     1      16.043  -3.348   9.453  0.00  0.00    -0.276 OA
ATOM     33  C   UNL     1      17.845  -4.203   8.183  0.00  0.00    +0.109 C 
ATOM     34  H   UNL     1      16.275  -3.136   6.403  0.00  0.00    +0.155 HD
BRANCH  22  35
ATOM     35  O   UNL     1      11.745   0.924  11.470  0.00  0.00    -0.480 OA
ATOM     36  H   UNL     1      12.389   0.676  12.147  0.00  0.00    +0.295 HD
ENDBRANCH  22  35
ENDBRANCH  19  20
ENDBRANCH   1  19
TORSDOF 6
