REMARK  Name = ZINC59588966
REMARK  4 active torsions:
REMARK  status: ('A' for Active; 'I' for Inactive)
REMARK    1  A    between atoms: C_5  and  C_7
REMARK    2  A    between atoms: C_13  and  N_17
REMARK    3  A    between atoms: N_17  and  S_18
REMARK    4  A    between atoms: S_18  and  C_21
REMARK                            x       y       z     vdW  Elec       q    Type
REMARK                         _______ _______ _______ _____ _____    ______ ____
ROOT
ATOM      1  C   UNL     1       1.249  -2.161  -0.022  0.00  0.00    +0.141 A 
ATOM      2  N   UNL     1       0.144  -2.968  -0.021  0.00  0.00    -0.338 N 
ATOM      3  H   UNL     1      -0.781  -2.678  -0.015  0.00  0.00    +0.167 HD
ATOM      4  C   UNL     1       0.594  -4.277  -0.031  0.00  0.00    +0.067 A 
ATOM      5  C   UNL     1      -0.041  -5.511  -0.035  0.00  0.00    +0.029 A 
ATOM      6  C   UNL     1       0.705  -6.669  -0.045  0.00  0.00    +0.026 A 
ATOM      7  C   UNL     1       2.098  -6.610  -0.052  0.00  0.00    +0.050 A 
ATOM      8  C   UNL     1       2.746  -5.390  -0.049  0.00  0.00    +0.054 A 
ATOM      9  C   UNL     1       1.998  -4.208  -0.038  0.00  0.00    +0.091 A 
ATOM     10  N   UNL     1       2.335  -2.895  -0.038  0.00  0.00    -0.228 NA
ENDROOT
BRANCH   1  15
ATOM     11  C   UNL     1      -0.017   1.375   0.010  0.00  0.00    +0.001 A 
ATOM     12  C   UNL     1       1.170   2.087   0.002  0.00  0.00    +0.001 A 
ATOM     13  C   UNL     1       2.383   1.422  -0.013  0.00  0.00    +0.021 A 
ATOM     14  C   UNL     1       2.416   0.041  -0.022  0.00  0.00    +0.052 A 
ATOM     15  C   UNL     1       1.222  -0.683  -0.014  0.00  0.00    +0.036 A 
ATOM     16  C   UNL     1       0.002  -0.004   0.002  0.00  0.00    +0.013 A 
ATOM     17 CL   UNL     1       3.938  -0.793  -0.042  0.00  0.00    -0.083 Cl
ENDBRANCH   1  15
BRANCH   7  18
ATOM     18  N   UNL     1       2.844  -7.794  -0.062  0.00  0.00    -0.216 N 
ATOM     19  H   UNL     1       3.608  -7.890   0.527  0.00  0.00    +0.174 HD
BRANCH  18  20
ATOM     20  S   UNL     1       2.422  -9.030  -1.081  0.00  0.00    +0.072 S 
ATOM     21  O   UNL     1       3.374 -10.066  -0.878  0.00  0.00    -0.150 OA
ATOM     22  O   UNL     1       1.026  -9.234  -0.915  0.00  0.00    -0.150 OA
BRANCH  20  23
ATOM     23  C   UNL     1       2.654  -8.449  -2.728  0.00  0.00    +0.109 A 
ATOM     24  C   UNL     1       1.617  -7.816  -3.389  0.00  0.00    +0.030 A 
ATOM     25  C   UNL     1       1.795  -7.360  -4.680  0.00  0.00    +0.025 A 
ATOM     26  C   UNL     1       3.018  -7.536  -5.315  0.00  0.00    +0.037 A 
ATOM     27  C   UNL     1       4.057  -8.172  -4.648  0.00  0.00    -0.024 A 
ATOM     28  C   UNL     1       3.874  -8.622  -3.356  0.00  0.00    +0.034 A 
ATOM     29  C   UNL     1       5.383  -8.363  -5.337  0.00  0.00    +0.046 C 
ATOM     30  C   UNL     1       5.155  -8.592  -6.831  0.00  0.00    +0.101 C 
ATOM     31  C   UNL     1       4.216  -7.548  -7.373  0.00  0.00    +0.218 C 
ATOM     32  O   UNL     1       4.373  -7.128  -8.499  0.00  0.00    -0.275 OA
ATOM     33  N   UNL     1       3.205  -7.076  -6.622  0.00  0.00    -0.285 N 
ATOM     34  H   UNL     1       2.601  -6.412  -6.990  0.00  0.00    +0.155 HD
ENDBRANCH  20  23
ENDBRANCH  18  20
ENDBRANCH   7  18
TORSDOF 4
