REMARK  Name = ZINC65372696
REMARK  5 active torsions:
REMARK  status: ('A' for Active; 'I' for Inactive)
REMARK    1  A    between atoms: C_4  and  C_7
REMARK    2  A    between atoms: C_9  and  C_27
REMARK    3  A    between atoms: N_11  and  C_14
REMARK    4  A    between atoms: C_14  and  C_15
REMARK    5  A    between atoms: C_20  and  C_21
REMARK                            x       y       z     vdW  Elec       q    Type
REMARK                         _______ _______ _______ _____ _____    ______ ____
ROOT
ATOM      1  C   UNL     1       3.984  -0.519  -0.099  0.00  0.00    +0.108 C 
ATOM      2  C   UNL     1       4.246  -1.078  -1.510  0.00  0.00    +0.127 C 
ATOM      3  N   UNL     1       4.164  -2.552  -1.378  0.00  0.00    -0.279 NA
ATOM      4  C   UNL     1       4.456  -2.812   0.055  0.00  0.00    +0.169 C 
ATOM      5  N   UNL     1       3.768  -1.703   0.767  0.00  0.00    -0.295 NA
ATOM      6  H   UNL     1       4.165  -1.558   1.683  0.00  0.00    +0.124 HD
ENDROOT
BRANCH   2   7
ATOM      7  C   UNL     1       3.196  -0.581  -2.470  0.00  0.00    +0.052 A 
ATOM      8  H   UNL     1       2.019   0.973  -4.906  0.00  0.00    +0.166 HD
ATOM      9  C   UNL     1       3.408   0.233  -3.523  0.00  0.00    +0.106 A 
ATOM     10  N   UNL     1       2.192   0.431  -4.120  0.00  0.00    -0.352 N 
ATOM     11  C   UNL     1       1.280  -0.268  -3.412  0.00  0.00    +0.171 A 
ATOM     12  N   UNL     1       1.888  -0.875  -2.429  0.00  0.00    -0.348 N 
ATOM     13  H   UNL     1       1.461  -1.446  -1.772  0.00  0.00    +0.166 HD
ENDBRANCH   2   7
BRANCH   1  17
ATOM     14  C   UNL     1       0.503   1.957  -0.115  0.00  0.00    +0.000 A 
ATOM     15  C   UNL     1       1.761   2.531  -0.131  0.00  0.00    +0.000 A 
ATOM     16  C   UNL     1       2.887   1.730  -0.126  0.00  0.00    +0.005 A 
ATOM     17  C   UNL     1       2.756   0.354  -0.104  0.00  0.00    -0.029 A 
ATOM     18  C   UNL     1       1.499  -0.221  -0.086  0.00  0.00    +0.005 A 
ATOM     19  C   UNL     1       0.373   0.581  -0.093  0.00  0.00    +0.000 A 
ENDBRANCH   1  17
BRANCH   3  20
ATOM     20  C   UNL     1       5.149  -3.214  -2.244  0.00  0.00    +0.101 C 
BRANCH  20  21
ATOM     21  C   UNL     1       4.662  -3.173  -3.694  0.00  0.00    +0.097 C 
ATOM     22  C   UNL     1       3.460  -4.077  -3.880  0.00  0.00    +0.118 C 
ATOM     23  N   UNL     1       3.814  -4.972  -4.743  0.00  0.00    -0.161 NA
ATOM     24  N   UNL     1       5.123  -4.800  -5.182  0.00  0.00    -0.153 NA
ATOM     25  C   UNL     1       5.701  -3.768  -4.623  0.00  0.00    +0.080 C 
BRANCH  25  26
ATOM     26  C   UNL     1       7.072  -3.284  -4.848  0.00  0.00    -0.001 A 
ATOM     27  C   UNL     1       7.543  -2.161  -4.161  0.00  0.00    +0.010 A 
ATOM     28  C   UNL     1       8.829  -1.714  -4.377  0.00  0.00    +0.001 A 
ATOM     29  C   UNL     1       9.654  -2.373  -5.272  0.00  0.00    +0.000 A 
ATOM     30  C   UNL     1       9.196  -3.486  -5.956  0.00  0.00    +0.001 A 
ATOM     31  C   UNL     1       7.914  -3.949  -5.745  0.00  0.00    +0.010 A 
ENDBRANCH  25  26
ENDBRANCH  20  21
ENDBRANCH   3  20
TORSDOF 5
