REMARK  Name = ZINC38706127
REMARK  14 active torsions:
REMARK  status: ('A' for Active; 'I' for Inactive)
REMARK    1  A    between atoms: C_1  and  C_2
REMARK    2  A    between atoms: C_4  and  C_40
REMARK    3  A    between atoms: C_5  and  C_9
REMARK    4  A    between atoms: C_6  and  O_8
REMARK    5  A    between atoms: N_17  and  C_33
REMARK    6  A    between atoms: C_18  and  C_20
REMARK    7  A    between atoms: C_23  and  O_28
REMARK    8  A    between atoms: C_24  and  O_26
REMARK    9  A    between atoms: O_26  and  C_27
REMARK   10  A    between atoms: O_28  and  C_29
REMARK   11  A    between atoms: C_29  and  C_30
REMARK   12  A    between atoms: C_30  and  C_31
REMARK   13  A    between atoms: C_30  and  C_32
REMARK   14  A    between atoms: C_33  and  C_34
REMARK                            x       y       z     vdW  Elec       q    Type
REMARK                         _______ _______ _______ _____ _____    ______ ____
ROOT
ATOM      1  C   UNL     1       0.224  -4.535  -0.150  0.00  0.00    +0.102 A 
ATOM      2  C   UNL     1       0.244  -5.256   1.048  0.00  0.00    +0.035 A 
ATOM      3  C   UNL     1       0.187  -6.589   0.687  0.00  0.00    +0.126 A 
ATOM      4  N   UNL     1       0.136  -6.610  -0.678  0.00  0.00    -0.272 N 
ATOM      5  H   UNL     1       0.090  -7.412  -1.221  0.00  0.00    +0.189 HD
ATOM      6  N   UNL     1       0.153  -5.408  -1.135  0.00  0.00    -0.173 NA
ATOM      7  C   UNL     1       0.204  -7.404   1.906  0.00  0.00    +0.266 C 
ATOM      8  O   UNL     1       0.165  -8.620   1.929  0.00  0.00    -0.268 OA
ATOM      9  N   UNL     1       0.270  -6.617   2.995  0.00  0.00    -0.281 N 
ATOM     10  C   UNL     1       0.300  -5.218   2.551  0.00  0.00    +0.142 C 
ENDROOT
BRANCH   1  15
ATOM     11  C   UNL     1       0.396   1.201  -0.687  0.00  0.00    +0.044 C 
ATOM     12  C   UNL     1       0.348  -0.299  -0.544  0.00  0.00    -0.047 A 
ATOM     13  C   UNL     1       1.215  -1.088  -1.280  0.00  0.00    +0.007 A 
ATOM     14  C   UNL     1       1.179  -2.462  -1.155  0.00  0.00    -0.037 A 
ATOM     15  C   UNL     1       0.267  -3.058  -0.287  0.00  0.00    +0.047 A 
ATOM     16  C   UNL     1      -0.607  -2.258   0.455  0.00  0.00    +0.127 A 
ATOM     17  C   UNL     1      -0.556  -0.879   0.325  0.00  0.00    +0.049 A 
ATOM     18  C   UNL     1       2.124  -3.318  -1.959  0.00  0.00    +0.044 C 
BRANCH  16  19
ATOM     19  O   UNL     1      -1.499  -2.830   1.304  0.00  0.00    -0.506 OA
ATOM     20  H   UNL     1      -1.195  -2.877   2.221  0.00  0.00    +0.292 HD
ENDBRANCH  16  19
ENDBRANCH   1  15
BRANCH  10  21
ATOM     21  C   UNL     1       1.576  -4.556   3.006  0.00  0.00    -0.019 A 
ATOM     22  C   UNL     1       2.791  -5.176   2.783  0.00  0.00    +0.009 A 
ATOM     23  C   UNL     1       3.964  -4.573   3.198  0.00  0.00    +0.050 A 
ATOM     24  C   UNL     1       3.923  -3.345   3.838  0.00  0.00    +0.162 A 
ATOM     25  C   UNL     1       2.700  -2.721   4.061  0.00  0.00    +0.162 A 
ATOM     26  C   UNL     1       1.528  -3.328   3.639  0.00  0.00    +0.055 A 
BRANCH  25  27
ATOM     27  O   UNL     1       2.654  -1.515   4.689  0.00  0.00    -0.491 OA
ATOM     28  C   UNL     1       1.364  -0.934   4.884  0.00  0.00    +0.277 C 
ENDBRANCH  25  27
BRANCH  24  29
ATOM     29  O   UNL     1       5.076  -2.751   4.247  0.00  0.00    -0.488 OA
BRANCH  29  30
ATOM     30  C   UNL     1       6.295  -3.450   3.985  0.00  0.00    +0.232 C 
BRANCH  30  31
ATOM     31  C   UNL     1       7.475  -2.632   4.513  0.00  0.00    +0.020 C 
ATOM     32  C   UNL     1       8.767  -3.435   4.345  0.00  0.00    +0.010 C 
ATOM     33  C   UNL     1       7.582  -1.324   3.728  0.00  0.00    +0.010 C 
ENDBRANCH  30  31
ENDBRANCH  29  30
ENDBRANCH  24  29
ENDBRANCH  10  21
BRANCH   9  34
ATOM     34  C   UNL     1       0.304  -7.077   4.386  0.00  0.00    +0.144 C 
BRANCH  34  35
ATOM     35  C   UNL     1       1.735  -7.282   4.812  0.00  0.00    -0.030 A 
ATOM     36  C   UNL     1       2.342  -8.510   4.628  0.00  0.00    +0.005 A 
ATOM     37  C   UNL     1       3.654  -8.698   5.019  0.00  0.00    +0.000 A 
ATOM     38  C   UNL     1       4.360  -7.658   5.594  0.00  0.00    +0.000 A 
ATOM     39  C   UNL     1       3.753  -6.429   5.777  0.00  0.00    +0.000 A 
ATOM     40  C   UNL     1       2.442  -6.240   5.382  0.00  0.00    +0.005 A 
ENDBRANCH  34  35
ENDBRANCH   9  34
TORSDOF 9
