REMARK  Name = ZINC26221867
REMARK  5 active torsions:
REMARK  status: ('A' for Active; 'I' for Inactive)
REMARK    1  A    between atoms: C_4  and  C_7
REMARK    2  A    between atoms: C_7  and  C_9
REMARK    3  A    between atoms: C_7  and  N_12
REMARK    4  A    between atoms: N_12  and  N_13
REMARK    5  A    between atoms: C_14  and  C_16
REMARK                            x       y       z     vdW  Elec       q    Type
REMARK                         _______ _______ _______ _____ _____    ______ ____
ROOT
ATOM      1  N   UNL     1       1.797   1.879   0.598  0.00  0.00    -0.245 N 
ATOM      2  C   UNL     1       0.925   0.853   0.664  0.00  0.00    +0.264 C 
ATOM      3  O   UNL     1      -0.255   1.041   0.430  0.00  0.00    -0.268 OA
ATOM      4  H   UNL     1       2.864   1.708   0.805  0.00  0.00    +0.169 HD
ENDROOT
BRANCH   2   5
ATOM      5  C   UNL     1       1.398  -0.490   1.012  0.00  0.00    +0.076 A 
ATOM      6  C   UNL     1       0.683  -1.661   1.133  0.00  0.00    +0.024 A 
ATOM      7  C   UNL     1       1.372  -2.826   1.483  0.00  0.00    -0.036 A 
ATOM      8  C   UNL     1       2.689  -2.706   1.727  0.00  0.00    -0.006 A 
ATOM      9  S   UNL     1       3.051  -1.042   1.383  0.00  0.00    -0.088 S 
ATOM     10  C   UNL     1       3.729  -3.671   2.239  0.00  0.00    +0.043 C 
ATOM     11  C   UNL     1       3.136  -5.046   2.551  0.00  0.00    +0.005 C 
ATOM     12  C   UNL     1       2.944  -5.862   1.283  0.00  0.00    +0.000 C 
ATOM     13  C   UNL     1       2.479  -5.029   0.106  0.00  0.00    +0.000 C 
ATOM     14  C   UNL     1       0.955  -4.909   0.218  0.00  0.00    +0.005 C 
ATOM     15  C   UNL     1       0.611  -4.144   1.495  0.00  0.00    +0.036 C 
ENDBRANCH   2   5
BRANCH   1  16
ATOM     16  N   UNL     1       1.356   3.130   0.274  0.00  0.00    -0.224 NA
ATOM     17  H   UNL     1       0.697   3.470   0.958  0.00  0.00    +0.145 HD
BRANCH  16  18
ATOM     18  C   UNL     1       2.482   4.061   0.120  0.00  0.00    +0.188 C 
BRANCH  18  22
ATOM     19  C   UNL     1       4.713   3.032  -3.375  0.00  0.00    +0.000 A 
ATOM     20  C   UNL     1       4.629   2.142  -2.321  0.00  0.00    +0.000 A 
ATOM     21  C   UNL     1       3.907   2.475  -1.190  0.00  0.00    +0.006 A 
ATOM     22  C   UNL     1       3.269   3.698  -1.113  0.00  0.00    -0.020 A 
ATOM     23  C   UNL     1       3.348   4.587  -2.169  0.00  0.00    +0.006 A 
ATOM     24  C   UNL     1       4.073   4.255  -3.298  0.00  0.00    +0.000 A 
ENDBRANCH  18  22
BRANCH  18  25
ATOM     25  C   UNL     1       3.375   3.974   1.330  0.00  0.00    +0.234 C 
ATOM     26  O   UNL     1       3.101   3.211   2.232  0.00  0.00    -0.274 OA
ATOM     27  N   UNL     1       4.479   4.744   1.410  0.00  0.00    -0.328 N 
ATOM     28  H   UNL     1       5.131   4.680   2.294  0.00  0.00    +0.145 HD
ATOM     29  H   UNL     1       4.727   5.436   0.592  0.00  0.00    +0.145 HD
ENDBRANCH  18  25
ENDBRANCH  16  18
ENDBRANCH   1  16
TORSDOF 5
