REMARK  Name = ZINC14623551
REMARK  12 active torsions:
REMARK  status: ('A' for Active; 'I' for Inactive)
REMARK    1  A    between atoms: C_1  and  C_2
REMARK    2  A    between atoms: C_2  and  C_3
REMARK    3  A    between atoms: C_3  and  C_4
REMARK    4  A    between atoms: C_4  and  N_5
REMARK    5  A    between atoms: C_6  and  N_29
REMARK    6  A    between atoms: C_7  and  N_14
REMARK    7  A    between atoms: N_14  and  C_15
REMARK    8  A    between atoms: C_15  and  C_16
REMARK    9  A    between atoms: C_16  and  C_17
REMARK   10  A    between atoms: C_17  and  C_18
REMARK   11  A    between atoms: C_17  and  C_19
REMARK   12  A    between atoms: C_20  and  C_22
REMARK                            x       y       z     vdW  Elec       q    Type
REMARK                         _______ _______ _______ _____ _____    ______ ____
ROOT
ATOM      1  N   UNL     1      -0.704   2.731  -2.571  0.00  0.00    -0.280 N 
ATOM      2  C   UNL     1       0.434   3.367  -2.131  0.00  0.00    +0.127 A 
ATOM      3  C   UNL     1       1.079   2.893  -1.007  0.00  0.00    +0.140 A 
ATOM      4  C   UNL     1       0.551   1.770  -0.343  0.00  0.00    +0.277 A 
ATOM      5  O   UNL     1       1.101   1.331   0.653  0.00  0.00    -0.266 OA
ATOM      6  N   UNL     1      -0.567   1.184  -0.815  0.00  0.00    -0.273 N 
ATOM      7  H   UNL     1      -0.945   0.388  -0.342  0.00  0.00    +0.173 HD
ATOM      8  C   UNL     1      -1.179   1.656  -1.915  0.00  0.00    +0.331 A 
ATOM      9  O   UNL     1      -2.184   1.105  -2.322  0.00  0.00    -0.246 OA
ENDROOT
BRANCH   3  10
ATOM     10  N   UNL     1       2.247   3.524  -0.532  0.00  0.00    -0.260 N 
ATOM     11  C   UNL     1       2.219   4.828  -0.194  0.00  0.00    +0.251 C 
ATOM     12  O   UNL     1       3.243   5.392   0.141  0.00  0.00    -0.270 OA
BRANCH  11  13
ATOM     13  C   UNL     1       0.943   5.573  -0.229  0.00  0.00    +0.038 A 
ATOM     14  C   UNL     1       0.946   6.968  -0.296  0.00  0.00    +0.013 A 
ATOM     15  C   UNL     1      -0.248   7.657  -0.329  0.00  0.00    +0.002 A 
ATOM     16  C   UNL     1      -1.448   6.970  -0.295  0.00  0.00    +0.014 A 
ATOM     17  C   UNL     1      -1.460   5.588  -0.228  0.00  0.00    +0.014 A 
ATOM     18  C   UNL     1      -0.271   4.886  -0.200  0.00  0.00    +0.027 A 
ATOM     19  I   UNL     1      -3.284   4.558  -0.178  0.00  0.00    -0.044 I 
ENDBRANCH  11  13
BRANCH  10  20
ATOM     20  C   UNL     1       3.492   2.761  -0.406  0.00  0.00    +0.114 C 
BRANCH  20  21
ATOM     21  C   UNL     1       4.230   2.765  -1.746  0.00  0.00    +0.022 C 
BRANCH  21  22
ATOM     22  C   UNL     1       5.463   1.864  -1.651  0.00  0.00    -0.016 C 
ATOM     23  C   UNL     1       6.113   1.742  -3.030  0.00  0.00    +0.007 C 
ATOM     24  C   UNL     1       6.465   2.472  -0.667  0.00  0.00    +0.007 C 
ENDBRANCH  21  22
ENDBRANCH  20  21
ENDBRANCH  10  20
ENDBRANCH   3  10
BRANCH   2  25
ATOM     25  N   UNL     1       0.921   4.462  -2.804  0.00  0.00    -0.343 N 
ATOM     26  H   UNL     1       1.772   4.849  -2.546  0.00  0.00    +0.144 HD
ATOM     27  H   UNL     1       0.415   4.846  -3.536  0.00  0.00    +0.144 HD
ENDBRANCH   2  25
BRANCH   1  28
ATOM     28  C   UNL     1      -1.399   3.222  -3.763  0.00  0.00    +0.128 C 
BRANCH  28  29
ATOM     29  C   UNL     1      -0.837   2.526  -5.004  0.00  0.00    +0.021 C 
BRANCH  29  31
ATOM     30  C   UNL     1      -1.001   2.344  -7.490  0.00  0.00    +0.004 C 
ATOM     31  C   UNL     1      -1.563   3.040  -6.249  0.00  0.00    -0.002 C 
ENDBRANCH  29  31
ENDBRANCH  28  29
ENDBRANCH   1  28
TORSDOF 9
