REMARK  Name = ZINC39694347
REMARK  8 active torsions:
REMARK  status: ('A' for Active; 'I' for Inactive)
REMARK    1  A    between atoms: C_1  and  C_2
REMARK    2  A    between atoms: C_2  and  C_3
REMARK    3  A    between atoms: C_3  and  C_5
REMARK    4  A    between atoms: C_3  and  C_11
REMARK    5  A    between atoms: C_15  and  C_24
REMARK    6  A    between atoms: N_26  and  C_27
REMARK    7  A    between atoms: C_27  and  C_28
REMARK    8  A    between atoms: C_33  and  N_34
REMARK                            x       y       z     vdW  Elec       q    Type
REMARK                         _______ _______ _______ _____ _____    ______ ____
ROOT
ATOM      1  C   UNL     1       2.451   0.073  -1.355  0.00  0.00    +0.223 C 
ATOM      2  O   UNL     1       3.411  -0.668  -1.401  0.00  0.00    -0.275 OA
ATOM      3  N   UNL     1       2.623   1.383  -1.091  0.00  0.00    -0.300 N 
ATOM      4  C   UNL     1       1.596   2.450  -1.081  0.00  0.00    +0.121 C 
ATOM      5  C   UNL     1       1.971   3.344   0.122  0.00  0.00    +0.100 C 
ATOM      6  C   UNL     1       3.474   3.099   0.338  0.00  0.00    -0.004 C 
ATOM      7  C   UNL     1       3.883   2.081  -0.736  0.00  0.00    +0.115 C 
ATOM      8  C   UNL     1       4.253   4.399   0.159  0.00  0.00    -0.010 C 
ATOM      9  C   UNL     1       5.737   4.142   0.436  0.00  0.00    -0.082 C 
ATOM     10  N   UNL     1       5.900   3.635   1.804  0.00  0.00    +0.379 N 
ATOM     11  C   UNL     1       5.226   2.339   1.941  0.00  0.00    -0.082 C 
ATOM     12  C   UNL     1       3.720   2.519   1.728  0.00  0.00    -0.010 C 
ATOM     13  H   UNL     1       6.883   3.525   2.005  0.00  0.00    -0.086 HD
ATOM     14  H   UNL     1       5.498   4.293   2.455  0.00  0.00    -0.086 HD
ENDROOT
BRANCH   5  15
ATOM     15  C   UNL     1       1.714   4.793  -0.201  0.00  0.00    +0.218 C 
ATOM     16  O   UNL     1       2.035   5.240  -1.282  0.00  0.00    -0.275 OA
ATOM     17  N   UNL     1       1.129   5.593   0.712  0.00  0.00    -0.311 N 
ATOM     18  H   UNL     1       0.872   5.236   1.577  0.00  0.00    +0.149 HD
BRANCH  17  19
ATOM     19  C   UNL     1       0.879   7.002   0.399  0.00  0.00    +0.141 C 
BRANCH  19  20
ATOM     20  C   UNL     1       0.220   7.670   1.578  0.00  0.00    -0.009 A 
ATOM     21  C   UNL     1      -1.147   7.867   1.586  0.00  0.00    +0.007 A 
ATOM     22  C   UNL     1      -1.753   8.480   2.667  0.00  0.00    +0.000 A 
ATOM     23  C   UNL     1      -0.993   8.898   3.745  0.00  0.00    +0.002 A 
ATOM     24  C   UNL     1       0.374   8.703   3.744  0.00  0.00    +0.023 A 
ATOM     25  C   UNL     1       0.985   8.083   2.661  0.00  0.00    +0.035 A 
BRANCH  25  26
ATOM     26  N   UNL     1       2.367   7.880   2.659  0.00  0.00    -0.325 N 
ATOM     27  C   UNL     1       3.282   8.898   2.118  0.00  0.00    +0.133 C 
ATOM     28  C   UNL     1       4.375   9.168   3.158  0.00  0.00    +0.178 C 
ATOM     29  O   UNL     1       4.967   7.927   3.550  0.00  0.00    -0.377 OA
ATOM     30  C   UNL     1       4.061   7.021   4.185  0.00  0.00    +0.178 C 
ATOM     31  C   UNL     1       2.952   6.644   3.203  0.00  0.00    +0.133 C 
ENDBRANCH  25  26
ENDBRANCH  19  20
ENDBRANCH  17  19
ENDBRANCH   5  15
BRANCH   1  32
ATOM     32  C   UNL     1       1.067  -0.472  -1.595  0.00  0.00    +0.105 C 
BRANCH  32  33
ATOM     33  C   UNL     1       0.780  -0.481  -3.074  0.00  0.00    -0.036 A 
ATOM     34  C   UNL     1       1.577  -1.219  -3.929  0.00  0.00    +0.004 A 
ATOM     35  C   UNL     1       1.313  -1.227  -5.286  0.00  0.00    +0.000 A 
ATOM     36  C   UNL     1       0.252  -0.497  -5.788  0.00  0.00    +0.000 A 
ATOM     37  C   UNL     1      -0.545   0.241  -4.934  0.00  0.00    +0.000 A 
ATOM     38  C   UNL     1      -0.284   0.245  -3.576  0.00  0.00    +0.004 A 
ENDBRANCH  32  33
BRANCH  32  40
ATOM     39  C   UNL     1       1.150  -1.876   0.470  0.00  0.00    +0.005 C 
ATOM     40  C   UNL     1       0.979  -1.899  -1.050  0.00  0.00    +0.014 C 
ENDBRANCH  32  40
ENDBRANCH   1  32
TORSDOF 7
