REMARK  Name = ZINC02247337
REMARK  3 active torsions:
REMARK  status: ('A' for Active; 'I' for Inactive)
REMARK    1  A    between atoms: C_3  and  C_8
REMARK    2  A    between atoms: C_13  and  N_15
REMARK    3  A    between atoms: N_15  and  C_16
REMARK                            x       y       z     vdW  Elec       q    Type
REMARK                         _______ _______ _______ _____ _____    ______ ____
ROOT
ATOM      1  C   UNL     1       3.660   2.159  -0.117  0.00  0.00    +0.028 C 
ATOM      2  C   UNL     1       4.837   1.499   0.010  0.00  0.00    +0.079 C 
ATOM      3  C   UNL     1       5.104   0.044   0.120  0.00  0.00    +0.276 C 
ATOM      4  O   UNL     1       4.203  -0.779   0.105  0.00  0.00    -0.267 OA
ATOM      5  N   UNL     1       6.365  -0.310   0.233  0.00  0.00    -0.152 NA
ATOM      6  C   UNL     1       7.352   0.573   0.250  0.00  0.00    +0.175 C 
ATOM      7  S   UNL     1       6.506   2.137   0.084  0.00  0.00    -0.050 S 
ENDROOT
BRANCH   1  10
ATOM      8  C   UNL     1       1.082  -0.291   1.072  0.00  0.00    +0.003 A 
ATOM      9  C   UNL     1       2.276   0.387   0.947  0.00  0.00    +0.008 A 
ATOM     10  C   UNL     1       2.390   1.431   0.022  0.00  0.00    -0.021 A 
ATOM     11  C   UNL     1       1.290   1.778  -0.770  0.00  0.00    +0.046 A 
ATOM     12  C   UNL     1       0.102   1.090  -0.633  0.00  0.00    +0.124 A 
ATOM     13  C   UNL     1      -0.002   0.057   0.287  0.00  0.00    +0.038 A 
ATOM     14  F   UNL     1      -0.962   1.423  -1.396  0.00  0.00    -0.205 F 
ENDBRANCH   1  10
BRANCH   6  15
ATOM     15  N   UNL     1       8.697   0.341   0.362  0.00  0.00    -0.190 NA
BRANCH  15  16
ATOM     16  C   UNL     1       9.191  -0.965   0.282  0.00  0.00    +0.075 A 
ATOM     17  C   UNL     1       8.474  -1.940  -0.399  0.00  0.00    +0.027 A 
ATOM     18  C   UNL     1       8.963  -3.229  -0.477  0.00  0.00    +0.003 A 
ATOM     19  C   UNL     1      10.168  -3.551   0.122  0.00  0.00    +0.021 A 
ATOM     20  C   UNL     1      10.886  -2.583   0.802  0.00  0.00    +0.061 A 
ATOM     21  C   UNL     1      10.404  -1.289   0.879  0.00  0.00    +0.082 A 
ATOM     22 CL   UNL     1      11.308  -0.073   1.726  0.00  0.00    -0.080 Cl
ATOM     23 CL   UNL     1      12.396  -2.992   1.554  0.00  0.00    -0.082 Cl
ENDBRANCH  15  16
ENDBRANCH   6  15
TORSDOF 3
