REMARK  Name = ZINC06417173
REMARK  6 active torsions:
REMARK  status: ('A' for Active; 'I' for Inactive)
REMARK    1  A    between atoms: C_1  and  C_2
REMARK    2  A    between atoms: C_5  and  O_33
REMARK    3  A    between atoms: C_17  and  C_32
REMARK    4  A    between atoms: C_22  and  C_23
REMARK    5  A    between atoms: C_22  and  O_31
REMARK    6  A    between atoms: C_24  and  C_25
REMARK                            x       y       z     vdW  Elec       q    Type
REMARK                         _______ _______ _______ _____ _____    ______ ____
ROOT
ATOM      1  C   UNL     1      -5.832  -0.395   4.508  0.00  0.00    +0.016 C 
ATOM      2  C   UNL     1      -6.643   0.845   4.143  0.00  0.00    -0.008 C 
ATOM      3  C   UNL     1      -6.862   1.689   5.399  0.00  0.00    +0.014 C 
ATOM      4  C   UNL     1      -7.805   0.994   6.378  0.00  0.00    +0.032 C 
ATOM      5  C   UNL     1      -9.162   0.743   5.720  0.00  0.00    +0.119 C 
ATOM      6  C   UNL     1      -8.974  -0.215   4.539  0.00  0.00    +0.062 C 
ATOM      7  C   UNL     1      -7.973   0.412   3.584  0.00  0.00    -0.065 C 
ATOM      8  C   UNL     1      -8.327   0.549   2.339  0.00  0.00    -0.027 C 
ATOM      9  C   UNL     1      -7.454   1.174   1.282  0.00  0.00    +0.031 C 
ATOM     10  C   UNL     1      -6.002   1.033   1.733  0.00  0.00    +0.000 C 
ATOM     11  C   UNL     1      -5.873   1.671   3.118  0.00  0.00    +0.003 C 
ATOM     12  C   UNL     1      -4.409   1.862   3.473  0.00  0.00    +0.005 C 
ATOM     13  C   UNL     1      -3.757   2.917   2.560  0.00  0.00    +0.011 C 
ATOM     14  C   UNL     1      -4.454   2.988   1.232  0.00  0.00    +0.011 C 
ATOM     15  C   UNL     1      -5.004   1.622   0.779  0.00  0.00    +0.002 C 
ATOM     16  C   UNL     1      -5.527   1.950  -0.631  0.00  0.00    +0.008 C 
ATOM     17  C   UNL     1      -4.462   2.931  -1.192  0.00  0.00    +0.049 C 
ATOM     18  C   UNL     1      -3.586   3.365   0.015  0.00  0.00    +0.132 C 
ATOM     19  C   UNL     1      -5.563   4.055   1.284  0.00  0.00    +0.015 C 
ENDROOT
BRANCH  18  20
ATOM     20  C   UNL     1      -2.309   2.648  -0.005  0.00  0.00    -0.062 C 
ATOM     21  C   UNL     1      -1.286   2.073  -0.020  0.00  0.00    -0.063 C 
BRANCH  21  22
ATOM     22  C   UNL     1      -0.038   1.372  -0.039  0.00  0.00    +0.025 A 
ATOM     23  C   UNL     1       1.164   2.081  -0.082  0.00  0.00    +0.017 A 
ATOM     24  C   UNL     1       2.363   1.399  -0.105  0.00  0.00    +0.001 A 
ATOM     25  C   UNL     1       2.376   0.016  -0.087  0.00  0.00    +0.000 A 
ATOM     26  C   UNL     1       1.189  -0.693  -0.046  0.00  0.00    +0.001 A 
ATOM     27  C   UNL     1      -0.017  -0.023  -0.022  0.00  0.00    +0.017 A 
ENDBRANCH  21  22
ENDBRANCH  18  20
BRANCH  18  28
ATOM     28  O   UNL     1      -3.379   4.777  -0.009  0.00  0.00    -0.376 OA
ATOM     29  H   UNL     1      -2.893   5.090  -0.784  0.00  0.00    +0.211 HD
ENDBRANCH  18  28
BRANCH   5  30
ATOM     30  O   UNL     1     -10.055   0.161   6.670  0.00  0.00    -0.391 OA
ATOM     31  H   UNL     1     -10.935  -0.030   6.316  0.00  0.00    +0.210 HD
ENDBRANCH   5  30
TORSDOF 4
