REMARK  Name = ZINC63985974
REMARK  7 active torsions:
REMARK  status: ('A' for Active; 'I' for Inactive)
REMARK    1  A    between atoms: C_4  and  C_7
REMARK    2  A    between atoms: C_7  and  C_8
REMARK    3  A    between atoms: C_8  and  N_9
REMARK    4  A    between atoms: N_12  and  C_32
REMARK    5  A    between atoms: N_18  and  C_21
REMARK    6  A    between atoms: C_21  and  C_22
REMARK    7  A    between atoms: C_32  and  C_33
REMARK                            x       y       z     vdW  Elec       q    Type
REMARK                         _______ _______ _______ _____ _____    ______ ____
ROOT
ATOM      1  N   UNL     1       5.497  -1.585   1.441  0.00  0.00    -0.271 N 
ATOM      2  C   UNL     1       5.773  -2.902   1.396  0.00  0.00    +0.312 C 
ATOM      3  O   UNL     1       4.924  -3.768   1.313  0.00  0.00    -0.252 OA
ATOM      4  N   UNL     1       7.087  -3.151   1.454  0.00  0.00    -0.220 N 
ATOM      5  C   UNL     1       7.805  -2.012   1.541  0.00  0.00    +0.247 C 
ATOM      6  O   UNL     1       9.011  -1.908   1.608  0.00  0.00    -0.273 OA
ATOM      7  C   UNL     1       6.790  -0.894   1.532  0.00  0.00    +0.112 C 
ATOM      8  C   UNL     1       6.875  -0.087   2.824  0.00  0.00    +0.017 C 
ATOM      9  C   UNL     1       5.869   1.065   2.769  0.00  0.00    -0.076 C 
ATOM     10  N   UNL     1       6.164   1.921   1.613  0.00  0.00    +0.381 N 
ATOM     11  C   UNL     1       5.988   1.161   0.370  0.00  0.00    -0.076 C 
ATOM     12  C   UNL     1       7.000   0.013   0.324  0.00  0.00    +0.017 C 
ATOM     13  H   UNL     1       7.117   2.248   1.674  0.00  0.00    -0.082 HD
ENDROOT
BRANCH   1  14
ATOM     14  C   UNL     1       4.171  -0.963   1.399  0.00  0.00    +0.115 C 
BRANCH  14  15
ATOM     15  C   UNL     1       3.399  -1.324   2.669  0.00  0.00    +0.054 C 
BRANCH  15  19
ATOM     16  C   UNL     1      -0.329   0.761   2.712  0.00  0.00    +0.000 A 
ATOM     17  C   UNL     1      -0.243  -0.490   2.130  0.00  0.00    +0.000 A 
ATOM     18  C   UNL     1       0.963  -1.165   2.116  0.00  0.00    +0.004 A 
ATOM     19  C   UNL     1       2.084  -0.588   2.684  0.00  0.00    -0.046 A 
ATOM     20  C   UNL     1       1.998   0.663   3.265  0.00  0.00    +0.004 A 
ATOM     21  C   UNL     1       0.792   1.337   3.281  0.00  0.00    +0.000 A 
ENDBRANCH  15  19
ENDBRANCH  14  15
ENDBRANCH   1  14
BRANCH  10  22
ATOM     22  C   UNL     1       5.253   3.073   1.614  0.00  0.00    -0.050 C 
BRANCH  22  23
ATOM     23  C   UNL     1       5.640   4.029   0.483  0.00  0.00    +0.086 C 
ATOM     24  C   UNL     1       4.833   5.305   0.581  0.00  0.00    +0.005 C 
ATOM     25  C   UNL     1       5.729   6.303   0.753  0.00  0.00    -0.004 A 
ATOM     26  C   UNL     1       5.582   7.755   0.912  0.00  0.00    +0.010 A 
ATOM     27  C   UNL     1       6.691   8.513   1.069  0.00  0.00    +0.001 A 
ATOM     28  C   UNL     1       7.974   7.949   1.085  0.00  0.00    +0.002 A 
ATOM     29  C   UNL     1       8.189   6.623   0.945  0.00  0.00    +0.026 A 
ATOM     30  C   UNL     1       7.095   5.732   0.773  0.00  0.00    +0.043 A 
ATOM     31  N   UNL     1       7.045   4.429   0.618  0.00  0.00    -0.380 N 
ATOM     32  H   UNL     1       7.809   3.831   0.596  0.00  0.00    +0.160 HD
ENDBRANCH  22  23
ENDBRANCH  10  22
BRANCH   4  33
ATOM     33  C   UNL     1       7.673  -4.494   1.424  0.00  0.00    +0.153 C 
BRANCH  33  34
ATOM     34  C   UNL     1       7.948  -4.891  -0.003  0.00  0.00    -0.030 A 
ATOM     35  C   UNL     1       6.976  -5.545  -0.738  0.00  0.00    +0.005 A 
ATOM     36  C   UNL     1       7.228  -5.909  -2.047  0.00  0.00    +0.000 A 
ATOM     37  C   UNL     1       8.452  -5.620  -2.622  0.00  0.00    +0.000 A 
ATOM     38  C   UNL     1       9.423  -4.965  -1.887  0.00  0.00    +0.000 A 
ATOM     39  C   UNL     1       9.169  -4.597  -0.579  0.00  0.00    +0.005 A 
ENDBRANCH  33  34
ENDBRANCH   4  33
TORSDOF 7
