REMARK  Name = ZINC39664914
REMARK  9 active torsions:
REMARK  status: ('A' for Active; 'I' for Inactive)
REMARK    1  A    between atoms: C_1  and  C_2
REMARK    2  A    between atoms: C_6  and  C_7
REMARK    3  A    between atoms: C_11  and  C_20
REMARK    4  A    between atoms: N_22  and  C_23
REMARK    5  A    between atoms: C_23  and  C_25
REMARK    6  A    between atoms: C_23  and  C_29
REMARK    7  A    between atoms: C_25  and  N_26
REMARK    8  A    between atoms: N_26  and  C_27
REMARK    9  A    between atoms: N_26  and  C_28
REMARK                            x       y       z     vdW  Elec       q    Type
REMARK                         _______ _______ _______ _____ _____    ______ ____
ROOT
ATOM      1  C   UNL     1       0.438  -0.433   2.214  0.00  0.00    +0.254 C 
ATOM      2  O   UNL     1       0.505   0.766   2.413  0.00  0.00    -0.269 OA
ATOM      3  N   UNL     1       0.241  -1.277   3.247  0.00  0.00    -0.296 N 
ATOM      4  C   UNL     1       0.249  -2.759   3.223  0.00  0.00    +0.121 C 
ATOM      5  C   UNL     1       0.963  -3.166   4.532  0.00  0.00    +0.100 C 
ATOM      6  C   UNL     1       0.773  -1.965   5.473  0.00  0.00    -0.004 C 
ATOM      7  C   UNL     1      -0.026  -0.932   4.664  0.00  0.00    +0.115 C 
ATOM      8  C   UNL     1       2.127  -1.383   5.867  0.00  0.00    -0.010 C 
ATOM      9  C   UNL     1       1.914  -0.227   6.848  0.00  0.00    -0.082 C 
ATOM     10  N   UNL     1       1.204  -0.714   8.036  0.00  0.00    +0.379 N 
ATOM     11  C   UNL     1      -0.135  -1.186   7.660  0.00  0.00    -0.082 C 
ATOM     12  C   UNL     1      -0.009  -2.384   6.714  0.00  0.00    -0.010 C 
ATOM     13  H   UNL     1       1.723  -1.474   8.449  0.00  0.00    -0.086 HD
ATOM     14  H   UNL     1       1.118   0.035   8.706  0.00  0.00    -0.086 HD
ENDROOT
BRANCH   1  20
ATOM     15  C   UNL     1       0.702   1.237  -0.402  0.00  0.00    +0.045 C 
ATOM     16  C   UNL     1       0.692  -0.269  -0.344  0.00  0.00    -0.031 A 
ATOM     17  C   UNL     1       0.807  -1.044  -1.472  0.00  0.00    +0.011 A 
ATOM     18  C   UNL     1       0.791  -2.395  -1.348  0.00  0.00    +0.046 A 
ATOM     19  S   UNL     1       0.620  -2.655   0.303  0.00  0.00    -0.092 S 
ATOM     20  C   UNL     1       0.572  -0.960   0.853  0.00  0.00    +0.077 A 
ENDBRANCH   1  20
BRANCH   5  21
ATOM     21  C   UNL     1       0.323  -4.399   5.116  0.00  0.00    +0.219 C 
ATOM     22  O   UNL     1      -0.834  -4.660   4.863  0.00  0.00    -0.275 OA
ATOM     23  N   UNL     1       1.037  -5.213   5.919  0.00  0.00    -0.310 N 
ATOM     24  H   UNL     1       1.981  -5.045   6.063  0.00  0.00    +0.149 HD
BRANCH  23  25
ATOM     25  C   UNL     1       0.386  -6.350   6.575  0.00  0.00    +0.087 C 
BRANCH  25  26
ATOM     26  C   UNL     1       1.079  -6.640   7.881  0.00  0.00    -0.029 A 
ATOM     27  C   UNL     1       2.456  -6.557   7.967  0.00  0.00    +0.005 A 
ATOM     28  C   UNL     1       3.091  -6.823   9.165  0.00  0.00    +0.000 A 
ATOM     29  C   UNL     1       2.349  -7.171  10.279  0.00  0.00    +0.000 A 
ATOM     30  C   UNL     1       0.972  -7.253  10.193  0.00  0.00    +0.000 A 
ATOM     31  C   UNL     1       0.337  -6.983   8.996  0.00  0.00    +0.005 A 
ENDBRANCH  25  26
BRANCH  25  32
ATOM     32  C   UNL     1       0.472  -7.579   5.668  0.00  0.00    -0.052 C 
BRANCH  32  33
ATOM     33  N   UNL     1      -0.311  -8.675   6.253  0.00  0.00    +0.377 N 
ATOM     34  C   UNL     1      -1.734  -8.314   6.254  0.00  0.00    -0.097 C 
ATOM     35  C   UNL     1      -0.115  -9.895   5.459  0.00  0.00    -0.097 C 
ATOM     36  H   UNL     1      -0.005  -8.839   7.201  0.00  0.00    -0.083 HD
ENDBRANCH  32  33
ENDBRANCH  25  32
ENDBRANCH  23  25
ENDBRANCH   5  21
TORSDOF 6
