REMARK  Name = ZINC55253302
REMARK  4 active torsions:
REMARK  status: ('A' for Active; 'I' for Inactive)
REMARK    1  A    between atoms: C_4  and  O_17
REMARK    2  A    between atoms: C_5  and  C_7
REMARK    3  A    between atoms: O_17  and  C_18
REMARK    4  A    between atoms: C_18  and  C_20
REMARK                            x       y       z     vdW  Elec       q    Type
REMARK                         _______ _______ _______ _____ _____    ______ ____
ROOT
ATOM      1  C   UNL     1      -0.111   1.225  -0.096  0.00  0.00    +0.001 A 
ATOM      2  C   UNL     1       0.992   2.061  -0.111  0.00  0.00    +0.004 A 
ATOM      3  C   UNL     1       2.268   1.534  -0.057  0.00  0.00    +0.047 A 
ATOM      4  C   UNL     1       2.451   0.162   0.011  0.00  0.00    +0.143 A 
ATOM      5  C   UNL     1       1.337  -0.686   0.027  0.00  0.00    +0.062 A 
ATOM      6  C   UNL     1       0.054  -0.142  -0.028  0.00  0.00    +0.015 A 
ENDROOT
BRANCH   5   7
ATOM      7  C   UNL     1       1.521  -2.152   0.099  0.00  0.00    +0.168 A 
ATOM      8  N   UNL     1       2.300  -2.805   0.935  0.00  0.00    -0.129 NA
ATOM      9  N   UNL     1       2.206  -4.070   0.719  0.00  0.00    -0.134 NA
ATOM     10  C   UNL     1       1.369  -4.294  -0.255  0.00  0.00    +0.134 A 
ATOM     11  N   UNL     1       0.911  -3.088  -0.684  0.00  0.00    -0.311 N 
ATOM     12  C   UNL     1      -0.031  -2.853  -1.779  0.00  0.00    +0.125 C 
ATOM     13  C   UNL     1      -0.955  -4.066  -1.922  0.00  0.00    +0.022 C 
ATOM     14  C   UNL     1      -0.330  -5.079  -2.880  0.00  0.00    +0.002 C 
ATOM     15  C   UNL     1       1.006  -5.578  -2.337  0.00  0.00    +0.008 C 
ATOM     16  C   UNL     1       0.957  -5.632  -0.812  0.00  0.00    +0.076 C 
ENDBRANCH   5   7
BRANCH   4  17
ATOM     17  O   UNL     1       3.705  -0.357   0.063  0.00  0.00    -0.422 OA
BRANCH  17  18
ATOM     18  C   UNL     1       4.247  -0.817  -1.082  0.00  0.00    +0.345 C 
ATOM     19  O   UNL     1       3.658  -0.671  -2.135  0.00  0.00    -0.245 OA
BRANCH  18  20
ATOM     20  C   UNL     1       5.551  -1.496  -1.057  0.00  0.00    +0.066 A 
ATOM     21  C   UNL     1       6.166  -1.997  -2.264  0.00  0.00    +0.022 A 
ATOM     22  C   UNL     1       7.361  -2.599  -2.105  0.00  0.00    +0.046 A 
ATOM     23  S   UNL     1       7.642  -2.485  -0.352  0.00  0.00    -0.104 S 
ATOM     24  C   UNL     1       6.247  -1.679   0.118  0.00  0.00    +0.060 A 
ENDBRANCH  18  20
ENDBRANCH  17  18
ENDBRANCH   4  17
TORSDOF 4
