REMARK  Name = ZINC09953575
REMARK  7 active torsions:
REMARK  status: ('A' for Active; 'I' for Inactive)
REMARK    1  A    between atoms: N_9  and  C_22
REMARK    2  A    between atoms: C_10  and  S_12
REMARK    3  A    between atoms: S_12  and  C_13
REMARK    4  A    between atoms: C_22  and  C_23
REMARK    5  A    between atoms: C_23  and  C_24
REMARK    6  A    between atoms: C_27  and  S_30
REMARK    7  A    between atoms: S_30  and  N_33
REMARK                            x       y       z     vdW  Elec       q    Type
REMARK                         _______ _______ _______ _____ _____    ______ ____
ROOT
ATOM      1  C   UNL     1       1.160   3.167   0.007  0.00  0.00    +0.001 A 
ATOM      2  C   UNL     1       1.159   1.778   0.001  0.00  0.00    +0.002 A 
ATOM      3  C   UNL     1      -0.013   1.076   0.008  0.00  0.00    +0.028 A 
ATOM      4  C   UNL     1      -1.231   1.762   0.017  0.00  0.00    +0.079 A 
ATOM      5  C   UNL     1      -1.226   3.175   0.030  0.00  0.00    +0.065 A 
ATOM      6  C   UNL     1      -0.015   3.867   0.022  0.00  0.00    +0.015 A 
ATOM      7  C   UNL     1      -2.519   3.874   0.045  0.00  0.00    +0.262 A 
ATOM      8  O   UNL     1      -2.580   5.089   0.052  0.00  0.00    -0.267 OA
ATOM      9  N   UNL     1      -3.639   3.114   0.051  0.00  0.00    -0.287 N 
ATOM     10  C   UNL     1      -3.551   1.751   0.043  0.00  0.00    +0.173 A 
ATOM     11  N   UNL     1      -2.410   1.108   0.030  0.00  0.00    -0.223 NA
ENDROOT
BRANCH  10  12
ATOM     12  S   UNL     1      -5.043   0.814   0.053  0.00  0.00    -0.075 S 
BRANCH  12  13
ATOM     13  C   UNL     1      -4.361  -0.863   0.038  0.00  0.00    +0.140 C 
ATOM     14  C   UNL     1      -5.498  -1.882   0.144  0.00  0.00    +0.024 C 
ATOM     15  C   UNL     1      -4.995  -3.189   0.729  0.00  0.00    +0.003 C 
ATOM     16  C   UNL     1      -4.022  -3.928  -0.171  0.00  0.00    +0.019 C 
ATOM     17  C   UNL     1      -2.712  -3.150  -0.313  0.00  0.00    +0.104 C 
ATOM     18  N   UNL     1      -2.856  -2.181  -1.411  0.00  0.00    -0.314 N 
ATOM     19  C   UNL     1      -3.623  -1.100  -1.263  0.00  0.00    +0.226 C 
ATOM     20  O   UNL     1      -3.730  -0.305  -2.172  0.00  0.00    -0.275 OA
ATOM     21  H   UNL     1      -2.390  -2.330  -2.249  0.00  0.00    +0.149 HD
ENDBRANCH  12  13
ENDBRANCH  10  12
BRANCH   9  22
ATOM     22  C   UNL     1      -4.954   3.759   0.066  0.00  0.00    +0.132 C 
BRANCH  22  23
ATOM     23  C   UNL     1      -5.425   3.990  -1.372  0.00  0.00    +0.057 C 
BRANCH  23  24
ATOM     24  C   UNL     1      -6.778   4.653  -1.357  0.00  0.00    -0.046 A 
ATOM     25  C   UNL     1      -7.926   3.881  -1.356  0.00  0.00    +0.005 A 
ATOM     26  C   UNL     1      -9.167   4.489  -1.338  0.00  0.00    +0.029 A 
ATOM     27  C   UNL     1      -9.261   5.869  -1.330  0.00  0.00    +0.105 A 
ATOM     28  C   UNL     1      -8.114   6.640  -1.336  0.00  0.00    +0.029 A 
ATOM     29  C   UNL     1      -6.872   6.032  -1.349  0.00  0.00    +0.005 A 
BRANCH  27  30
ATOM     30  S   UNL     1     -10.843   6.644  -1.312  0.00  0.00    +0.056 S 
ATOM     31  O   UNL     1     -11.751   5.701  -0.758  0.00  0.00    -0.153 OA
ATOM     32  O   UNL     1     -10.655   7.938  -0.757  0.00  0.00    -0.153 OA
BRANCH  30  33
ATOM     33  N   UNL     1     -11.297   6.867  -2.889  0.00  0.00    -0.204 NA
ATOM     34  H   UNL     1     -10.711   6.580  -3.608  0.00  0.00    +0.144 HD
ATOM     35  H   UNL     1     -12.148   7.284  -3.095  0.00  0.00    +0.144 HD
ENDBRANCH  30  33
ENDBRANCH  27  30
ENDBRANCH  23  24
ENDBRANCH  22  23
ENDBRANCH   9  22
TORSDOF 7
