REMARK  Name = ZINC52771054
REMARK  2 active torsions:
REMARK  status: ('A' for Active; 'I' for Inactive)
REMARK    1  A    between atoms: C_3  and  N_18
REMARK    2  A    between atoms: C_6  and  C_7
REMARK                            x       y       z     vdW  Elec       q    Type
REMARK                         _______ _______ _______ _____ _____    ______ ____
ROOT
ATOM      1  C   UNL     1      -0.017   1.394   0.010  0.00  0.00    +0.015 A 
ATOM      2  C   UNL     1       1.166   2.097   0.002  0.00  0.00    +0.025 A 
ATOM      3  C   UNL     1       2.381   1.417  -0.013  0.00  0.00    +0.051 A 
ATOM      4  C   UNL     1       2.404   0.025  -0.022  0.00  0.00    +0.025 A 
ATOM      5  C   UNL     1       1.224  -0.684  -0.014  0.00  0.00    +0.015 A 
ATOM      6  C   UNL     1       0.002  -0.004   0.002  0.00  0.00    +0.037 A 
ENDROOT
BRANCH   6   7
ATOM      7  C   UNL     1      -1.264  -0.760   0.011  0.00  0.00    +0.250 C 
ATOM      8  O   UNL     1      -2.326  -0.168   0.024  0.00  0.00    -0.270 OA
ATOM      9  N   UNL     1      -1.244  -2.108   0.003  0.00  0.00    -0.261 N 
ATOM     10  C   UNL     1      -2.437  -2.820   0.011  0.00  0.00    +0.165 A 
ATOM     11  N   UNL     1      -3.663  -2.357   0.020  0.00  0.00    -0.229 NA
ATOM     12  C   UNL     1      -4.729  -3.169   0.026  0.00  0.00    +0.054 A 
ATOM     13  C   UNL     1      -4.436  -4.490   0.025  0.00  0.00    +0.014 A 
ATOM     14  S   UNL     1      -2.659  -4.489   0.004  0.00  0.00    -0.057 S 
ATOM     15  C   UNL     1      -5.668  -5.342   0.037  0.00  0.00    +0.045 C 
ATOM     16  C   UNL     1      -6.800  -4.386   0.476  0.00  0.00    +0.011 C 
ATOM     17  C   UNL     1      -6.248  -3.016   0.031  0.00  0.00    +0.056 C 
ATOM     18  H   UNL     1      -0.397  -2.580  -0.008  0.00  0.00    +0.157 HD
ENDBRANCH   6   7
BRANCH   3  19
ATOM     19  N   UNL     1       3.575   2.130  -0.022  0.00  0.00    -0.207 N 
ATOM     20  C   UNL     1       3.784   3.506  -0.508  0.00  0.00    +0.133 C 
ATOM     21  C   UNL     1       4.935   4.188   0.257  0.00  0.00    +0.045 C 
ATOM     22  C   UNL     1       6.076   3.127   0.300  0.00  0.00    +0.190 C 
ATOM     23  S   UNL     1       5.069   1.604   0.526  0.00  0.00    +0.046 S 
ATOM     24  O   UNL     1       4.889   1.319   1.906  0.00  0.00    -0.155 OA
ATOM     25  O   UNL     1       5.475   0.595  -0.388  0.00  0.00    -0.155 OA
ENDBRANCH   3  19
TORSDOF 2
