REMARK  Name = ZINC63707946
REMARK  6 active torsions:
REMARK  status: ('A' for Active; 'I' for Inactive)
REMARK    1  A    between atoms: C_7  and  C_10
REMARK    2  A    between atoms: C_10  and  C_11
REMARK    3  A    between atoms: C_25  and  S_26
REMARK    4  A    between atoms: S_26  and  C_27
REMARK    5  A    between atoms: C_27  and  C_28
REMARK    6  A    between atoms: C_31  and  N_34
REMARK                            x       y       z     vdW  Elec       q    Type
REMARK                         _______ _______ _______ _____ _____    ______ ____
ROOT
ATOM      1  C   UNL     1       0.457  -3.653  -1.462  0.00  0.00    +0.198 C 
ATOM      2  C   UNL     1      -0.545  -4.788  -1.494  0.00  0.00    +0.252 C 
ATOM      3  O   UNL     1      -1.700  -4.758  -1.129  0.00  0.00    -0.272 OA
ATOM      4  N   UNL     1       0.121  -5.843  -2.017  0.00  0.00    -0.200 N 
ATOM      5  C   UNL     1       1.427  -5.488  -2.312  0.00  0.00    +0.139 C 
ATOM      6  N   UNL     1       1.683  -4.241  -2.018  0.00  0.00    -0.255 NA
ATOM      7  C   UNL     1       2.297  -6.533  -2.894  0.00  0.00    +0.041 A 
ATOM      8  C   UNL     1       3.623  -6.272  -3.224  0.00  0.00    +0.013 A 
ATOM      9  C   UNL     1       4.399  -7.276  -3.765  0.00  0.00    +0.001 A 
ATOM     10  C   UNL     1       3.867  -8.539  -3.980  0.00  0.00    +0.002 A 
ATOM     11  C   UNL     1       2.556  -8.816  -3.660  0.00  0.00    +0.028 A 
ATOM     12  C   UNL     1       1.751  -7.814  -3.111  0.00  0.00    +0.077 A 
ATOM     13  N   UNL     1       0.456  -8.051  -2.783  0.00  0.00    -0.225 NA
ATOM     14  C   UNL     1      -0.311  -7.128  -2.269  0.00  0.00    +0.169 C 
ENDROOT
BRANCH   1  15
ATOM     15  C   UNL     1       0.691  -3.186  -0.024  0.00  0.00    +0.069 C 
BRANCH  15  22
ATOM     16  C   UNL     1      -0.016   1.348   0.009  0.00  0.00    +0.001 A 
ATOM     17  C   UNL     1       1.166   2.101   0.002  0.00  0.00    +0.002 A 
ATOM     18  C   UNL     1       2.391   1.535  -0.013  0.00  0.00    +0.026 A 
ATOM     19  C   UNL     1       2.529   0.120  -0.022  0.00  0.00    +0.043 A 
ATOM     20  N   UNL     1       3.587  -0.654  -0.037  0.00  0.00    -0.380 N 
ATOM     21  C   UNL     1       3.143  -2.053  -0.041  0.00  0.00    +0.144 C 
ATOM     22  C   UNL     1       1.631  -2.008  -0.025  0.00  0.00    -0.039 C 
ATOM     23  C   UNL     1       1.295  -0.698  -0.014  0.00  0.00    -0.001 A 
ATOM     24  C   UNL     1       0.002  -0.004   0.002  0.00  0.00    +0.010 A 
ATOM     25  H   UNL     1       4.509  -0.353  -0.045  0.00  0.00    +0.160 HD
ENDBRANCH  15  22
ENDBRANCH   1  15
BRANCH  14  26
ATOM     26  S   UNL     1      -1.978  -7.544  -1.880  0.00  0.00    -0.085 S 
BRANCH  26  27
ATOM     27  C   UNL     1      -2.119  -9.288  -2.360  0.00  0.00    +0.112 C 
BRANCH  27  28
ATOM     28  C   UNL     1      -3.517  -9.776  -2.075  0.00  0.00    -0.037 A 
ATOM     29  C   UNL     1      -3.820 -10.325  -0.843  0.00  0.00    +0.007 A 
ATOM     30  C   UNL     1      -5.101 -10.772  -0.582  0.00  0.00    +0.033 A 
ATOM     31  C   UNL     1      -6.080 -10.671  -1.553  0.00  0.00    +0.126 A 
ATOM     32  C   UNL     1      -5.777 -10.121  -2.785  0.00  0.00    +0.033 A 
ATOM     33  C   UNL     1      -4.497  -9.669  -3.044  0.00  0.00    +0.007 A 
BRANCH  31  34
ATOM     34  N   UNL     1      -7.452 -11.151  -1.274  0.00  0.00    +0.056 N 
ATOM     35  O   UNL     1      -7.717 -11.632  -0.197  0.00  0.00    -0.126 OA
ATOM     36  O   UNL     1      -8.308 -11.062  -2.123  0.00  0.00    -0.126 OA
ENDBRANCH  31  34
ENDBRANCH  27  28
ENDBRANCH  26  27
ENDBRANCH  14  26
TORSDOF 6
