REMARK  Name = ZINC55404509
REMARK  6 active torsions:
REMARK  status: ('A' for Active; 'I' for Inactive)
REMARK    1  A    between atoms: C_1  and  C_2
REMARK    2  A    between atoms: C_2  and  C_3
REMARK    3  A    between atoms: C_3  and  C_4
REMARK    4  A    between atoms: C_9  and  C_12
REMARK    5  A    between atoms: N_14  and  C_15
REMARK    6  A    between atoms: C_17  and  C_23
REMARK                            x       y       z     vdW  Elec       q    Type
REMARK                         _______ _______ _______ _____ _____    ______ ____
ROOT
ATOM      1  C   UNL     1      -5.811  -4.577   2.139  0.00  0.00    +0.221 C 
ATOM      2  O   UNL     1      -6.409  -3.807   2.861  0.00  0.00    -0.275 OA
ATOM      3  N   UNL     1      -5.904  -5.905   2.347  0.00  0.00    -0.281 N 
ATOM      4  H   UNL     1      -5.485  -6.524   1.728  0.00  0.00    +0.155 HD
ENDROOT
BRANCH   1  10
ATOM      5  C   UNL     1      -1.764  -1.710  -0.074  0.00  0.00    +0.216 C 
ATOM      6  O   UNL     1      -0.646  -2.172   0.008  0.00  0.00    -0.276 OA
ATOM      7  N   UNL     1      -2.834  -2.530  -0.067  0.00  0.00    -0.301 N 
ATOM      8  C   UNL     1      -4.195  -1.987  -0.172  0.00  0.00    +0.108 C 
ATOM      9  C   UNL     1      -5.029  -2.519   0.997  0.00  0.00    +0.032 C 
ATOM     10  C   UNL     1      -4.963  -4.048   1.011  0.00  0.00    +0.078 C 
ATOM     11  C   UNL     1      -3.513  -4.496   1.210  0.00  0.00    +0.032 C 
ATOM     12  C   UNL     1      -2.661  -3.986   0.038  0.00  0.00    +0.108 C 
BRANCH   5  13
ATOM     13  C   UNL     1      -1.958  -0.220  -0.182  0.00  0.00    +0.096 C 
BRANCH  13  15
ATOM     14  C   UNL     1      -0.792   1.988  -0.277  0.00  0.00    +0.004 C 
ATOM     15  C   UNL     1      -0.595   0.474  -0.167  0.00  0.00    +0.006 C 
ENDBRANCH  13  15
ENDBRANCH   5  13
ENDBRANCH   1  10
BRANCH   3  16
ATOM     16  C   UNL     1      -6.606  -6.394   3.457  0.00  0.00    +0.099 A 
ATOM     17  C   UNL     1      -7.669  -7.239   3.287  0.00  0.00    +0.042 A 
ATOM     18  C   UNL     1      -8.354  -7.713   4.414  0.00  0.00    +0.073 A 
ATOM     19  C   UNL     1      -7.963  -7.335   5.653  0.00  0.00    +0.098 A 
ATOM     20  N   UNL     1      -6.907  -6.496   5.824  0.00  0.00    -0.327 N 
ATOM     21  H   UNL     1      -6.642  -6.236   6.720  0.00  0.00    +0.168 HD
ATOM     22  C   UNL     1      -6.223  -6.025   4.764  0.00  0.00    +0.270 A 
ATOM     23  O   UNL     1      -5.274  -5.275   4.934  0.00  0.00    -0.266 OA
BRANCH  18  24
ATOM     24  C   UNL     1      -9.527  -8.645   4.246  0.00  0.00    +0.419 C 
ATOM     25  F   UNL     1     -10.042  -8.978   5.504  0.00  0.00    -0.166 F 
ATOM     26  F   UNL     1     -10.519  -8.013   3.489  0.00  0.00    -0.166 F 
ATOM     27  F   UNL     1      -9.109  -9.807   3.590  0.00  0.00    -0.166 F 
ENDBRANCH  18  24
ENDBRANCH   3  16
TORSDOF 5
