REMARK  Name = ZINC57421760
REMARK  7 active torsions:
REMARK  status: ('A' for Active; 'I' for Inactive)
REMARK    1  A    between atoms: C_1  and  C_2
REMARK    2  A    between atoms: C_5  and  S_9
REMARK    3  A    between atoms: C_6  and  C_8
REMARK    4  A    between atoms: S_9  and  O_12
REMARK    5  A    between atoms: O_12  and  C_13
REMARK    6  A    between atoms: C_18  and  C_19
REMARK    7  A    between atoms: C_19  and  C_21
REMARK                            x       y       z     vdW  Elec       q    Type
REMARK                         _______ _______ _______ _____ _____    ______ ____
ROOT
ATOM      1  S   UNL     1      -0.243  -4.682  -0.228  0.00  0.00    +0.151 S 
ATOM      2  O   UNL     1       0.939  -5.410  -0.532  0.00  0.00    -0.131 OA
ATOM      3  O   UNL     1      -1.008  -4.927   0.944  0.00  0.00    -0.131 OA
ENDROOT
BRANCH   1   8
ATOM      4  C   UNL     1       1.311   1.146  -0.088  0.00  0.00    +0.044 C 
ATOM      5  C   UNL     1       0.923  -0.309  -0.123  0.00  0.00    -0.050 A 
ATOM      6  C   UNL     1       0.867  -1.038   1.050  0.00  0.00    +0.005 A 
ATOM      7  C   UNL     1       0.511  -2.373   1.018  0.00  0.00    +0.031 A 
ATOM      8  C   UNL     1       0.210  -2.980  -0.187  0.00  0.00    +0.131 A 
ATOM      9  C   UNL     1       0.265  -2.251  -1.360  0.00  0.00    -0.022 A 
ATOM     10  C   UNL     1       0.617  -0.914  -1.328  0.00  0.00    +0.008 A 
ATOM     11  C   UNL     1      -0.063  -2.912  -2.674  0.00  0.00    +0.046 C 
ENDBRANCH   1   8
BRANCH   1  12
ATOM     12  O   UNL     1      -1.185  -4.869  -1.409  0.00  0.00    -0.342 OA
BRANCH  12  13
ATOM     13  C   UNL     1      -1.909  -6.015  -1.361  0.00  0.00    +0.167 A 
ATOM     14  C   UNL     1      -1.371  -7.200  -1.838  0.00  0.00    +0.051 A 
ATOM     15  C   UNL     1      -2.109  -8.366  -1.789  0.00  0.00    +0.024 A 
ATOM     16  C   UNL     1      -3.392  -8.363  -1.262  0.00  0.00    +0.042 A 
ATOM     17  C   UNL     1      -3.945  -7.196  -0.783  0.00  0.00    +0.035 A 
ATOM     18  C   UNL     1      -3.206  -6.007  -0.822  0.00  0.00    +0.063 A 
ATOM     19 CL   UNL     1      -4.307  -9.838  -1.209  0.00  0.00    -0.084 Cl
BRANCH  18  20
ATOM     20  C   UNL     1      -3.785  -4.760  -0.308  0.00  0.00    +0.164 C 
ATOM     21  O   UNL     1      -3.144  -3.732  -0.348  0.00  0.00    -0.292 OA
ATOM     22  C   UNL     1      -5.178  -4.758   0.269  0.00  0.00    +0.092 C 
ENDBRANCH  18  20
ENDBRANCH  12  13
ENDBRANCH   1  12
TORSDOF 4
