REMARK  Name = ZINC49060964
REMARK  6 active torsions:
REMARK  status: ('A' for Active; 'I' for Inactive)
REMARK    1  A    between atoms: C_4  and  C_7
REMARK    2  A    between atoms: C_7  and  C_9
REMARK    3  A    between atoms: C_7  and  N_20
REMARK    4  A    between atoms: C_9  and  N_10
REMARK    5  A    between atoms: N_10  and  S_11
REMARK    6  A    between atoms: S_11  and  C_14
REMARK                            x       y       z     vdW  Elec       q    Type
REMARK                         _______ _______ _______ _____ _____    ______ ____
ROOT
ATOM      1  C   UNL     1       4.049  -1.182   1.377  0.00  0.00    +0.094 C 
ENDROOT
BRANCH   1   2
ATOM      2  N   UNL     1       5.265  -1.998   1.341  0.00  0.00    -0.191 NA
ATOM      3  H   UNL     1       5.595  -2.340   0.495  0.00  0.00    +0.148 HD
BRANCH   2   4
ATOM      4  S   UNL     1       6.076  -2.338   2.744  0.00  0.00    +0.066 S 
ATOM      5  O   UNL     1       7.179  -3.159   2.387  0.00  0.00    -0.153 OA
ATOM      6  O   UNL     1       6.234  -1.104   3.431  0.00  0.00    -0.153 OA
BRANCH   4   7
ATOM      7  C   UNL     1       5.009  -3.332   3.735  0.00  0.00    +0.156 A 
ATOM      8  C   UNL     1       5.228  -3.851   4.968  0.00  0.00    +0.051 A 
ATOM      9  C   UNL     1       4.236  -4.610   5.561  0.00  0.00    +0.025 A 
ATOM     10  C   UNL     1       3.074  -4.812   4.891  0.00  0.00    +0.048 A 
ATOM     11  S   UNL     1       3.358  -3.909   3.378  0.00  0.00    -0.076 S 
ATOM     12 BR   UNL     1       6.865  -3.543   5.863  0.00  0.00    -0.048 Br
ENDBRANCH   4   7
ENDBRANCH   2   4
ENDBRANCH   1   2
BRANCH   1  13
ATOM     13  C   UNL     1       3.711  -0.707  -0.038  0.00  0.00    -0.029 C 
BRANCH  13  17
ATOM     14  C   UNL     1      -0.017   1.378   0.010  0.00  0.00    +0.000 A 
ATOM     15  C   UNL     1       1.171   2.086   0.002  0.00  0.00    +0.000 A 
ATOM     16  C   UNL     1       2.377   1.411  -0.013  0.00  0.00    +0.002 A 
ATOM     17  C   UNL     1       2.396   0.029  -0.020  0.00  0.00    -0.061 A 
ATOM     18  C   UNL     1       1.208  -0.679  -0.012  0.00  0.00    +0.002 A 
ATOM     19  C   UNL     1       0.002  -0.004   0.002  0.00  0.00    +0.000 A 
ENDBRANCH  13  17
BRANCH  13  20
ATOM     20  N   UNL     1       3.611  -1.868  -0.933  0.00  0.00    +0.383 N 
ATOM     21  H   UNL     1       4.492  -2.360  -0.944  0.00  0.00    -0.089 HD
ATOM     22  H   UNL     1       2.885  -2.485  -0.603  0.00  0.00    -0.089 HD
ATOM     23  H   UNL     1       3.389  -1.555  -1.866  0.00  0.00    -0.089 HD
ENDBRANCH  13  20
ENDBRANCH   1  13
TORSDOF 6
