REMARK  Name = ZINC66149243
REMARK  8 active torsions:
REMARK  status: ('A' for Active; 'I' for Inactive)
REMARK    1  A    between atoms: C_1  and  C_2
REMARK    2  A    between atoms: C_8  and  O_10
REMARK    3  A    between atoms: O_10  and  C_11
REMARK    4  A    between atoms: C_11  and  C_12
REMARK    5  A    between atoms: C_12  and  N_13
REMARK    6  A    between atoms: N_16  and  C_17
REMARK    7  A    between atoms: N_16  and  C_18
REMARK    8  A    between atoms: N_21  and  C_24
REMARK                            x       y       z     vdW  Elec       q    Type
REMARK                         _______ _______ _______ _____ _____    ______ ____
ROOT
ATOM      1  N   UNL     1      -0.817  -0.408   5.147  0.00  0.00    -0.297 N 
ATOM      2  C   UNL     1      -1.647  -0.198   6.188  0.00  0.00    +0.302 C 
ATOM      3  O   UNL     1      -1.618   0.862   6.784  0.00  0.00    -0.253 OA
ATOM      4  N   UNL     1      -2.507  -1.163   6.569  0.00  0.00    -0.286 N 
ATOM      5  C   UNL     1      -2.541  -2.439   5.852  0.00  0.00    +0.134 C 
ATOM      6  H   UNL     1      -0.839  -1.254   4.672  0.00  0.00    +0.150 HD
ENDROOT
BRANCH   4   7
ATOM      7  C   UNL     1      -3.409  -0.934   7.701  0.00  0.00    +0.074 C 
ATOM      8  C   UNL     1      -3.145  -1.982   8.786  0.00  0.00    +0.004 C 
ATOM      9  C   UNL     1      -4.143  -1.787   9.930  0.00  0.00    -0.077 C 
ATOM     10  N   UNL     1      -5.511  -1.941   9.421  0.00  0.00    +0.382 N 
ATOM     11  C   UNL     1      -5.796  -0.894   8.432  0.00  0.00    -0.077 C 
ATOM     12  C   UNL     1      -4.862  -1.055   7.231  0.00  0.00    +0.004 C 
ATOM     13  H   UNL     1      -5.609  -2.847   8.988  0.00  0.00    -0.081 HD
BRANCH  10  14
ATOM     14  C   UNL     1      -6.462  -1.830  10.536  0.00  0.00    -0.064 C 
ATOM     15  C   UNL     1      -6.181  -2.934  11.560  0.00  0.00    +0.013 C 
ATOM     16  C   UNL     1      -7.224  -2.859  12.678  0.00  0.00    +0.158 C 
ATOM     17  O   UNL     1      -8.532  -2.984  12.117  0.00  0.00    -0.380 OA
ATOM     18  C   UNL     1      -8.868  -1.952  11.187  0.00  0.00    +0.158 C 
ATOM     19  C   UNL     1      -7.891  -1.990  10.009  0.00  0.00    +0.013 C 
ENDBRANCH  10  14
ENDBRANCH   4   7
BRANCH   1  20
ATOM     20  C   UNL     1       0.119   0.640   4.733  0.00  0.00    +0.133 C 
BRANCH  20  21
ATOM     21  C   UNL     1       0.938   0.149   3.537  0.00  0.00    +0.179 C 
BRANCH  21  22
ATOM     22  O   UNL     1       0.073  -0.050   2.417  0.00  0.00    -0.375 OA
BRANCH  22  29
ATOM     23  C   UNL     1      -0.019   1.526   0.010  0.00  0.00    +0.010 C 
ATOM     24  C   UNL     1       0.002  -0.004   0.002  0.00  0.00    +0.015 C 
ATOM     25  C   UNL     1       0.718  -0.497  -1.257  0.00  0.00    +0.006 C 
ATOM     26  C   UNL     1       0.739  -2.027  -1.265  0.00  0.00    +0.000 C 
ATOM     27  C   UNL     1       1.479  -2.534  -0.026  0.00  0.00    +0.003 C 
ATOM     28  C   UNL     1       0.763  -2.041   1.233  0.00  0.00    +0.032 C 
ATOM     29  C   UNL     1       0.742  -0.511   1.242  0.00  0.00    +0.121 C 
ENDBRANCH  22  29
ENDBRANCH  21  22
ENDBRANCH  20  21
ENDBRANCH   1  20
TORSDOF 6
