REMARK  Name = ZINC20491471
REMARK  3 active torsions:
REMARK  status: ('A' for Active; 'I' for Inactive)
REMARK    1  A    between atoms: C_1  and  C_2
REMARK    2  A    between atoms: N_7  and  S_9
REMARK    3  A    between atoms: S_9  and  C_12
REMARK                            x       y       z     vdW  Elec       q    Type
REMARK                         _______ _______ _______ _____ _____    ______ ____
ROOT
ATOM      1  C   UNL     1      -2.638  -1.367  -2.057  0.00  0.00    +0.107 A 
ATOM      2  C   UNL     1      -1.518  -2.009  -2.553  0.00  0.00    +0.032 A 
ATOM      3  C   UNL     1      -1.318  -3.354  -2.301  0.00  0.00    +0.049 A 
ATOM      4  C   UNL     1      -2.247  -4.062  -1.559  0.00  0.00    +0.142 A 
ATOM      5  C   UNL     1      -3.378  -3.416  -1.065  0.00  0.00    +0.078 A 
ATOM      6  C   UNL     1      -3.571  -2.068  -1.315  0.00  0.00    +0.055 A 
ATOM      7  N   UNL     1      -4.313  -4.146  -0.316  0.00  0.00    -0.280 N 
ATOM      8  C   UNL     1      -3.958  -5.353   0.175  0.00  0.00    +0.255 C 
ATOM      9  O   UNL     1      -4.759  -6.016   0.800  0.00  0.00    -0.272 OA
ATOM     10  C   UNL     1      -2.562  -5.873  -0.055  0.00  0.00    +0.325 C 
ATOM     11  O   UNL     1      -2.068  -5.386  -1.305  0.00  0.00    -0.481 OA
ATOM     12  H   UNL     1      -5.317  -3.734  -0.138  0.00  0.00    +0.155 HD
ENDROOT
BRANCH   1  13
ATOM     13  S   UNL     1      -2.880   0.349  -2.378  0.00  0.00    +0.061 S 
ATOM     14  O   UNL     1      -4.277   0.588  -2.273  0.00  0.00    -0.153 OA
ATOM     15  O   UNL     1      -2.142   0.651  -3.554  0.00  0.00    -0.153 OA
BRANCH  13  21
ATOM     16  C   UNL     1       1.422   1.616  -0.003  0.00  0.00    +0.009 C 
ATOM     17  C   UNL     1      -0.013   1.086   0.008  0.00  0.00    +0.002 C 
ATOM     18  C   UNL     1      -0.730   1.580   1.266  0.00  0.00    +0.006 C 
ATOM     19  C   UNL     1      -2.156   1.023   1.294  0.00  0.00    +0.017 C 
ATOM     20  C   UNL     1      -2.923   1.530   0.068  0.00  0.00    +0.109 C 
ATOM     21  N   UNL     1      -2.163   1.185  -1.141  0.00  0.00    -0.176 NA
ATOM     22  C   UNL     1      -0.755   1.594  -1.232  0.00  0.00    +0.112 C 
ENDBRANCH  13  21
ENDBRANCH   1  13
TORSDOF 2
