REMARK  Name = ZINC10623733
REMARK  6 active torsions:
REMARK  status: ('A' for Active; 'I' for Inactive)
REMARK    1  A    between atoms: C_3  and  S_21
REMARK    2  A    between atoms: C_6  and  C_7
REMARK    3  A    between atoms: N_9  and  N_10
REMARK    4  A    between atoms: C_11  and  C_13
REMARK    5  A    between atoms: C_18  and  O_19
REMARK    6  A    between atoms: S_21  and  N_24
REMARK                            x       y       z     vdW  Elec       q    Type
REMARK                         _______ _______ _______ _____ _____    ______ ____
ROOT
ATOM      1  C   UNL     1      -0.076  -0.612  -6.038  0.00  0.00    +0.260 C 
ATOM      2  O   UNL     1      -0.059  -1.828  -6.038  0.00  0.00    -0.269 OA
ATOM      3  N   UNL     1      -0.069   0.062  -4.872  0.00  0.00    -0.230 N 
ATOM      4  H   UNL     1      -0.082   1.032  -4.872  0.00  0.00    +0.173 HD
ENDROOT
BRANCH   1  10
ATOM      5  C   UNL     1      -0.129   1.522  -7.322  0.00  0.00    +0.015 A 
ATOM      6  C   UNL     1      -0.150   2.205  -8.521  0.00  0.00    +0.029 A 
ATOM      7  C   UNL     1      -0.158   1.510  -9.717  0.00  0.00    +0.106 A 
ATOM      8  C   UNL     1      -0.139   0.127  -9.720  0.00  0.00    +0.029 A 
ATOM      9  C   UNL     1      -0.112  -0.569  -8.529  0.00  0.00    +0.015 A 
ATOM     10  C   UNL     1      -0.104   0.127  -7.319  0.00  0.00    +0.038 A 
BRANCH   7  11
ATOM     11  S   UNL     1      -0.192   2.391 -11.243  0.00  0.00    +0.061 S 
ATOM     12  O   UNL     1       0.345   3.680 -10.980  0.00  0.00    -0.153 OA
ATOM     13  O   UNL     1       0.356   1.522 -12.225  0.00  0.00    -0.153 OA
BRANCH  11  14
ATOM     14  N   UNL     1      -1.784   2.614 -11.644  0.00  0.00    -0.177 NA
ATOM     15  C   UNL     1      -2.600   1.698 -12.453  0.00  0.00    +0.109 C 
ATOM     16  C   UNL     1      -4.003   2.327 -12.583  0.00  0.00    +0.018 C 
ATOM     17  C   UNL     1      -3.732   3.832 -12.324  0.00  0.00    +0.018 C 
ATOM     18  C   UNL     1      -2.615   3.767 -11.253  0.00  0.00    +0.109 C 
ENDBRANCH  11  14
ENDBRANCH   7  11
ENDBRANCH   1  10
BRANCH   3  19
ATOM     19  N   UNL     1      -0.042  -0.638  -3.658  0.00  0.00    -0.230 N 
ATOM     20  C   UNL     1      -0.034   0.036  -2.491  0.00  0.00    +0.264 C 
ATOM     21  O   UNL     1      -0.051   1.252  -2.491  0.00  0.00    -0.269 OA
ATOM     22  H   UNL     1      -0.028  -1.608  -3.658  0.00  0.00    +0.173 HD
BRANCH  20  23
ATOM     23  C   UNL     1      -0.006  -0.701  -1.214  0.00  0.00    +0.081 A 
ATOM     24  C   UNL     1       0.018  -2.098  -1.209  0.00  0.00    +0.036 A 
ATOM     25  C   UNL     1       0.039  -2.781  -0.011  0.00  0.00    +0.042 A 
ATOM     26  C   UNL     1       0.041  -2.087   1.189  0.00  0.00    +0.023 A 
ATOM     27  C   UNL     1       0.023  -0.707   1.198  0.00  0.00    +0.047 A 
ATOM     28  C   UNL     1       0.002  -0.004   0.002  0.00  0.00    +0.129 A 
ATOM     29 CL   UNL     1       0.062  -4.517  -0.006  0.00  0.00    -0.084 Cl
BRANCH  28  30
ATOM     30  O   UNL     1      -0.016   1.353   0.009  0.00  0.00    -0.506 OA
ATOM     31  H   UNL     1       0.862   1.758   0.003  0.00  0.00    +0.292 HD
ENDBRANCH  28  30
ENDBRANCH  20  23
ENDBRANCH   3  19
TORSDOF 6
