REMARK  Name = ZINC09542450
REMARK  11 active torsions:
REMARK  status: ('A' for Active; 'I' for Inactive)
REMARK    1  A    between atoms: C_1  and  C_2
REMARK    2  A    between atoms: C_2  and  C_3
REMARK    3  A    between atoms: C_6  and  C_9
REMARK    4  A    between atoms: C_11  and  C_26
REMARK    5  A    between atoms: C_13  and  C_16
REMARK    6  A    between atoms: C_20  and  O_23
REMARK    7  A    between atoms: C_21  and  O_22
REMARK    8  A    between atoms: O_23  and  C_24
REMARK    9  A    between atoms: C_24  and  C_25
REMARK   10  A    between atoms: C_29  and  O_33
REMARK   11  A    between atoms: O_33  and  C_34
REMARK                            x       y       z     vdW  Elec       q    Type
REMARK                         _______ _______ _______ _____ _____    ______ ____
ROOT
ATOM      1  C   UNL     1      -2.502   1.009   0.019  0.00  0.00    +0.040 C 
ATOM      2  N   UNL     1      -2.455  -0.270   0.007  0.00  0.00    -0.299 NA
ATOM      3  C   UNL     1      -3.630  -1.132   0.022  0.00  0.00    +0.081 C 
ATOM      4  C   UNL     1      -4.942   0.852   0.420  0.00  0.00    -0.028 C 
ATOM      5  C   UNL     1      -3.790   1.783   0.030  0.00  0.00    +0.044 C 
ATOM      6  N   UNL     1      -4.830  -0.383  -0.380  0.00  0.00    +0.401 N 
ATOM      7  H   UNL     1      -5.662  -0.965  -0.227  0.00  0.00    -0.081 HD
ATOM      8  H   UNL     1      -4.761  -0.139  -1.375  0.00  0.00    -0.081 HD
ENDROOT
BRANCH   3   9
ATOM      9  C   UNL     1      -3.417  -2.274  -0.938  0.00  0.00    -0.039 A 
ATOM     10  C   UNL     1      -2.137  -2.730  -1.194  0.00  0.00    +0.007 A 
ATOM     11  C   UNL     1      -1.939  -3.777  -2.073  0.00  0.00    +0.047 A 
ATOM     12  C   UNL     1      -3.025  -4.371  -2.700  0.00  0.00    +0.134 A 
ATOM     13  C   UNL     1      -4.309  -3.911  -2.441  0.00  0.00    +0.060 A 
ATOM     14  C   UNL     1      -4.502  -2.867  -1.556  0.00  0.00    +0.022 A 
ATOM     15 BR   UNL     1      -5.792  -4.718  -3.291  0.00  0.00    -0.047 Br
BRANCH  12  16
ATOM     16  O   UNL     1      -2.832  -5.401  -3.565  0.00  0.00    -0.494 OA
ATOM     17  C   UNL     1      -1.484  -5.821  -3.784  0.00  0.00    +0.277 C 
ENDBRANCH  12  16
ENDBRANCH   3   9
BRANCH   1  21
ATOM     18  C   UNL     1       1.155   3.167   0.008  0.00  0.00    -0.048 A 
ATOM     19  C   UNL     1       1.172   1.783   0.000  0.00  0.00    +0.004 A 
ATOM     20  C   UNL     1      -0.013   1.076   0.008  0.00  0.00    +0.010 A 
ATOM     21  C   UNL     1      -1.230   1.759   0.017  0.00  0.00    -0.004 A 
ATOM     22  C   UNL     1      -1.240   3.155   0.030  0.00  0.00    +0.010 A 
ATOM     23  C   UNL     1      -0.048   3.850   0.022  0.00  0.00    +0.004 A 
BRANCH  18  25
ATOM     24  C   UNL     1       2.877   4.199  -1.447  0.00  0.00    +0.009 C 
ATOM     25  C   UNL     1       2.452   3.933  -0.001  0.00  0.00    +0.032 C 
ENDBRANCH  18  25
ENDBRANCH   1  21
BRANCH   4  26
ATOM     26  C   UNL     1      -6.260   1.524   0.130  0.00  0.00    -0.016 A 
ATOM     27  C   UNL     1      -6.958   1.209  -1.022  0.00  0.00    +0.006 A 
ATOM     28  C   UNL     1      -8.169   1.819  -1.288  0.00  0.00    +0.004 A 
ATOM     29  C   UNL     1      -8.682   2.756  -0.410  0.00  0.00    +0.049 A 
ATOM     30  C   UNL     1      -7.985   3.081   0.742  0.00  0.00    +0.162 A 
ATOM     31  C   UNL     1      -6.768   2.462   1.013  0.00  0.00    +0.160 A 
BRANCH  31  32
ATOM     32  O   UNL     1      -6.080   2.777   2.143  0.00  0.00    -0.503 OA
ATOM     33  H   UNL     1      -5.458   3.509   2.033  0.00  0.00    +0.292 HD
ENDBRANCH  31  32
BRANCH  30  34
ATOM     34  O   UNL     1      -8.488   4.003   1.606  0.00  0.00    -0.489 OA
BRANCH  34  35
ATOM     35  C   UNL     1      -9.742   4.597   1.263  0.00  0.00    +0.226 C 
ATOM     36  C   UNL     1     -10.144   5.601   2.345  0.00  0.00    +0.048 C 
ENDBRANCH  34  35
ENDBRANCH  30  34
ENDBRANCH   4  26
TORSDOF 8
