REMARK  Name = ZINC39978065
REMARK  16 active torsions:
REMARK  status: ('A' for Active; 'I' for Inactive)
REMARK    1  A    between atoms: C_1  and  C_2
REMARK    2  A    between atoms: C_4  and  C_15
REMARK    3  A    between atoms: C_5  and  C_14
REMARK    4  A    between atoms: N_7  and  C_8
REMARK    5  A    between atoms: C_18  and  C_20
REMARK    6  A    between atoms: N_22  and  N_23
REMARK    7  A    between atoms: C_24  and  C_25
REMARK    8  A    between atoms: C_27  and  C_36
REMARK    9  A    between atoms: C_28  and  O_35
REMARK   10  A    between atoms: C_29  and  C_31
REMARK   11  A    between atoms: C_31  and  C_32
REMARK   12  A    between atoms: C_31  and  C_33
REMARK   13  A    between atoms: C_31  and  C_34
REMARK   14  A    between atoms: C_36  and  C_37
REMARK   15  A    between atoms: C_36  and  C_38
REMARK   16  A    between atoms: C_36  and  C_39
REMARK                            x       y       z     vdW  Elec       q    Type
REMARK                         _______ _______ _______ _____ _____    ______ ____
ROOT
ATOM      1  C   UNL     1       0.462  -0.387  -6.298  0.00  0.00    +0.280 C 
ATOM      2  O   UNL     1       1.404  -1.034  -6.718  0.00  0.00    -0.267 OA
ATOM      3  N   UNL     1      -0.398   0.189  -7.162  0.00  0.00    -0.202 N 
ATOM      4  H   UNL     1      -1.149   0.705  -6.827  0.00  0.00    +0.178 HD
ENDROOT
BRANCH   1   8
ATOM      5  C   UNL     1       0.404  -0.301  -2.552  0.00  0.00    +0.076 C 
ATOM      6  N   UNL     1      -0.621   0.391  -3.022  0.00  0.00    -0.153 NA
ATOM      7  N   UNL     1      -0.687   0.420  -4.295  0.00  0.00    -0.148 NA
ATOM      8  C   UNL     1       0.270  -0.239  -4.903  0.00  0.00    +0.132 C 
ATOM      9  C   UNL     1       1.133  -0.804  -3.787  0.00  0.00    +0.120 C 
BRANCH   5  12
ATOM     10  C   UNL     1      -0.019   1.526   0.010  0.00  0.00    +0.035 C 
ATOM     11  C   UNL     1       0.002  -0.004   0.002  0.00  0.00    +0.124 C 
ATOM     12  C   UNL     1       0.745  -0.517  -1.213  0.00  0.00    +0.016 C 
ATOM     13  C   UNL     1       1.806  -1.227  -0.752  0.00  0.00    +0.026 C 
ATOM     14  N   UNL     1       1.846  -1.240   0.601  0.00  0.00    -0.267 N 
ATOM     15  N   UNL     1       0.775  -0.515   1.146  0.00  0.00    -0.246 N 
ATOM     16  C   UNL     1       2.814  -1.915  -1.636  0.00  0.00    +0.062 C 
ATOM     17  H   UNL     1       2.525  -1.692   1.126  0.00  0.00    +0.170 HD
BRANCH  15  18
ATOM     18  C   UNL     1       0.498  -0.316   2.501  0.00  0.00    +0.048 A 
ATOM     19  C   UNL     1      -0.612   0.427   2.882  0.00  0.00    +0.025 A 
ATOM     20  C   UNL     1      -0.884   0.621   4.222  0.00  0.00    +0.002 A 
ATOM     21  C   UNL     1      -0.053   0.077   5.184  0.00  0.00    +0.000 A 
ATOM     22  C   UNL     1       1.053  -0.663   4.808  0.00  0.00    +0.002 A 
ATOM     23  C   UNL     1       1.327  -0.867   3.469  0.00  0.00    +0.025 A 
ENDBRANCH  15  18
ENDBRANCH   5  12
ENDBRANCH   1   8
BRANCH   3  24
ATOM     24  N   UNL     1      -0.208   0.043  -8.542  0.00  0.00    -0.187 NA
ATOM     25  C   UNL     1      -1.037   0.598  -9.373  0.00  0.00    +0.138 C 
BRANCH  25  26
ATOM     26  C   UNL     1      -0.837   0.444 -10.826  0.00  0.00    -0.005 A 
ATOM     27  C   UNL     1       0.240  -0.303 -11.310  0.00  0.00    +0.017 A 
ATOM     28  C   UNL     1       0.422  -0.444 -12.668  0.00  0.00    +0.000 A 
ATOM     29  C   UNL     1      -0.462   0.155 -13.556  0.00  0.00    +0.124 A 
ATOM     30  C   UNL     1      -1.534   0.899 -13.080  0.00  0.00    +0.000 A 
ATOM     31  C   UNL     1      -1.728   1.040 -11.723  0.00  0.00    +0.017 A 
BRANCH  30  32
ATOM     32  C   UNL     1      -2.490   1.547 -14.048  0.00  0.00    -0.009 C 
ATOM     33  C   UNL     1      -3.571   2.300 -13.271  0.00  0.00    +0.015 C 
ATOM     34  C   UNL     1      -1.726   2.528 -14.939  0.00  0.00    +0.015 C 
ATOM     35  C   UNL     1      -3.143   0.470 -14.917  0.00  0.00    +0.015 C 
ENDBRANCH  30  32
BRANCH  28  36
ATOM     36  C   UNL     1       1.584  -1.250 -13.192  0.00  0.00    -0.009 C 
ATOM     37  C   UNL     1       2.396  -1.796 -12.016  0.00  0.00    +0.015 C 
ATOM     38  C   UNL     1       1.058  -2.414 -14.034  0.00  0.00    +0.015 C 
ATOM     39  C   UNL     1       2.475  -0.356 -14.057  0.00  0.00    +0.015 C 
ENDBRANCH  28  36
BRANCH  29  40
ATOM     40  O   UNL     1      -0.277   0.014 -14.895  0.00  0.00    -0.506 OA
ATOM     41  H   UNL     1      -0.725  -0.754 -15.275  0.00  0.00    +0.292 HD
ENDBRANCH  29  40
ENDBRANCH  25  26
ENDBRANCH   3  24
TORSDOF 8
