REMARK  Name = ZINC29224804
REMARK  12 active torsions:
REMARK  status: ('A' for Active; 'I' for Inactive)
REMARK    1  A    between atoms: C_1  and  C_2
REMARK    2  A    between atoms: C_2  and  C_3
REMARK    3  A    between atoms: C_3  and  N_4
REMARK    4  A    between atoms: C_5  and  C_7
REMARK    5  A    between atoms: C_7  and  N_8
REMARK    6  A    between atoms: C_11  and  N_14
REMARK    7  A    between atoms: C_15  and  C_17
REMARK    8  A    between atoms: C_17  and  C_19
REMARK    9  A    between atoms: C_17  and  N_22
REMARK   10  A    between atoms: C_19  and  C_20
REMARK   11  A    between atoms: C_19  and  C_21
REMARK   12  A    between atoms: C_23  and  C_25
REMARK                            x       y       z     vdW  Elec       q    Type
REMARK                         _______ _______ _______ _____ _____    ______ ____
ROOT
ATOM      1  N   UNL     1      -0.410   1.080  -0.036  0.00  0.00    -0.311 N 
ATOM      2  C   UNL     1       0.577   1.982   0.132  0.00  0.00    +0.234 C 
ATOM      3  O   UNL     1       1.698   1.610   0.408  0.00  0.00    -0.274 OA
ATOM      4  H   UNL     1      -1.443   1.419  -0.206  0.00  0.00    +0.149 HD
ENDROOT
BRANCH   1   8
ATOM      5  N   UNL     1      -0.628  -3.028  -0.949  0.00  0.00    +0.385 N 
ATOM      6  C   UNL     1      -1.058  -2.629   0.397  0.00  0.00    -0.076 C 
ATOM      7  C   UNL     1      -1.363  -1.129   0.413  0.00  0.00    +0.003 C 
ATOM      8  C   UNL     1      -0.108  -0.353   0.007  0.00  0.00    +0.069 C 
ATOM      9  C   UNL     1       0.347  -0.822  -1.378  0.00  0.00    +0.003 C 
ATOM     10  C   UNL     1       0.603  -2.330  -1.342  0.00  0.00    -0.076 C 
ATOM     11  H   UNL     1      -1.419  -2.734  -1.654  0.00  0.00    -0.081 HD
BRANCH   5  12
ATOM     12  C   UNL     1      -0.459  -4.484  -1.037  0.00  0.00    +0.019 C 
BRANCH  12  14
ATOM     13  N   UNL     1      -1.873  -6.500  -0.801  0.00  0.00    -0.317 N 
ATOM     14  C   UNL     1      -1.798  -5.156  -0.871  0.00  0.00    +0.196 C 
ATOM     15  O   UNL     1      -2.807  -4.488  -0.799  0.00  0.00    -0.278 OA
ATOM     16  H   UNL     1      -0.958  -7.107  -0.866  0.00  0.00    +0.149 HD
BRANCH  13  17
ATOM     17  C   UNL     1      -3.175  -7.153  -0.639  0.00  0.00    +0.104 C 
BRANCH  17  19
ATOM     18  C   UNL     1      -4.340  -9.352  -0.420  0.00  0.00    +0.005 C 
ATOM     19  C   UNL     1      -2.981  -8.670  -0.589  0.00  0.00    +0.015 C 
ENDBRANCH  17  19
ENDBRANCH  13  17
ENDBRANCH  12  14
ENDBRANCH   5  12
ENDBRANCH   1   8
BRANCH   2  20
ATOM     20  C   UNL     1       0.287   3.453  -0.023  0.00  0.00    +0.162 C 
BRANCH  20  21
ATOM     21  N   UNL     1       1.538   4.173  -0.271  0.00  0.00    -0.300 N 
ATOM     22  C   UNL     1       1.519   5.353  -0.923  0.00  0.00    +0.245 C 
ATOM     23  O   UNL     1       0.463   5.819  -1.304  0.00  0.00    -0.270 OA
ATOM     24  H   UNL     1       2.494   3.752   0.074  0.00  0.00    +0.150 HD
BRANCH  22  25
ATOM     25  C   UNL     1       2.780   6.080  -1.173  0.00  0.00    +0.037 A 
ATOM     26  C   UNL     1       3.994   5.549  -0.730  0.00  0.00    +0.016 A 
ATOM     27  C   UNL     1       5.169   6.228  -0.972  0.00  0.00    +0.039 A 
ATOM     28  C   UNL     1       5.146   7.442  -1.643  0.00  0.00    +0.123 A 
ATOM     29  C   UNL     1       3.943   7.976  -2.079  0.00  0.00    +0.039 A 
ATOM     30  C   UNL     1       2.763   7.302  -1.848  0.00  0.00    +0.016 A 
ATOM     31  F   UNL     1       6.300   8.106  -1.872  0.00  0.00    -0.205 F 
ENDBRANCH  22  25
ENDBRANCH  20  21
BRANCH  20  32
ATOM     32  C   UNL     1      -0.361   3.982   1.258  0.00  0.00    +0.012 C 
ATOM     33  C   UNL     1       0.616   3.830   2.425  0.00  0.00    +0.009 C 
ATOM     34  C   UNL     1      -0.713   5.460   1.078  0.00  0.00    +0.009 C 
ENDBRANCH  20  32
ENDBRANCH   2  20
TORSDOF 9
