REMARK  Name = ZINC05152289
REMARK  2 active torsions:
REMARK  status: ('A' for Active; 'I' for Inactive)
REMARK    1  A    between atoms: N_16  and  C_17
REMARK    2  A    between atoms: C_17  and  C_18
REMARK                            x       y       z     vdW  Elec       q    Type
REMARK                         _______ _______ _______ _____ _____    ______ ____
ROOT
ATOM      1  C   UNL     1      -0.016   1.362   0.009  0.00  0.00    +0.001 A 
ATOM      2  C   UNL     1       1.168   2.091   0.002  0.00  0.00    +0.002 A 
ATOM      3  C   UNL     1       2.380   1.464  -0.013  0.00  0.00    +0.028 A 
ATOM      4  C   UNL     1       2.436   0.063  -0.021  0.00  0.00    +0.079 A 
ATOM      5  C   UNL     1       1.226  -0.675  -0.013  0.00  0.00    +0.067 A 
ATOM      6  C   UNL     1       0.002  -0.004   0.002  0.00  0.00    +0.015 A 
ATOM      7  C   UNL     1       1.309  -2.137  -0.022  0.00  0.00    +0.282 A 
ATOM      8  O   UNL     1       0.303  -2.824  -0.016  0.00  0.00    -0.265 OA
ATOM      9  N   UNL     1       2.540  -2.699  -0.037  0.00  0.00    -0.176 N 
ATOM     10  C   UNL     1       3.662  -1.917  -0.045  0.00  0.00    +0.159 A 
ATOM     11  N   UNL     1       3.603  -0.594  -0.037  0.00  0.00    -0.228 NA
ATOM     12  C   UNL     1       4.934  -2.543  -0.061  0.00  0.00    +0.052 A 
ATOM     13  C   UNL     1       5.011  -3.897  -0.069  0.00  0.00    +0.049 A 
ATOM     14  C   UNL     1       3.831  -4.671  -0.061  0.00  0.00    +0.140 A 
ATOM     15  N   UNL     1       2.655  -4.095  -0.046  0.00  0.00    -0.147 NA
ATOM     16  N   UNL     1       3.918  -6.059  -0.069  0.00  0.00    -0.323 N 
ATOM     17  H   UNL     1       4.787  -6.490  -0.081  0.00  0.00    +0.148 HD
ENDROOT
BRANCH  16  18
ATOM     18  C   UNL     1       2.698  -6.870  -0.061  0.00  0.00    +0.145 C 
BRANCH  18  19
ATOM     19  C   UNL     1       3.066  -8.331  -0.073  0.00  0.00    +0.007 A 
ATOM     20  C   UNL     1       3.280  -9.166   0.973  0.00  0.00    +0.013 A 
ATOM     21  C   UNL     1       3.610 -10.485   0.722  0.00  0.00    +0.008 A 
ATOM     22  C   UNL     1       3.710 -10.904  -0.563  0.00  0.00    +0.045 A 
ATOM     23  S   UNL     1       3.325  -9.414  -1.468  0.00  0.00    -0.100 S 
ENDBRANCH  18  19
ENDBRANCH  16  18
TORSDOF 2
