REMARK  Name = ZINC31721919
REMARK  4 active torsions:
REMARK  status: ('A' for Active; 'I' for Inactive)
REMARK    1  A    between atoms: C_1  and  C_2
REMARK    2  A    between atoms: C_6  and  N_12
REMARK    3  A    between atoms: N_12  and  S_13
REMARK    4  A    between atoms: S_13  and  C_16
REMARK                            x       y       z     vdW  Elec       q    Type
REMARK                         _______ _______ _______ _____ _____    ______ ____
ROOT
ATOM      1  N   UNL     1      -3.663  -0.746   0.015  0.00  0.00    -0.216 N 
ATOM      2  H   UNL     1      -4.278  -0.846  -0.891  0.00  0.00    +0.174 HD
ENDROOT
BRANCH   1   8
ATOM      3  C   UNL     1       3.350   1.645  -0.090  0.00  0.00    +0.063 C 
ATOM      4  C   UNL     1       1.863   1.399  -0.059  0.00  0.00    +0.014 A 
ATOM      5  C   UNL     1       1.282   0.190  -0.085  0.00  0.00    +0.030 A 
ATOM      6  C   UNL     1      -0.166   0.409  -0.039  0.00  0.00    +0.002 A 
ATOM      7  C   UNL     1      -1.275  -0.440  -0.038  0.00  0.00    +0.034 A 
ATOM      8  C   UNL     1      -2.547   0.099   0.014  0.00  0.00    +0.049 A 
ATOM      9  C   UNL     1      -2.722   1.481   0.065  0.00  0.00    +0.026 A 
ATOM     10  C   UNL     1      -1.635   2.325   0.070  0.00  0.00    +0.028 A 
ATOM     11  C   UNL     1      -0.347   1.803   0.013  0.00  0.00    +0.047 A 
ATOM     12  N   UNL     1       0.907   2.376  -0.000  0.00  0.00    -0.358 N 
ATOM     13  H   UNL     1       1.204   3.435   0.028  0.00  0.00    +0.166 HD
ENDBRANCH   1   8
BRANCH   1  14
ATOM     14  S   UNL     1      -4.057  -1.596   1.381  0.00  0.00    +0.072 S 
ATOM     15  O   UNL     1      -5.251  -2.307   1.087  0.00  0.00    -0.150 OA
ATOM     16  O   UNL     1      -2.869  -2.247   1.811  0.00  0.00    -0.150 OA
BRANCH  14  17
ATOM     17  C   UNL     1      -4.465  -0.419   2.627  0.00  0.00    +0.111 A 
ATOM     18  C   UNL     1      -3.472   0.111   3.429  0.00  0.00    +0.049 A 
ATOM     19  C   UNL     1      -3.791   1.040   4.404  0.00  0.00    +0.044 A 
ATOM     20  C   UNL     1      -5.106   1.430   4.583  0.00  0.00    +0.040 A 
ATOM     21  C   UNL     1      -6.101   0.895   3.784  0.00  0.00    +0.044 A 
ATOM     22  C   UNL     1      -5.779  -0.029   2.806  0.00  0.00    +0.049 A 
ATOM     23 CL   UNL     1      -7.751   1.385   4.007  0.00  0.00    -0.083 Cl
ATOM     24 CL   UNL     1      -2.542   1.710   5.406  0.00  0.00    -0.083 Cl
ENDBRANCH  14  17
ENDBRANCH   1  14
TORSDOF 3
