REMARK  Name = ZINC12202684
REMARK  10 active torsions:
REMARK  status: ('A' for Active; 'I' for Inactive)
REMARK    1  A    between atoms: C_1  and  N_2
REMARK    2  A    between atoms: N_2  and  C_3
REMARK    3  A    between atoms: N_2  and  C_4
REMARK    4  A    between atoms: C_5  and  C_16
REMARK    5  A    between atoms: C_16  and  N_17
REMARK    6  A    between atoms: N_17  and  C_18
REMARK    7  A    between atoms: C_18  and  C_19
REMARK    8  A    between atoms: C_25  and  C_27
REMARK    9  A    between atoms: C_27  and  C_28
REMARK   10  A    between atoms: C_27  and  C_34
REMARK                            x       y       z     vdW  Elec       q    Type
REMARK                         _______ _______ _______ _____ _____    ______ ____
ROOT
ATOM      1  N   UNL     1       3.346  -0.725   2.412  0.00  0.00    -0.294 N 
ATOM      2  C   UNL     1       3.981  -0.091   1.406  0.00  0.00    +0.228 C 
ATOM      3  O   UNL     1       4.935   0.618   1.643  0.00  0.00    -0.275 OA
ENDROOT
BRANCH   1   4
ATOM      4  C   UNL     1       3.879  -0.653   3.775  0.00  0.00    +0.146 C 
BRANCH   4   6
ATOM      5  C   UNL     1       2.109   0.604   5.055  0.00  0.00    +0.103 A 
ATOM      6  C   UNL     1       3.372   0.597   4.447  0.00  0.00    +0.008 A 
ATOM      7  C   UNL     1       4.143   1.720   4.471  0.00  0.00    +0.018 A 
ATOM      8  C   UNL     1       3.630   2.869   5.105  0.00  0.00    +0.002 A 
ATOM      9  C   UNL     1       4.371   4.061   5.160  0.00  0.00    +0.059 A 
ATOM     10  C   UNL     1       3.850   5.155   5.787  0.00  0.00    +0.167 A 
ATOM     11  C   UNL     1       2.579   5.101   6.383  0.00  0.00    +0.168 A 
ATOM     12  C   UNL     1       1.839   3.954   6.343  0.00  0.00    +0.075 A 
ATOM     13  C   UNL     1       2.348   2.813   5.703  0.00  0.00    +0.051 A 
ATOM     14  O   UNL     1       2.309   6.321   6.934  0.00  0.00    -0.453 OA
ATOM     15  C   UNL     1       3.580   6.989   7.034  0.00  0.00    +0.466 C 
ATOM     16  O   UNL     1       4.361   6.409   5.973  0.00  0.00    -0.453 OA
ATOM     17  N   UNL     1       1.568   1.676   5.685  0.00  0.00    -0.343 N 
ATOM     18  H   UNL     1       0.638   1.643   6.120  0.00  0.00    +0.167 HD
BRANCH   5  20
ATOM     19  C   UNL     1       1.495  -1.318   6.270  0.00  0.00    +0.130 C 
ATOM     20  N   UNL     1       1.337  -0.550   5.028  0.00  0.00    -0.322 N 
ATOM     21  C   UNL     1      -0.075  -0.232   4.781  0.00  0.00    +0.130 C 
ENDBRANCH   5  20
ENDBRANCH   4   6
ENDBRANCH   1   4
BRANCH   1  22
ATOM     22  C   UNL     1       2.123  -1.486   2.143  0.00  0.00    +0.139 C 
BRANCH  22  23
ATOM     23  C   UNL     1       2.475  -2.960   1.933  0.00  0.00    +0.136 C 
ATOM     24  C   UNL     1       1.195  -3.769   1.650  0.00  0.00    +0.035 C 
ATOM     25  C   UNL     1       1.450  -4.409   0.263  0.00  0.00    +0.031 C 
ATOM     26  C   UNL     1       2.996  -4.356   0.161  0.00  0.00    +0.160 C 
ATOM     27  O   UNL     1       3.332  -3.099   0.788  0.00  0.00    -0.375 OA
ENDBRANCH  22  23
ENDBRANCH   1  22
BRANCH   2  28
ATOM     28  C   UNL     1       3.504  -0.265  -0.013  0.00  0.00    +0.135 C 
BRANCH  28  29
ATOM     29  C   UNL     1       2.377   0.698  -0.285  0.00  0.00    -0.031 A 
ATOM     30  C   UNL     1       2.538   2.044  -0.019  0.00  0.00    +0.005 A 
ATOM     31  C   UNL     1       1.504   2.927  -0.269  0.00  0.00    +0.000 A 
ATOM     32  C   UNL     1       0.309   2.463  -0.786  0.00  0.00    +0.000 A 
ATOM     33  C   UNL     1       0.148   1.117  -1.053  0.00  0.00    +0.000 A 
ATOM     34  C   UNL     1       1.181   0.234  -0.802  0.00  0.00    +0.005 A 
ENDBRANCH  28  29
BRANCH  28  35
ATOM     35  C   UNL     1       4.641   0.012  -0.962  0.00  0.00    -0.031 A 
ATOM     36  C   UNL     1       5.261   1.248  -0.956  0.00  0.00    +0.005 A 
ATOM     37  C   UNL     1       6.308   1.500  -1.823  0.00  0.00    +0.000 A 
ATOM     38  C   UNL     1       6.727   0.520  -2.704  0.00  0.00    +0.000 A 
ATOM     39  C   UNL     1       6.104  -0.714  -2.714  0.00  0.00    +0.000 A 
ATOM     40  C   UNL     1       5.061  -0.968  -1.843  0.00  0.00    +0.005 A 
ENDBRANCH  28  35
ENDBRANCH   2  28
TORSDOF 8
