REMARK  Name = ZINC27522760
REMARK  10 active torsions:
REMARK  status: ('A' for Active; 'I' for Inactive)
REMARK    1  A    between atoms: C_1  and  C_2
REMARK    2  A    between atoms: C_2  and  C_3
REMARK    3  A    between atoms: C_2  and  C_4
REMARK    4  A    between atoms: C_2  and  C_5
REMARK    5  A    between atoms: C_8  and  C_11
REMARK    6  A    between atoms: N_13  and  C_14
REMARK    7  A    between atoms: C_14  and  C_25
REMARK    8  A    between atoms: C_15  and  C_16
REMARK    9  A    between atoms: C_19  and  N_22
REMARK   10  A    between atoms: N_27  and  C_28
REMARK                            x       y       z     vdW  Elec       q    Type
REMARK                         _______ _______ _______ _____ _____    ______ ____
ROOT
ATOM      1  C   UNL     1      -3.655   2.127  -0.123  0.00  0.00    +0.097 C 
ATOM      2  C   UNL     1      -4.855   1.514  -0.240  0.00  0.00    +0.036 C 
ENDROOT
BRANCH   2   3
ATOM      3  C   UNL     1      -6.095   2.298  -0.124  0.00  0.00    -0.023 A 
ATOM      4  C   UNL     1      -6.074   3.564   0.470  0.00  0.00    +0.010 A 
ATOM      5  C   UNL     1      -7.239   4.295   0.569  0.00  0.00    +0.033 A 
ATOM      6  C   UNL     1      -8.430   3.773   0.095  0.00  0.00    +0.126 A 
ATOM      7  C   UNL     1      -8.460   2.518  -0.489  0.00  0.00    +0.033 A 
ATOM      8  C   UNL     1      -7.303   1.778  -0.601  0.00  0.00    +0.010 A 
BRANCH   6   9
ATOM      9  N   UNL     1      -9.677   4.561   0.212  0.00  0.00    +0.056 N 
ATOM     10  O   UNL     1     -10.727   4.104  -0.204  0.00  0.00    -0.126 OA
ATOM     11  O   UNL     1      -9.654   5.665   0.725  0.00  0.00    -0.126 OA
ENDBRANCH   6   9
ENDBRANCH   2   3
BRANCH   1  14
ATOM     12  C   UNL     1      -2.950   4.103   0.996  0.00  0.00    +0.248 C 
ATOM     13  O   UNL     1      -2.391   3.417   1.830  0.00  0.00    -0.270 OA
ATOM     14  N   UNL     1      -3.586   3.521  -0.039  0.00  0.00    -0.277 N 
ATOM     15  H   UNL     1      -4.052   4.142  -0.819  0.00  0.00    +0.155 HD
BRANCH  12  19
ATOM     16  C   UNL     1      -2.897   8.336   1.346  0.00  0.00    -0.042 A 
ATOM     17  C   UNL     1      -2.260   7.558   2.297  0.00  0.00    +0.005 A 
ATOM     18  C   UNL     1      -2.273   6.183   2.189  0.00  0.00    +0.013 A 
ATOM     19  C   UNL     1      -2.931   5.576   1.118  0.00  0.00    +0.037 A 
ATOM     20  C   UNL     1      -3.567   6.367   0.159  0.00  0.00    +0.013 A 
ATOM     21  C   UNL     1      -3.551   7.741   0.282  0.00  0.00    +0.005 A 
BRANCH  16  23
ATOM     22  C   UNL     1      -1.430  10.333   1.446  0.00  0.00    +0.015 C 
ATOM     23  C   UNL     1      -2.878   9.838   1.470  0.00  0.00    -0.013 C 
ATOM     24  C   UNL     1      -3.647  10.456   0.300  0.00  0.00    +0.015 C 
ATOM     25  C   UNL     1      -3.536  10.249   2.788  0.00  0.00    +0.015 C 
ENDBRANCH  16  23
ENDBRANCH  12  19
ENDBRANCH   1  14
BRANCH   1  26
ATOM     26  C   UNL     1      -2.422   1.327  -0.083  0.00  0.00    +0.263 C 
ATOM     27  O   UNL     1      -2.486   0.112  -0.050  0.00  0.00    -0.268 OA
ATOM     28  N   UNL     1      -1.221   1.939  -0.084  0.00  0.00    -0.278 N 
ATOM     29  H   UNL     1      -1.163   3.037  -0.062  0.00  0.00    +0.155 HD
BRANCH  28  30
ATOM     30  C   UNL     1      -0.047   1.177  -0.111  0.00  0.00    +0.069 A 
ATOM     31  C   UNL     1      -0.069  -0.149   0.299  0.00  0.00    +0.029 A 
ATOM     32  C   UNL     1       1.089  -0.902   0.266  0.00  0.00    +0.040 A 
ATOM     33  C   UNL     1       2.273  -0.335  -0.177  0.00  0.00    +0.126 A 
ATOM     34  C   UNL     1       2.299   0.987  -0.587  0.00  0.00    +0.078 A 
ATOM     35  C   UNL     1       1.142   1.745  -0.555  0.00  0.00    +0.147 A 
ATOM     36  F   UNL     1       1.167   3.035  -0.956  0.00  0.00    -0.203 F 
ATOM     37  F   UNL     1       3.404  -1.073  -0.209  0.00  0.00    -0.205 F 
ENDBRANCH  28  30
ENDBRANCH   1  26
TORSDOF 7
