REMARK  Name = ZINC02283136
REMARK  2 active torsions:
REMARK  status: ('A' for Active; 'I' for Inactive)
REMARK    1  A    between atoms: C_3  and  N_9
REMARK    2  A    between atoms: N_17  and  C_18
REMARK                            x       y       z     vdW  Elec       q    Type
REMARK                         _______ _______ _______ _____ _____    ______ ____
ROOT
ATOM      1  N   UNL     1       2.359   3.894   0.043  0.00  0.00    -0.282 N 
ATOM      2  C   UNL     1       2.337   5.270  -0.072  0.00  0.00    +0.225 A 
ATOM      3  N   UNL     1       3.476   5.946  -0.177  0.00  0.00    -0.181 NA
ATOM      4  C   UNL     1       3.451   7.270  -0.293  0.00  0.00    +0.225 A 
ATOM      5  N   UNL     1       2.287   7.914  -0.294  0.00  0.00    -0.184 NA
ATOM      6  C   UNL     1       1.155   7.239  -0.184  0.00  0.00    +0.229 A 
ATOM      7  N   UNL     1       1.176   5.920  -0.073  0.00  0.00    -0.184 NA
ATOM      8 CL   UNL     1      -0.362   8.083  -0.185  0.00  0.00    -0.041 Cl
ATOM      9  N   UNL     1       4.632   7.976  -0.408  0.00  0.00    -0.282 N 
ATOM     10  H   UNL     1       3.205   3.427   0.130  0.00  0.00    +0.155 HD
ATOM     11  H   UNL     1       5.474   7.502  -0.493  0.00  0.00    +0.155 HD
ENDROOT
BRANCH   1  14
ATOM     12  C   UNL     1      -1.149   2.988  -0.586  0.00  0.00    +0.022 A 
ATOM     13  C   UNL     1       0.033   3.702  -0.580  0.00  0.00    +0.026 A 
ATOM     14  C   UNL     1       1.160   3.172   0.035  0.00  0.00    +0.052 A 
ATOM     15  C   UNL     1       1.094   1.924   0.643  0.00  0.00    +0.064 A 
ATOM     16  C   UNL     1      -0.092   1.214   0.634  0.00  0.00    +0.041 A 
ATOM     17  C   UNL     1      -1.211   1.743   0.015  0.00  0.00    +0.042 A 
ATOM     18 CL   UNL     1      -2.697   0.846  -0.000  0.00  0.00    -0.083 Cl
ATOM     19 CL   UNL     1       2.500   1.257   1.413  0.00  0.00    -0.082 Cl
ENDBRANCH   1  14
BRANCH   9  20
ATOM     20  C   UNL     1       4.614   9.376  -0.400  0.00  0.00    +0.052 A 
ATOM     21  C   UNL     1       3.570  10.055   0.213  0.00  0.00    +0.026 A 
ATOM     22  C   UNL     1       3.555  11.436   0.220  0.00  0.00    +0.022 A 
ATOM     23  C   UNL     1       4.579  12.143  -0.384  0.00  0.00    +0.042 A 
ATOM     24  C   UNL     1       5.621  11.470  -0.997  0.00  0.00    +0.041 A 
ATOM     25  C   UNL     1       5.645  10.088  -1.002  0.00  0.00    +0.064 A 
ATOM     26 CL   UNL     1       6.956   9.244  -1.764  0.00  0.00    -0.082 Cl
ATOM     27 CL   UNL     1       4.556  13.879  -0.374  0.00  0.00    -0.083 Cl
ENDBRANCH   9  20
TORSDOF 2
