REMARK  Name = ZINC64316524
REMARK  3 active torsions:
REMARK  status: ('A' for Active; 'I' for Inactive)
REMARK    1  A    between atoms: C_4  and  C_7
REMARK    2  A    between atoms: C_9  and  C_17
REMARK    3  A    between atoms: C_27  and  C_29
REMARK                            x       y       z     vdW  Elec       q    Type
REMARK                         _______ _______ _______ _____ _____    ______ ____
ROOT
ATOM      1  C   UNL     1       3.648  -0.704   0.025  0.00  0.00    +0.072 A 
ATOM      2  C   UNL     1       3.666  -2.104   0.109  0.00  0.00    +0.042 A 
ATOM      3  C   UNL     1       4.880  -2.774   0.052  0.00  0.00    +0.048 A 
ATOM      4  C   UNL     1       6.088  -1.963  -0.095  0.00  0.00    +0.013 A 
ATOM      5  C   UNL     1       7.358  -2.548  -0.163  0.00  0.00    +0.011 A 
ATOM      6  C   UNL     1       8.458  -1.755  -0.300  0.00  0.00    +0.001 A 
ATOM      7  C   UNL     1       8.335  -0.370  -0.375  0.00  0.00    +0.002 A 
ATOM      8  C   UNL     1       7.115   0.232  -0.312  0.00  0.00    +0.028 A 
ATOM      9  C   UNL     1       5.956  -0.554  -0.171  0.00  0.00    +0.072 A 
ATOM     10  N   UNL     1       4.747   0.007  -0.113  0.00  0.00    -0.247 NA
ENDROOT
BRANCH   3  11
ATOM     11  C   UNL     1       4.948  -4.249   0.137  0.00  0.00    +0.252 C 
ATOM     12  O   UNL     1       5.478  -4.779   1.094  0.00  0.00    -0.270 OA
ATOM     13  N   UNL     1       4.423  -5.006  -0.847  0.00  0.00    -0.255 N 
ATOM     14  C   UNL     1       3.907  -4.513  -2.048  0.00  0.00    +0.041 A 
ATOM     15  C   UNL     1       3.813  -3.193  -2.495  0.00  0.00    +0.024 A 
ATOM     16  C   UNL     1       3.263  -2.915  -3.728  0.00  0.00    +0.002 A 
ATOM     17  C   UNL     1       2.800  -3.941  -4.531  0.00  0.00    +0.000 A 
ATOM     18  C   UNL     1       2.889  -5.250  -4.095  0.00  0.00    +0.005 A 
ATOM     19  C   UNL     1       3.440  -5.534  -2.860  0.00  0.00    -0.024 A 
ATOM     20  C   UNL     1       3.656  -6.851  -2.150  0.00  0.00    +0.069 C 
ATOM     21  C   UNL     1       4.317  -6.467  -0.816  0.00  0.00    +0.171 C 
BRANCH  21  22
ATOM     22  C   UNL     1       5.685  -7.089  -0.710  0.00  0.00    +0.232 C 
ATOM     23  O   UNL     1       6.670  -6.383  -0.663  0.00  0.00    -0.274 OA
ATOM     24  N   UNL     1       5.815  -8.430  -0.666  0.00  0.00    -0.328 N 
ATOM     25  H   UNL     1       5.027  -8.995  -0.704  0.00  0.00    +0.145 HD
ATOM     26  H   UNL     1       6.696  -8.830  -0.598  0.00  0.00    +0.145 HD
ENDBRANCH  21  22
ENDBRANCH   3  11
BRANCH   1  30
ATOM     27  C   UNL     1      -0.090   1.315   0.200  0.00  0.00    +0.000 A 
ATOM     28  C   UNL     1       1.086   2.043   0.170  0.00  0.00    +0.001 A 
ATOM     29  C   UNL     1       2.302   1.394   0.113  0.00  0.00    +0.010 A 
ATOM     30  C   UNL     1       2.344   0.001   0.086  0.00  0.00    +0.000 A 
ATOM     31  C   UNL     1       1.157  -0.728   0.118  0.00  0.00    +0.010 A 
ATOM     32  C   UNL     1      -0.054  -0.068   0.174  0.00  0.00    +0.001 A 
ENDBRANCH   1  30
TORSDOF 3
