REMARK  Name = ZINC38989822
REMARK  9 active torsions:
REMARK  status: ('A' for Active; 'I' for Inactive)
REMARK    1  A    between atoms: C_1  and  C_2
REMARK    2  A    between atoms: C_7  and  C_9
REMARK    3  A    between atoms: C_7  and  C_10
REMARK    4  A    between atoms: N_11  and  C_13
REMARK    5  A    between atoms: C_13  and  C_14
REMARK    6  A    between atoms: N_16  and  C_17
REMARK    7  A    between atoms: C_25  and  C_27
REMARK    8  A    between atoms: C_27  and  O_29
REMARK    9  A    between atoms: O_29  and  C_30
REMARK                            x       y       z     vdW  Elec       q    Type
REMARK                         _______ _______ _______ _____ _____    ______ ____
ROOT
ATOM      1  C   UNL     1       1.369  -2.622  -3.449  0.00  0.00    +0.200 C 
ATOM      2  O   UNL     1       1.069  -1.559  -3.949  0.00  0.00    -0.278 OA
ATOM      3  N   UNL     1       2.307  -3.398  -4.026  0.00  0.00    -0.288 N 
ATOM      4  H   UNL     1       2.584  -4.223  -3.599  0.00  0.00    +0.155 HD
ENDROOT
BRANCH   3   5
ATOM      5  C   UNL     1       2.867  -3.023  -5.210  0.00  0.00    +0.053 C 
ATOM      6  C   UNL     1       3.636  -3.804  -6.055  0.00  0.00    +0.019 A 
ATOM      7  C   UNL     1       4.069  -5.150  -5.982  0.00  0.00    +0.031 A 
ATOM      8  C   UNL     1       4.833  -5.666  -6.977  0.00  0.00    +0.042 A 
ATOM      9  C   UNL     1       5.210  -4.899  -8.084  0.00  0.00    +0.022 A 
ATOM     10  C   UNL     1       4.833  -3.605  -8.220  0.00  0.00    +0.027 A 
ATOM     11  C   UNL     1       4.032  -2.994  -7.221  0.00  0.00    +0.045 A 
ATOM     12  N   UNL     1       3.542  -1.774  -7.120  0.00  0.00    -0.367 N 
ATOM     13  C   UNL     1       2.772  -1.668  -5.877  0.00  0.00    +0.234 C 
ATOM     14 CL   UNL     1       5.356  -7.318  -6.874  0.00  0.00    -0.084 Cl
ATOM     15  H   UNL     1       3.669  -1.062  -7.766  0.00  0.00    +0.161 HD
BRANCH  13  16
ATOM     16  C   UNL     1       3.369  -0.609  -4.988  0.00  0.00    +0.335 C 
ATOM     17  O   UNL     1       4.481  -0.190  -5.210  0.00  0.00    -0.248 OA
BRANCH  16  18
ATOM     18  O   UNL     1       2.667  -0.130  -3.949  0.00  0.00    -0.466 OA
ATOM     19  C   UNL     1       3.295   0.873  -3.148  0.00  0.00    +0.280 C 
ENDBRANCH  16  18
ENDBRANCH  13  16
ENDBRANCH   3   5
BRANCH   1  20
ATOM     20  C   UNL     1       0.691  -3.076  -2.181  0.00  0.00    +0.019 C 
BRANCH  20  30
ATOM     21  C   UNL     1      -0.619   1.234  -0.214  0.00  0.00    +0.009 C 
ATOM     22  C   UNL     1      -0.331  -0.273  -0.142  0.00  0.00    -0.048 C 
ATOM     23  C   UNL     1      -1.631  -1.121  -0.070  0.00  0.00    -0.011 C 
ATOM     24  C   UNL     1      -1.077  -2.477  -0.588  0.00  0.00    -0.067 C 
ATOM     25  C   UNL     1      -0.226  -3.080   0.513  0.00  0.00    -0.009 C 
ATOM     26  C   UNL     1       0.707  -2.148   1.254  0.00  0.00    -0.036 C 
ATOM     27  C   UNL     1       0.505  -0.656   1.079  0.00  0.00    +0.011 C 
ATOM     28  C   UNL     1       0.546  -2.452   2.767  0.00  0.00    +0.011 C 
ATOM     29  C   UNL     1       2.165  -2.502   0.906  0.00  0.00    +0.011 C 
ATOM     30  N   UNL     1      -0.276  -2.070  -1.760  0.00  0.00    +0.388 N 
ATOM     31  C   UNL     1       0.382  -0.797  -1.410  0.00  0.00    -0.071 C 
ATOM     32  H   UNL     1      -0.916  -1.888  -2.537  0.00  0.00    -0.081 HD
ENDBRANCH  20  30
ENDBRANCH   1  20
TORSDOF 5
