REMARK  Name = ZINC16401332
REMARK  7 active torsions:
REMARK  status: ('A' for Active; 'I' for Inactive)
REMARK    1  A    between atoms: C_3  and  N_22
REMARK    2  A    between atoms: C_6  and  C_7
REMARK    3  A    between atoms: C_7  and  C_8
REMARK    4  A    between atoms: N_10  and  N_11
REMARK    5  A    between atoms: C_12  and  C_13
REMARK    6  A    between atoms: C_16  and  O_20
REMARK    7  A    between atoms: C_18  and  O_19
REMARK                            x       y       z     vdW  Elec       q    Type
REMARK                         _______ _______ _______ _____ _____    ______ ____
ROOT
ATOM      1  C   UNL     1       1.222  -2.681  -1.444  0.00  0.00    +0.237 C 
ATOM      2  O   UNL     1       1.202  -1.889  -2.362  0.00  0.00    -0.274 OA
ATOM      3  N   UNL     1       1.237  -4.005  -1.696  0.00  0.00    -0.207 N 
ATOM      4  H   UNL     1       1.253  -4.639  -0.962  0.00  0.00    +0.177 HD
ENDROOT
BRANCH   3   5
ATOM      5  N   UNL     1       1.230  -4.466  -3.019  0.00  0.00    -0.188 NA
ATOM      6  C   UNL     1       1.245  -5.741  -3.263  0.00  0.00    +0.142 C 
BRANCH   6   7
ATOM      7  C   UNL     1       1.238  -6.226  -4.654  0.00  0.00    +0.037 A 
ATOM      8  C   UNL     1       1.260  -7.597  -4.919  0.00  0.00    +0.032 A 
ATOM      9  C   UNL     1       1.248  -8.046  -6.222  0.00  0.00    +0.060 A 
ATOM     10  C   UNL     1       1.226  -7.138  -7.275  0.00  0.00    +0.134 A 
ATOM     11  C   UNL     1       1.209  -5.775  -7.021  0.00  0.00    +0.092 A 
ATOM     12  C   UNL     1       1.215  -5.312  -5.717  0.00  0.00    +0.129 A 
ATOM     13 BR   UNL     1       1.270  -9.903  -6.579  0.00  0.00    -0.047 Br
BRANCH  12  14
ATOM     14  O   UNL     1       1.199  -3.977  -5.468  0.00  0.00    -0.506 OA
ATOM     15  H   UNL     1       2.078  -3.578  -5.404  0.00  0.00    +0.292 HD
ENDBRANCH  12  14
BRANCH  10  16
ATOM     16  O   UNL     1       1.219  -7.588  -8.557  0.00  0.00    -0.506 OA
ATOM     17  H   UNL     1       2.101  -7.706  -8.936  0.00  0.00    +0.292 HD
ENDBRANCH  10  16
ENDBRANCH   6   7
ENDBRANCH   3   5
BRANCH   1  18
ATOM     18  C   UNL     1       1.229  -2.186  -0.021  0.00  0.00    +0.132 C 
BRANCH  18  24
ATOM     19  C   UNL     1       0.002  -0.004   0.002  0.00  0.00    +0.006 A 
ATOM     20  C   UNL     1      -0.017   1.378   0.010  0.00  0.00    +0.033 A 
ATOM     21  C   UNL     1       1.171   2.086   0.002  0.00  0.00    +0.126 A 
ATOM     22  C   UNL     1       2.377   1.411  -0.015  0.00  0.00    +0.033 A 
ATOM     23  C   UNL     1       2.396   0.029  -0.021  0.00  0.00    +0.006 A 
ATOM     24  C   UNL     1       1.208  -0.679  -0.013  0.00  0.00    -0.038 A 
BRANCH  21  25
ATOM     25  N   UNL     1       1.151   3.566   0.010  0.00  0.00    +0.056 N 
ATOM     26  O   UNL     1       0.088   4.160   0.023  0.00  0.00    -0.126 OA
ATOM     27  O   UNL     1       2.197   4.189   0.003  0.00  0.00    -0.126 OA
ENDBRANCH  21  25
ENDBRANCH  18  24
ENDBRANCH   1  18
TORSDOF 7
