REMARK  Name = ZINC39711179
REMARK  11 active torsions:
REMARK  status: ('A' for Active; 'I' for Inactive)
REMARK    1  A    between atoms: C_1  and  C_2
REMARK    2  A    between atoms: C_7  and  N_8
REMARK    3  A    between atoms: N_11  and  C_14
REMARK    4  A    between atoms: C_14  and  C_16
REMARK    5  A    between atoms: C_14  and  C_30
REMARK    6  A    between atoms: C_21  and  C_29
REMARK    7  A    between atoms: C_22  and  C_28
REMARK    8  A    between atoms: N_35  and  C_36
REMARK    9  A    between atoms: C_36  and  C_37
REMARK   10  A    between atoms: C_36  and  C_38
REMARK   11  A    between atoms: C_36  and  C_39
REMARK                            x       y       z     vdW  Elec       q    Type
REMARK                         _______ _______ _______ _____ _____    ______ ____
ROOT
ATOM      1  C   UNL     1      -0.034   0.783   6.458  0.00  0.00    -0.009 C 
ENDROOT
BRANCH   1   2
ATOM      2  C   UNL     1       1.295   1.156   7.120  0.00  0.00    +0.088 C 
ATOM      3  C   UNL     1       1.462   0.287   8.351  0.00  0.00    -0.006 C 
ATOM      4  C   UNL     1       1.612   0.922   9.548  0.00  0.00    -0.007 A 
ATOM      5  C   UNL     1       1.778   0.161  10.787  0.00  0.00    +0.013 A 
ATOM      6  C   UNL     1       1.924   0.836  11.956  0.00  0.00    -0.047 A 
ATOM      7  C   UNL     1       1.919   2.230  11.995  0.00  0.00    -0.046 A 
ATOM      8  C   UNL     1       1.768   2.994  10.882  0.00  0.00    +0.027 A 
ATOM      9  C   UNL     1       1.610   2.394   9.620  0.00  0.00    +0.041 A 
ATOM     10  N   UNL     1       1.464   3.154   8.534  0.00  0.00    -0.285 N 
ATOM     11  C   UNL     1       1.309   2.655   7.320  0.00  0.00    +0.223 C 
ATOM     12  O   UNL     1       1.179   3.399   6.367  0.00  0.00    -0.275 OA
ATOM     13  C   UNL     1       2.086   2.917  13.326  0.00  0.00    +0.044 C 
ATOM     14  C   UNL     1       2.096   0.062  13.238  0.00  0.00    +0.044 C 
ATOM     15  H   UNL     1       1.470   4.118   8.640  0.00  0.00    +0.155 HD
ENDBRANCH   1   2
BRANCH   1  19
ATOM     16  N   UNL     1      -0.335   1.712   2.390  0.00  0.00    -0.333 N 
ATOM     17  C   UNL     1      -1.558   1.843   3.197  0.00  0.00    +0.086 C 
ATOM     18  C   UNL     1      -1.375   1.038   4.488  0.00  0.00    -0.059 C 
ATOM     19  N   UNL     1      -0.150   1.476   5.169  0.00  0.00    +0.387 N 
ATOM     20  C   UNL     1       1.021   1.164   4.340  0.00  0.00    -0.059 C 
ATOM     21  C   UNL     1       0.958   1.970   3.043  0.00  0.00    +0.086 C 
ATOM     22  H   UNL     1      -0.193   2.471   5.327  0.00  0.00    -0.081 HD
BRANCH  16  29
ATOM     23  C   UNL     1      -0.553   3.781   0.451  0.00  0.00    +0.045 C 
ATOM     24  C   UNL     1      -0.506   2.326   0.062  0.00  0.00    -0.029 A 
ATOM     25  C   UNL     1      -0.564   1.964  -1.270  0.00  0.00    +0.006 A 
ATOM     26  C   UNL     1      -0.521   0.629  -1.627  0.00  0.00    +0.020 A 
ATOM     27  C   UNL     1      -0.420  -0.349  -0.652  0.00  0.00    +0.043 A 
ATOM     28  C   UNL     1      -0.363   0.007   0.682  0.00  0.00    +0.043 A 
ATOM     29  C   UNL     1      -0.399   1.348   1.043  0.00  0.00    +0.034 A 
ATOM     30 CL   UNL     1      -0.366  -2.024  -1.106  0.00  0.00    -0.083 Cl
ENDBRANCH  16  29
ENDBRANCH   1  19
BRANCH   1  31
ATOM     31  C   UNL     1      -1.191   1.200   7.368  0.00  0.00    +0.205 C 
ATOM     32  N   UNL     1      -1.121   2.638   7.660  0.00  0.00    -0.152 NA
ATOM     33  N   UNL     1      -0.989   2.792   8.876  0.00  0.00    -0.070 NA
ATOM     34  N   UNL     1      -0.949   1.586   9.575  0.00  0.00    -0.179 N 
ATOM     35  N   UNL     1      -1.072   0.545   8.688  0.00  0.00    -0.183 NA
ATOM     36  H   UNL     1      -0.850   1.496  10.535  0.00  0.00    +0.191 HD
BRANCH  35  37
ATOM     37  C   UNL     1      -2.262  -0.263   8.984  0.00  0.00    +0.035 C 
ATOM     38  C   UNL     1      -2.424  -1.344   7.912  0.00  0.00    +0.029 C 
ATOM     39  C   UNL     1      -2.102  -0.924  10.354  0.00  0.00    +0.029 C 
ATOM     40  C   UNL     1      -3.500   0.636   8.992  0.00  0.00    +0.029 C 
ENDBRANCH  35  37
ENDBRANCH   1  31
TORSDOF 5
