REMARK  Name = ZINC40151843
REMARK  9 active torsions:
REMARK  status: ('A' for Active; 'I' for Inactive)
REMARK    1  A    between atoms: C_1  and  C_2
REMARK    2  A    between atoms: C_4  and  O_29
REMARK    3  A    between atoms: C_5  and  O_27
REMARK    4  A    between atoms: C_7  and  C_8
REMARK    5  A    between atoms: C_8  and  C_10
REMARK    6  A    between atoms: C_8  and  N_11
REMARK    7  A    between atoms: C_12  and  C_14
REMARK    8  A    between atoms: O_27  and  C_28
REMARK    9  A    between atoms: O_29  and  C_30
REMARK                            x       y       z     vdW  Elec       q    Type
REMARK                         _______ _______ _______ _____ _____    ______ ____
ROOT
ATOM      1  N   UNL     1      -0.532  -0.716   3.564  0.00  0.00    -0.308 N 
ATOM      2  C   UNL     1      -1.182  -0.180   4.617  0.00  0.00    +0.218 C 
ATOM      3  O   UNL     1      -1.294   1.024   4.710  0.00  0.00    -0.275 OA
ATOM      4  H   UNL     1      -0.442  -1.679   3.490  0.00  0.00    +0.149 HD
ENDROOT
BRANCH   2   5
ATOM      5  C   UNL     1      -1.767  -1.076   5.677  0.00  0.00    +0.092 C 
ATOM      6  C   UNL     1      -0.653  -1.907   6.317  0.00  0.00    +0.016 C 
ATOM      7  C   UNL     1      -1.251  -2.841   7.371  0.00  0.00    +0.020 C 
ATOM      8  C   UNL     1      -1.921  -2.006   8.467  0.00  0.00    +0.106 C 
ATOM      9  N   UNL     1      -2.893  -1.099   7.842  0.00  0.00    -0.316 N 
ATOM     10  C   UNL     1      -2.444  -0.221   6.753  0.00  0.00    +0.119 C 
ATOM     11  C   UNL     1      -4.215  -1.073   8.272  0.00  0.00    +0.099 A 
ATOM     12  C   UNL     1      -5.151  -0.313   7.578  0.00  0.00    +0.042 A 
ATOM     13  C   UNL     1      -6.462  -0.296   8.017  0.00  0.00    +0.005 A 
ATOM     14  C   UNL     1      -6.795  -1.043   9.140  0.00  0.00    +0.018 A 
ATOM     15  C   UNL     1      -5.815  -1.774   9.780  0.00  0.00    +0.084 A 
ATOM     16  N   UNL     1      -4.573  -1.776   9.335  0.00  0.00    -0.350 N 
ATOM     17  H   UNL     1      -3.904  -2.302   9.802  0.00  0.00    +0.166 HD
ENDBRANCH   2   5
BRANCH   1  18
ATOM     18  C   UNL     1       0.037   0.155   2.534  0.00  0.00    +0.100 C 
ATOM     19  C   UNL     1       1.472   0.525   2.914  0.00  0.00    +0.033 C 
BRANCH  18  26
ATOM     20  C   UNL     1      -0.047   1.660   0.073  0.00  0.00    +0.044 C 
ATOM     21  C   UNL     1      -0.002   0.154   0.032  0.00  0.00    -0.042 A 
ATOM     22  C   UNL     1       0.005  -0.503  -1.185  0.00  0.00    +0.053 A 
ATOM     23  C   UNL     1       0.047  -1.887  -1.224  0.00  0.00    +0.162 A 
ATOM     24  C   UNL     1       0.082  -2.613  -0.037  0.00  0.00    +0.162 A 
ATOM     25  C   UNL     1       0.075  -1.949   1.179  0.00  0.00    +0.055 A 
ATOM     26  C   UNL     1       0.039  -0.567   1.210  0.00  0.00    -0.021 A 
BRANCH  24  27
ATOM     27  O   UNL     1       0.122  -3.972  -0.070  0.00  0.00    -0.491 OA
ATOM     28  C   UNL     1       0.157  -4.651   1.187  0.00  0.00    +0.277 C 
ENDBRANCH  24  27
BRANCH  23  29
ATOM     29  O   UNL     1       0.054  -2.535  -2.420  0.00  0.00    -0.491 OA
ATOM     30  C   UNL     1       0.016  -1.726  -3.596  0.00  0.00    +0.277 C 
ENDBRANCH  23  29
ENDBRANCH  18  26
ENDBRANCH   1  18
TORSDOF 5
