REMARK  Name = ZINC00985643
REMARK  5 active torsions:
REMARK  status: ('A' for Active; 'I' for Inactive)
REMARK    1  A    between atoms: C_1  and  C_2
REMARK    2  A    between atoms: C_5  and  C_8
REMARK    3  A    between atoms: C_15  and  N_29
REMARK    4  A    between atoms: C_16  and  C_27
REMARK    5  A    between atoms: C_17  and  C_19
REMARK                            x       y       z     vdW  Elec       q    Type
REMARK                         _______ _______ _______ _____ _____    ______ ____
ROOT
ATOM      1  C   UNL     1      -0.085  -4.664   0.062  0.00  0.00    +0.100 A 
ATOM      2  C   UNL     1       0.801  -5.294   0.941  0.00  0.00    +0.054 A 
ATOM      3  C   UNL     1       0.708  -6.641   0.742  0.00  0.00    +0.223 A 
ATOM      4  N   UNL     1      -0.207  -6.850  -0.228  0.00  0.00    -0.246 N 
ATOM      5  H   UNL     1      -0.481  -7.713  -0.578  0.00  0.00    +0.192 HD
ATOM      6  N   UNL     1      -0.696  -5.600  -0.638  0.00  0.00    -0.171 NA
ATOM      7  O   UNL     1       1.446  -7.538   1.441  0.00  0.00    -0.423 OA
ATOM      8  C   UNL     1       2.486  -7.067   2.159  0.00  0.00    +0.200 C 
ATOM      9  C   UNL     1       2.678  -5.757   2.433  0.00  0.00    +0.098 C 
ATOM     10  C   UNL     1       1.730  -4.685   1.959  0.00  0.00    +0.104 C 
ENDROOT
BRANCH  10  11
ATOM     11  C   UNL     1       0.932  -4.160   3.125  0.00  0.00    +0.002 A 
ATOM     12  C   UNL     1       0.073  -5.000   3.811  0.00  0.00    +0.046 A 
ATOM     13  C   UNL     1      -0.659  -4.517   4.881  0.00  0.00    +0.020 A 
ATOM     14  C   UNL     1      -0.533  -3.195   5.264  0.00  0.00    +0.003 A 
ATOM     15  C   UNL     1       0.325  -2.355   4.580  0.00  0.00    +0.020 A 
ATOM     16  C   UNL     1       1.062  -2.838   3.513  0.00  0.00    +0.046 A 
ATOM     17 CL   UNL     1       2.145  -1.785   2.658  0.00  0.00    -0.083 Cl
ATOM     18 CL   UNL     1      -0.086  -6.660   3.328  0.00  0.00    -0.083 Cl
ENDBRANCH  10  11
BRANCH   1  23
ATOM     19  C   UNL     1      -0.937   1.014  -0.397  0.00  0.00    +0.044 C 
ATOM     20  C   UNL     1      -0.714  -0.472  -0.277  0.00  0.00    -0.050 A 
ATOM     21  C   UNL     1      -1.796  -1.334  -0.288  0.00  0.00    +0.004 A 
ATOM     22  C   UNL     1      -1.597  -2.696  -0.178  0.00  0.00    +0.010 A 
ATOM     23  C   UNL     1      -0.305  -3.201  -0.056  0.00  0.00    +0.003 A 
ATOM     24  C   UNL     1       0.781  -2.328  -0.046  0.00  0.00    +0.010 A 
ATOM     25  C   UNL     1       0.572  -0.969  -0.161  0.00  0.00    +0.004 A 
ENDBRANCH   1  23
BRANCH   8  26
ATOM     26  N   UNL     1       3.403  -7.969   2.638  0.00  0.00    -0.328 N 
ATOM     27  H   UNL     1       3.292  -8.915   2.457  0.00  0.00    +0.145 HD
ATOM     28  H   UNL     1       4.162  -7.660   3.158  0.00  0.00    +0.145 HD
ENDBRANCH   8  26
BRANCH   9  29
ATOM     29  C   UNL     1       3.824  -5.374   3.202  0.00  0.00    +0.101 C 
ATOM     30  N   UNL     1       4.732  -5.071   3.813  0.00  0.00    -0.191 NA
ENDBRANCH   9  29
TORSDOF 4
