REMARK  Name = ZINC57932024
REMARK  8 active torsions:
REMARK  status: ('A' for Active; 'I' for Inactive)
REMARK    1  A    between atoms: C_1  and  C_2
REMARK    2  A    between atoms: N_6  and  C_18
REMARK    3  A    between atoms: C_9  and  O_16
REMARK    4  A    between atoms: C_10  and  O_14
REMARK    5  A    between atoms: O_14  and  C_15
REMARK    6  A    between atoms: O_16  and  C_17
REMARK    7  A    between atoms: C_18  and  C_19
REMARK    8  A    between atoms: C_18  and  C_20
REMARK                            x       y       z     vdW  Elec       q    Type
REMARK                         _______ _______ _______ _____ _____    ______ ____
ROOT
ATOM      1  C   UNL     1      -0.154   1.414  -0.025  0.00  0.00    +0.038 C 
ATOM      2  C   UNL     1      -0.016  -0.109   0.028  0.00  0.00    +0.154 C 
ATOM      3  C   UNL     1       0.698  -0.594  -1.208  0.00  0.00    +0.240 C 
ATOM      4  O   UNL     1       0.057  -0.875  -2.198  0.00  0.00    -0.273 OA
ATOM      5  N   UNL     1       2.038  -0.718  -1.225  0.00  0.00    -0.266 N 
ATOM      6  C   UNL     1       2.798  -0.447  -0.078  0.00  0.00    +0.061 A 
ATOM      7  C   UNL     1       4.172  -0.287  -0.161  0.00  0.00    +0.074 A 
ATOM      8  C   UNL     1       4.907  -0.025   0.984  0.00  0.00    +0.163 A 
ATOM      9  C   UNL     1       4.270   0.079   2.216  0.00  0.00    +0.163 A 
ATOM     10  C   UNL     1       2.895  -0.079   2.302  0.00  0.00    +0.074 A 
ATOM     11  C   UNL     1       2.161  -0.338   1.159  0.00  0.00    +0.053 A 
ATOM     12  N   UNL     1       0.763  -0.491   1.215  0.00  0.00    -0.332 N 
ATOM     13  H   UNL     1       0.327  -0.837   2.010  0.00  0.00    +0.147 HD
ENDROOT
BRANCH   5  14
ATOM     14  C   UNL     1       2.711  -1.142  -2.456  0.00  0.00    +0.075 C 
ATOM     15  C   UNL     1       2.197  -2.522  -2.869  0.00  0.00    +0.028 C 
ATOM     16  C   UNL     1       2.418  -0.134  -3.569  0.00  0.00    +0.028 C 
ENDBRANCH   5  14
BRANCH   9  17
ATOM     17  O   UNL     1       4.997   0.335   3.337  0.00  0.00    -0.491 OA
ATOM     18  C   UNL     1       4.278   0.428   4.569  0.00  0.00    +0.277 C 
ENDBRANCH   9  17
BRANCH   8  19
ATOM     19  O   UNL     1       6.257   0.132   0.902  0.00  0.00    -0.491 OA
ATOM     20  C   UNL     1       6.846   0.012  -0.394  0.00  0.00    +0.277 C 
ENDBRANCH   8  19
TORSDOF 3
