REMARK  Name = ZINC39531459
REMARK  12 active torsions:
REMARK  status: ('A' for Active; 'I' for Inactive)
REMARK    1  A    between atoms: C_1  and  C_2
REMARK    2  A    between atoms: C_2  and  C_3
REMARK    3  A    between atoms: C_2  and  S_4
REMARK    4  A    between atoms: S_4  and  C_7
REMARK    5  A    between atoms: N_10  and  C_14
REMARK    6  A    between atoms: C_14  and  C_16
REMARK    7  A    between atoms: C_14  and  C_25
REMARK    8  A    between atoms: C_16  and  N_17
REMARK    9  A    between atoms: N_17  and  C_18
REMARK   10  A    between atoms: C_23  and  O_24
REMARK   11  A    between atoms: C_28  and  C_31
REMARK   12  A    between atoms: C_31  and  C_32
REMARK                            x       y       z     vdW  Elec       q    Type
REMARK                         _______ _______ _______ _____ _____    ______ ____
ROOT
ATOM      1  C   UNL     1       5.577  -0.081  -3.490  0.00  0.00    +0.104 C 
ENDROOT
BRANCH   1   4
ATOM      2  C   UNL     1       2.703  -0.236  -1.062  0.00  0.00    +0.212 C 
ATOM      3  C   UNL     1       3.487  -0.513  -2.346  0.00  0.00    +0.127 C 
ATOM      4  N   UNL     1       4.761   0.219  -2.307  0.00  0.00    -0.290 NA
ATOM      5  C   UNL     1       4.531   1.665  -2.179  0.00  0.00    +0.100 C 
ATOM      6  C   UNL     1       3.746   1.942  -0.894  0.00  0.00    +0.098 C 
ATOM      7  N   UNL     1       2.473   1.210  -0.933  0.00  0.00    -0.293 NA
ATOM      8  H   UNL     1       1.883   1.550  -1.678  0.00  0.00    +0.124 HD
BRANCH   2   9
ATOM      9  S   UNL     1       1.109  -1.099  -1.128  0.00  0.00    -0.012 S 
ATOM     10  O   UNL     1       1.355  -2.499  -1.128  0.00  0.00    -0.173 OA
ATOM     11  O   UNL     1       0.335  -0.534  -2.177  0.00  0.00    -0.173 OA
BRANCH   9  13
ATOM     12  C   UNL     1       0.190   0.868   0.535  0.00  0.00    +0.031 C 
ATOM     13  C   UNL     1       0.344  -0.652   0.455  0.00  0.00    +0.126 C 
ATOM     14  C   UNL     1      -1.032  -1.310   0.561  0.00  0.00    +0.031 C 
ENDBRANCH   9  13
ENDBRANCH   2   9
ENDBRANCH   1   4
BRANCH   1  15
ATOM     15  C   UNL     1       5.853  -1.562  -3.549  0.00  0.00    -0.029 A 
ATOM     16  C   UNL     1       6.132  -2.259  -2.389  0.00  0.00    +0.005 A 
ATOM     17  C   UNL     1       6.384  -3.617  -2.442  0.00  0.00    +0.004 A 
ATOM     18  C   UNL     1       6.357  -4.278  -3.656  0.00  0.00    -0.043 A 
ATOM     19  C   UNL     1       6.077  -3.580  -4.816  0.00  0.00    +0.004 A 
ATOM     20  C   UNL     1       5.821  -2.223  -4.762  0.00  0.00    +0.005 A 
BRANCH  18  21
ATOM     21  C   UNL     1       6.633  -5.758  -3.715  0.00  0.00    +0.070 C 
BRANCH  21  22
ATOM     22  C   UNL     1       5.341  -6.517  -3.559  0.00  0.00    -0.043 A 
ATOM     23  C   UNL     1       4.899  -6.878  -2.300  0.00  0.00    +0.004 A 
ATOM     24  C   UNL     1       3.713  -7.574  -2.157  0.00  0.00    +0.000 A 
ATOM     25  C   UNL     1       2.969  -7.908  -3.273  0.00  0.00    +0.000 A 
ATOM     26  C   UNL     1       3.410  -7.546  -4.532  0.00  0.00    +0.000 A 
ATOM     27  C   UNL     1       4.594  -6.846  -4.675  0.00  0.00    +0.004 A 
ENDBRANCH  21  22
ENDBRANCH  18  21
ENDBRANCH   1  15
BRANCH   1  28
ATOM     28  C   UNL     1       6.902   0.681  -3.403  0.00  0.00    +0.125 C 
BRANCH  28  29
ATOM     29  N   UNL     1       7.684   0.441  -4.619  0.00  0.00    -0.339 N 
ATOM     30  H   UNL     1       7.300  -0.067  -5.350  0.00  0.00    +0.146 HD
BRANCH  29  31
ATOM     31  C   UNL     1       8.985   0.946  -4.724  0.00  0.00    +0.069 A 
ATOM     32  C   UNL     1       9.538   1.669  -3.677  0.00  0.00    +0.026 A 
ATOM     33  C   UNL     1      10.823   2.166  -3.784  0.00  0.00    +0.002 A 
ATOM     34  C   UNL     1      11.560   1.945  -4.932  0.00  0.00    +0.004 A 
ATOM     35  C   UNL     1      11.016   1.226  -5.980  0.00  0.00    +0.047 A 
ATOM     36  C   UNL     1       9.730   0.720  -5.879  0.00  0.00    +0.138 A 
BRANCH  36  37
ATOM     37  O   UNL     1       9.195   0.007  -6.907  0.00  0.00    -0.505 OA
ATOM     38  H   UNL     1       8.723   0.547  -7.556  0.00  0.00    +0.292 HD
ENDBRANCH  36  37
ENDBRANCH  29  31
ENDBRANCH  28  29
ENDBRANCH   1  28
TORSDOF 10
