REMARK  Name = ZINC31625300
REMARK  13 active torsions:
REMARK  status: ('A' for Active; 'I' for Inactive)
REMARK    1  A    between atoms: C_1  and  C_2
REMARK    2  A    between atoms: C_2  and  C_3
REMARK    3  A    between atoms: C_2  and  C_4
REMARK    4  A    between atoms: C_4  and  N_5
REMARK    5  A    between atoms: C_6  and  N_33
REMARK    6  A    between atoms: C_7  and  N_14
REMARK    7  A    between atoms: N_14  and  C_15
REMARK    8  A    between atoms: C_15  and  C_16
REMARK    9  A    between atoms: C_16  and  C_17
REMARK   10  A    between atoms: C_16  and  C_18
REMARK   11  A    between atoms: C_19  and  C_21
REMARK   12  A    between atoms: C_21  and  N_22
REMARK   13  A    between atoms: C_24  and  C_29
REMARK                            x       y       z     vdW  Elec       q    Type
REMARK                         _______ _______ _______ _____ _____    ______ ____
ROOT
ATOM      1  N   UNL     1       5.255  -1.592  -1.591  0.00  0.00    -0.263 N 
ATOM      2  C   UNL     1       4.106  -1.082  -1.100  0.00  0.00    +0.240 C 
ATOM      3  O   UNL     1       3.140  -0.957  -1.824  0.00  0.00    -0.273 OA
ENDROOT
BRANCH   1   6
ATOM      4  N   UNL     1       5.699  -3.425  -4.744  0.00  0.00    -0.280 N 
ATOM      5  C   UNL     1       5.600  -3.173  -3.396  0.00  0.00    +0.127 A 
ATOM      6  C   UNL     1       5.367  -1.882  -2.967  0.00  0.00    +0.140 A 
ATOM      7  C   UNL     1       5.251  -0.858  -3.926  0.00  0.00    +0.277 A 
ATOM      8  O   UNL     1       5.050   0.292  -3.574  0.00  0.00    -0.266 OA
ATOM      9  N   UNL     1       5.362  -1.158  -5.235  0.00  0.00    -0.273 N 
ATOM     10  H   UNL     1       5.271  -0.363  -5.990  0.00  0.00    +0.173 HD
ATOM     11  C   UNL     1       5.583  -2.423  -5.634  0.00  0.00    +0.331 A 
ATOM     12  O   UNL     1       5.679  -2.665  -6.822  0.00  0.00    -0.246 OA
BRANCH   5  13
ATOM     13  N   UNL     1       5.725  -4.196  -2.486  0.00  0.00    -0.343 N 
ATOM     14  H   UNL     1       5.645  -3.987  -1.409  0.00  0.00    +0.144 HD
ATOM     15  H   UNL     1       5.906  -5.223  -2.835  0.00  0.00    +0.144 HD
ENDBRANCH   5  13
BRANCH   4  16
ATOM     16  C   UNL     1       5.939  -4.792  -5.214  0.00  0.00    +0.131 C 
BRANCH  16  18
ATOM     17  C   UNL     1       8.062  -4.979  -3.909  0.00  0.00    +0.009 C 
ATOM     18  C   UNL     1       7.446  -5.041  -5.308  0.00  0.00    +0.003 C 
ATOM     19  C   UNL     1       7.697  -6.422  -5.916  0.00  0.00    +0.009 C 
ENDBRANCH  16  18
ENDBRANCH   4  16
ENDBRANCH   1   6
BRANCH   1  20
ATOM     20  C   UNL     1       6.385  -1.846  -0.694  0.00  0.00    +0.117 C 
BRANCH  20  21
ATOM     21  C   UNL     1       7.192  -0.558  -0.514  0.00  0.00    +0.001 C 
ATOM     22  C   UNL     1       8.276  -0.779   0.543  0.00  0.00    +0.009 C 
ATOM     23  C   UNL     1       7.847  -0.177  -1.843  0.00  0.00    +0.009 C 
ENDBRANCH  20  21
ENDBRANCH   1  20
BRANCH   2  24
ATOM     24  C   UNL     1       4.023  -0.666   0.346  0.00  0.00    +0.221 C 
BRANCH  24  25
ATOM     25  N   UNL     1       2.721  -0.045   0.601  0.00  0.00    -0.306 N 
ATOM     26  C   UNL     1       2.573   1.295   0.440  0.00  0.00    +0.102 A 
ATOM     27  C   UNL     1       1.380   1.891   0.670  0.00  0.00    +0.071 A 
ATOM     28  C   UNL     1       0.281   1.123   1.079  0.00  0.00    +0.019 A 
ATOM     29  C   UNL     1       0.431  -0.223   1.240  0.00  0.00    +0.071 A 
ATOM     30  C   UNL     1       1.684  -0.810   0.993  0.00  0.00    +0.252 A 
ATOM     31  O   UNL     1       1.832  -2.013   1.133  0.00  0.00    -0.268 OA
BRANCH  27  32
ATOM     32  C   UNL     1       1.233   3.380   0.487  0.00  0.00    +0.419 C 
ATOM     33  F   UNL     1       0.741   3.646  -0.795  0.00  0.00    -0.166 F 
ATOM     34  F   UNL     1       0.342   3.881   1.442  0.00  0.00    -0.166 F 
ATOM     35  F   UNL     1       2.480   3.994   0.645  0.00  0.00    -0.166 F 
ENDBRANCH  27  32
ENDBRANCH  24  25
ENDBRANCH   2  24
TORSDOF 9
