REMARK  Name = ZINC50242882
REMARK  6 active torsions:
REMARK  status: ('A' for Active; 'I' for Inactive)
REMARK    1  A    between atoms: C_1  and  C_2
REMARK    2  A    between atoms: C_4  and  C_21
REMARK    3  A    between atoms: C_5  and  S_11
REMARK    4  A    between atoms: C_7  and  C_8
REMARK    5  A    between atoms: S_11  and  N_14
REMARK    6  A    between atoms: C_17  and  N_20
REMARK                            x       y       z     vdW  Elec       q    Type
REMARK                         _______ _______ _______ _____ _____    ______ ____
ROOT
ATOM      1  S   UNL     1       0.360  -4.620   0.271  0.00  0.00    +0.061 S 
ATOM      2  O   UNL     1       1.499  -5.219  -0.330  0.00  0.00    -0.153 OA
ATOM      3  O   UNL     1       0.122  -4.670   1.671  0.00  0.00    -0.153 OA
ENDROOT
BRANCH   1   8
ATOM      4  C   UNL     1       0.445   1.232  -1.239  0.00  0.00    +0.044 C 
ATOM      5  C   UNL     1       0.427  -0.228  -0.865  0.00  0.00    -0.036 A 
ATOM      6  C   UNL     1      -0.594  -0.729  -0.084  0.00  0.00    +0.009 A 
ATOM      7  C   UNL     1      -0.612  -2.069   0.261  0.00  0.00    -0.024 A 
ATOM      8  C   UNL     1       0.393  -2.916  -0.174  0.00  0.00    +0.109 A 
ATOM      9  C   UNL     1       1.420  -2.429  -0.955  0.00  0.00    +0.044 A 
ATOM     10  C   UNL     1       1.441  -1.078  -1.312  0.00  0.00    +0.068 A 
ATOM     11  C   UNL     1      -1.730  -2.609   1.115  0.00  0.00    +0.046 C 
BRANCH  10  12
ATOM     12  C   UNL     1       2.533  -0.551  -2.153  0.00  0.00    +0.387 C 
ATOM     13  O   UNL     1       2.273   0.073  -3.172  0.00  0.00    -0.241 OA
ATOM     14  O   UNL     1       3.698  -0.738  -1.831  0.00  0.00    -0.241 OA
ENDBRANCH  10  12
ENDBRANCH   1   8
BRANCH   1  15
ATOM     15  N   UNL     1      -0.968  -5.291  -0.458  0.00  0.00    -0.178 NA
ATOM     16  C   UNL     1      -2.273  -5.515   0.179  0.00  0.00    +0.108 C 
ATOM     17  C   UNL     1      -3.203  -6.132  -0.887  0.00  0.00    +0.002 C 
ATOM     18  C   UNL     1      -2.539  -5.699  -2.220  0.00  0.00    -0.058 C 
ATOM     19  C   UNL     1      -1.037  -5.756  -1.855  0.00  0.00    +0.093 C 
BRANCH  18  20
ATOM     20  N   UNL     1      -2.858  -6.644  -3.299  0.00  0.00    +0.381 N 
ATOM     21  H   UNL     1      -3.856  -6.660  -3.448  0.00  0.00    -0.090 HD
ATOM     22  H   UNL     1      -2.397  -6.354  -4.148  0.00  0.00    -0.090 HD
ATOM     23  H   UNL     1      -2.542  -7.567  -3.042  0.00  0.00    -0.090 HD
ENDBRANCH  18  20
ENDBRANCH   1  15
TORSDOF 4
