REMARK  Name = ZINC45512365
REMARK  5 active torsions:
REMARK  status: ('A' for Active; 'I' for Inactive)
REMARK    1  A    between atoms: C_1  and  C_2
REMARK    2  A    between atoms: C_2  and  C_4
REMARK    3  A    between atoms: C_2  and  N_16
REMARK    4  A    between atoms: N_6  and  C_7
REMARK    5  A    between atoms: C_19  and  N_22
REMARK                            x       y       z     vdW  Elec       q    Type
REMARK                         _______ _______ _______ _____ _____    ______ ____
ROOT
ATOM      1  N   UNL     1       0.593  -0.619   1.195  0.00  0.00    +0.387 N 
ATOM      2  C   UNL     1       0.569  -2.076   1.020  0.00  0.00    -0.076 C 
ATOM      3  C   UNL     1       1.287  -2.746   2.194  0.00  0.00    +0.006 C 
ATOM      4  C   UNL     1       0.577  -2.376   3.499  0.00  0.00    +0.089 C 
ATOM      5  C   UNL     1       0.543  -0.851   3.634  0.00  0.00    +0.006 C 
ATOM      6  C   UNL     1      -0.148  -0.251   2.408  0.00  0.00    -0.076 C 
ATOM      7  H   UNL     1       1.550  -0.308   1.279  0.00  0.00    -0.081 HD
ENDROOT
BRANCH   4   8
ATOM      8  N   UNL     1       1.304  -2.952   4.633  0.00  0.00    -0.289 N 
ATOM      9  C   UNL     1       0.791  -3.864   5.551  0.00  0.00    +0.070 A 
ATOM     10  C   UNL     1      -0.446  -4.475   5.696  0.00  0.00    +0.028 A 
ATOM     11  C   UNL     1      -0.658  -5.359   6.736  0.00  0.00    +0.002 A 
ATOM     12  C   UNL     1       0.358  -5.637   7.635  0.00  0.00    +0.002 A 
ATOM     13  C   UNL     1       1.592  -5.033   7.499  0.00  0.00    +0.028 A 
ATOM     14  C   UNL     1       1.815  -4.145   6.457  0.00  0.00    +0.067 A 
ATOM     15  N   UNL     1       2.920  -3.395   6.061  0.00  0.00    -0.306 N 
ATOM     16  H   UNL     1       3.785  -3.382   6.500  0.00  0.00    +0.170 HD
ATOM     17  C   UNL     1       2.584  -2.694   4.961  0.00  0.00    +0.328 A 
ATOM     18  O   UNL     1       3.324  -1.940   4.357  0.00  0.00    -0.247 OA
ENDBRANCH   4   8
BRANCH   1  20
ATOM     19  C   UNL     1      -0.119   1.532   0.266  0.00  0.00    -0.004 C 
ATOM     20  C   UNL     1      -0.028   0.023   0.029  0.00  0.00    +0.016 C 
BRANCH  20  21
ATOM     21  C   UNL     1       0.808  -0.244  -1.196  0.00  0.00    +0.203 C 
ATOM     22  O   UNL     1       1.930  -0.690  -1.079  0.00  0.00    -0.277 OA
ATOM     23  N   UNL     1       0.308   0.012  -2.421  0.00  0.00    -0.286 N 
ATOM     24  H   UNL     1      -0.558   0.439  -2.513  0.00  0.00    +0.155 HD
BRANCH  23  25
ATOM     25  C   UNL     1       1.040  -0.338  -3.563  0.00  0.00    +0.053 A 
ATOM     26  C   UNL     1       2.426  -0.274  -3.547  0.00  0.00    +0.046 A 
ATOM     27  C   UNL     1       3.146  -0.620  -4.675  0.00  0.00    +0.061 A 
ATOM     28  C   UNL     1       2.485  -1.030  -5.821  0.00  0.00    +0.061 A 
ATOM     29  C   UNL     1       1.104  -1.095  -5.839  0.00  0.00    +0.043 A 
ATOM     30  C   UNL     1       0.379  -0.756  -4.712  0.00  0.00    +0.064 A 
ATOM     31 CL   UNL     1      -1.354  -0.845  -4.734  0.00  0.00    -0.082 Cl
ATOM     32 CL   UNL     1       3.392  -1.463  -7.236  0.00  0.00    -0.082 Cl
ATOM     33 CL   UNL     1       4.880  -0.539  -4.655  0.00  0.00    -0.082 Cl
ENDBRANCH  23  25
ENDBRANCH  20  21
ENDBRANCH   1  20
TORSDOF 4
