REMARK  Name = ZINC12339758
REMARK  6 active torsions:
REMARK  status: ('A' for Active; 'I' for Inactive)
REMARK    1  A    between atoms: C_4  and  S_7
REMARK    2  A    between atoms: S_7  and  N_10
REMARK    3  A    between atoms: N_12  and  N_13
REMARK    4  A    between atoms: C_14  and  C_16
REMARK    5  A    between atoms: N_23  and  N_24
REMARK    6  A    between atoms: C_25  and  C_27
REMARK                            x       y       z     vdW  Elec       q    Type
REMARK                         _______ _______ _______ _____ _____    ______ ____
ROOT
ATOM      1  N   UNL     1       3.585   3.180  -0.009  0.00  0.00    -0.090 NA
ATOM      2  C   UNL     1       3.531   1.878  -0.009  0.00  0.00    +0.251 C 
ATOM      3  N   UNL     1       2.313   1.241  -0.016  0.00  0.00    -0.272 N 
ATOM      4  N   UNL     1       4.692   1.142  -0.002  0.00  0.00    -0.272 N 
ATOM      5  H   UNL     1       2.272   0.272  -0.016  0.00  0.00    +0.188 HD
ATOM      6  H   UNL     1       5.550   1.588  -0.073  0.00  0.00    +0.188 HD
ENDROOT
BRANCH   3   7
ATOM      7  N   UNL     1       1.130   1.992  -0.023  0.00  0.00    -0.223 N 
ATOM      8  C   UNL     1      -0.065   1.367  -0.030  0.00  0.00    +0.262 C 
ATOM      9  O   UNL     1      -0.115   0.152  -0.030  0.00  0.00    -0.269 OA
ATOM     10  H   UNL     1       1.170   2.961  -0.024  0.00  0.00    +0.175 HD
BRANCH   8  11
ATOM     11  C   UNL     1      -1.312   2.158  -0.044  0.00  0.00    +0.038 A 
ATOM     12  C   UNL     1      -1.257   3.554  -0.039  0.00  0.00    +0.016 A 
ATOM     13  C   UNL     1      -2.424   4.287  -0.057  0.00  0.00    +0.039 A 
ATOM     14  C   UNL     1      -3.651   3.642  -0.070  0.00  0.00    +0.123 A 
ATOM     15  C   UNL     1      -3.712   2.257  -0.070  0.00  0.00    +0.039 A 
ATOM     16  C   UNL     1      -2.551   1.514  -0.057  0.00  0.00    +0.016 A 
ATOM     17  F   UNL     1      -4.792   4.366  -0.083  0.00  0.00    -0.205 F 
ENDBRANCH   8  11
ENDBRANCH   3   7
BRANCH   4  18
ATOM     18  N   UNL     1       4.635  -0.254   0.109  0.00  0.00    -0.223 N 
ATOM     19  C   UNL     1       5.773  -0.968   0.219  0.00  0.00    +0.262 C 
ATOM     20  O   UNL     1       6.848  -0.401   0.222  0.00  0.00    -0.269 OA
ATOM     21  H   UNL     1       3.777  -0.706   0.106  0.00  0.00    +0.175 HD
BRANCH  19  22
ATOM     22  C   UNL     1       5.714  -2.439   0.335  0.00  0.00    +0.038 A 
ATOM     23  C   UNL     1       4.479  -3.092   0.337  0.00  0.00    +0.016 A 
ATOM     24  C   UNL     1       4.430  -4.466   0.441  0.00  0.00    +0.039 A 
ATOM     25  C   UNL     1       5.602  -5.198   0.554  0.00  0.00    +0.123 A 
ATOM     26  C   UNL     1       6.830  -4.554   0.558  0.00  0.00    +0.039 A 
ATOM     27  C   UNL     1       6.891  -3.181   0.450  0.00  0.00    +0.016 A 
ATOM     28  F   UNL     1       5.548  -6.544   0.660  0.00  0.00    -0.205 F 
ENDBRANCH  19  22
ENDBRANCH   4  18
BRANCH   1  29
ATOM     29  S   UNL     1       5.047   3.948  -0.140  0.00  0.00    +0.102 S 
ATOM     30  O   UNL     1       5.730   3.733   1.087  0.00  0.00    -0.146 OA
ATOM     31  O   UNL     1       5.595   3.566  -1.394  0.00  0.00    -0.146 OA
BRANCH  29  35
ATOM     32  C   UNL     1       4.208   8.389  -0.394  0.00  0.00    +0.000 A 
ATOM     33  C   UNL     1       4.401   7.792   0.838  0.00  0.00    +0.002 A 
ATOM     34  C   UNL     1       4.657   6.435   0.915  0.00  0.00    +0.029 A 
ATOM     35  C   UNL     1       4.720   5.677  -0.239  0.00  0.00    +0.113 A 
ATOM     36  C   UNL     1       4.533   6.276  -1.471  0.00  0.00    +0.029 A 
ATOM     37  C   UNL     1       4.272   7.631  -1.548  0.00  0.00    +0.002 A 
ENDBRANCH  29  35
ENDBRANCH   1  29
TORSDOF 6
