REMARK  Name = ZINC45319997
REMARK  11 active torsions:
REMARK  status: ('A' for Active; 'I' for Inactive)
REMARK    1  A    between atoms: C_1  and  C_2
REMARK    2  A    between atoms: C_4  and  C_31
REMARK    3  A    between atoms: C_6  and  S_8
REMARK    4  A    between atoms: S_8  and  C_9
REMARK    5  A    between atoms: C_10  and  C_19
REMARK    6  A    between atoms: C_11  and  C_18
REMARK    7  A    between atoms: C_19  and  N_20
REMARK    8  A    between atoms: C_24  and  C_27
REMARK    9  A    between atoms: C_27  and  N_28
REMARK   10  A    between atoms: N_28  and  C_29
REMARK   11  A    between atoms: N_28  and  C_30
REMARK                            x       y       z     vdW  Elec       q    Type
REMARK                         _______ _______ _______ _____ _____    ______ ____
ROOT
ATOM      1  C   UNL     1       0.203  -1.510   3.721  0.00  0.00    +0.037 A 
ATOM      2  C   UNL     1       0.272  -1.776   5.106  0.00  0.00    +0.000 A 
ATOM      3  C   UNL     1       0.303  -0.752   5.984  0.00  0.00    +0.021 A 
ATOM      4  N   UNL     1       0.269   0.538   5.555  0.00  0.00    -0.325 N 
ATOM      5  H   UNL     1       0.292   1.257   6.205  0.00  0.00    +0.169 HD
ATOM      6  C   UNL     1       0.204   0.834   4.244  0.00  0.00    +0.263 A 
ATOM      7  O   UNL     1       0.175   2.000   3.883  0.00  0.00    -0.267 OA
ATOM      8  C   UNL     1       0.175  -0.191   3.293  0.00  0.00    +0.092 A 
ATOM      9  I   UNL     1       0.082   0.260   1.249  0.00  0.00    -0.037 I 
ATOM     10  C   UNL     1       0.376  -1.043   7.461  0.00  0.00    +0.064 C 
ENDROOT
BRANCH   1  11
ATOM     11  S   UNL     1       0.162  -2.831   2.556  0.00  0.00    -0.088 S 
BRANCH  11  17
ATOM     12  C   UNL     1       3.548  -6.668   1.462  0.00  0.00    +0.044 C 
ATOM     13  C   UNL     1       3.250  -5.381   2.189  0.00  0.00    -0.049 A 
ATOM     14  C   UNL     1       4.217  -4.801   2.990  0.00  0.00    +0.006 A 
ATOM     15  C   UNL     1       3.948  -3.621   3.659  0.00  0.00    -0.049 A 
ATOM     16  C   UNL     1       2.713  -3.018   3.529  0.00  0.00    +0.018 A 
ATOM     17  C   UNL     1       1.740  -3.597   2.725  0.00  0.00    +0.013 A 
ATOM     18  C   UNL     1       2.015  -4.780   2.050  0.00  0.00    +0.018 A 
ATOM     19  C   UNL     1       5.005  -2.993   4.531  0.00  0.00    +0.044 C 
ENDBRANCH  11  17
ENDBRANCH   1  11
BRANCH   2  20
ATOM     20  C   UNL     1       0.310  -3.199   5.601  0.00  0.00    +0.122 C 
BRANCH  20  21
ATOM     21  N   UNL     1      -1.061  -3.715   5.714  0.00  0.00    -0.294 NA
ATOM     22  C   UNL     1      -1.806  -3.005   6.764  0.00  0.00    +0.113 C 
ATOM     23  C   UNL     1      -3.243  -3.531   6.807  0.00  0.00    +0.175 C 
ATOM     24  O   UNL     1      -3.222  -4.946   7.020  0.00  0.00    -0.376 OA
ATOM     25  C   UNL     1      -2.505  -5.668   6.015  0.00  0.00    +0.116 C 
ATOM     26  C   UNL     1      -1.060  -5.163   5.964  0.00  0.00    +0.114 C 
BRANCH  25  27
ATOM     27  C   UNL     1      -2.514  -7.160   6.354  0.00  0.00    -0.046 C 
BRANCH  27  28
ATOM     28  N   UNL     1      -3.891  -7.668   6.290  0.00  0.00    +0.378 N 
ATOM     29  C   UNL     1      -4.381  -7.581   4.908  0.00  0.00    -0.096 C 
ATOM     30  C   UNL     1      -3.916  -9.069   6.730  0.00  0.00    -0.096 C 
ATOM     31  H   UNL     1      -4.482  -7.115   6.892  0.00  0.00    -0.083 HD
ENDBRANCH  27  28
ENDBRANCH  25  27
ENDBRANCH  20  21
ENDBRANCH   2  20
TORSDOF 6
