REMARK  Name = ZINC21078983
REMARK  13 active torsions:
REMARK  status: ('A' for Active; 'I' for Inactive)
REMARK    1  A    between atoms: C_1  and  C_2
REMARK    2  A    between atoms: C_2  and  C_3
REMARK    3  A    between atoms: C_3  and  C_5
REMARK    4  A    between atoms: C_3  and  N_6
REMARK    5  A    between atoms: N_6  and  S_7
REMARK    6  A    between atoms: S_7  and  C_10
REMARK    7  A    between atoms: C_13  and  N_16
REMARK    8  A    between atoms: C_17  and  C_19
REMARK    9  A    between atoms: C_19  and  S_20
REMARK   10  A    between atoms: S_20  and  C_21
REMARK   11  A    between atoms: N_26  and  N_27
REMARK   12  A    between atoms: C_28  and  C_29
REMARK   13  A    between atoms: C_30  and  C_31
REMARK                            x       y       z     vdW  Elec       q    Type
REMARK                         _______ _______ _______ _____ _____    ______ ____
ROOT
ATOM      1  C   UNL     1      -0.664   4.024   0.034  0.00  0.00    +0.173 C 
ENDROOT
BRANCH   1   3
ATOM      2  N   UNL     1      -1.376   6.393   0.044  0.00  0.00    -0.285 N 
ATOM      3  C   UNL     1      -1.728   5.092   0.036  0.00  0.00    +0.227 C 
ATOM      4  O   UNL     1      -2.900   4.780   0.032  0.00  0.00    -0.275 OA
ATOM      5  H   UNL     1      -0.316   6.676   0.124  0.00  0.00    +0.155 HD
BRANCH   2   9
ATOM      6  C   UNL     1      -4.304   9.343  -0.240  0.00  0.00    +0.105 A 
ATOM      7  C   UNL     1      -4.568   8.174   0.449  0.00  0.00    +0.030 A 
ATOM      8  C   UNL     1      -3.599   7.194   0.545  0.00  0.00    +0.025 A 
ATOM      9  C   UNL     1      -2.360   7.384  -0.052  0.00  0.00    +0.034 A 
ATOM     10  C   UNL     1      -2.096   8.562  -0.738  0.00  0.00    +0.025 A 
ATOM     11  C   UNL     1      -3.071   9.536  -0.836  0.00  0.00    +0.030 A 
BRANCH   6  12
ATOM     12  S   UNL     1      -5.543  10.591  -0.360  0.00  0.00    +0.059 S 
ATOM     13  O   UNL     1      -5.238  11.355  -1.519  0.00  0.00    -0.153 OA
ATOM     14  O   UNL     1      -6.793   9.940  -0.185  0.00  0.00    -0.153 OA
BRANCH  12  15
ATOM     15  N   UNL     1      -5.348  11.601   0.938  0.00  0.00    -0.187 NA
ATOM     16  H   UNL     1      -6.056  11.540   1.777  0.00  0.00    +0.148 HD
BRANCH  15  17
ATOM     17  C   UNL     1      -4.129  12.405   1.064  0.00  0.00    +0.073 C 
ATOM     18  C   UNL     1      -4.375  13.798   0.481  0.00  0.00    +0.025 C 
BRANCH  17  20
ATOM     19  C   UNL     1      -3.385  11.149   3.092  0.00  0.00    +0.005 C 
ATOM     20  C   UNL     1      -3.752  12.529   2.541  0.00  0.00    +0.017 C 
ENDBRANCH  17  20
ENDBRANCH  15  17
ENDBRANCH  12  15
ENDBRANCH   6  12
ENDBRANCH   2   9
ENDBRANCH   1   3
BRANCH   1  21
ATOM     21  S   UNL     1      -1.448   2.393   0.024  0.00  0.00    -0.075 S 
BRANCH  21  22
ATOM     22  C   UNL     1      -0.016   1.366   0.023  0.00  0.00    +0.211 A 
ATOM     23  N   UNL     1       0.003  -0.004   0.016  0.00  0.00    -0.186 NA
ATOM     24  C   UNL     1       1.329  -0.355   0.012  0.00  0.00    +0.232 A 
ATOM     25  N   UNL     1       2.022   0.756   0.016  0.00  0.00    -0.245 N 
ATOM     26  N   UNL     1       1.231   1.769   0.022  0.00  0.00    -0.144 NA
ATOM     27  N   UNL     1       1.839  -1.644   0.005  0.00  0.00    -0.205 N 
ATOM     28  H   UNL     1       1.156  -2.506   0.002  0.00  0.00    +0.177 HD
ATOM     29  H   UNL     1       3.122   0.719   0.013  0.00  0.00    +0.192 HD
BRANCH  27  30
ATOM     30  N   UNL     1       3.225  -1.849   0.001  0.00  0.00    -0.188 NA
ATOM     31  C   UNL     1       3.705  -3.061  -0.006  0.00  0.00    +0.130 C 
BRANCH  31  32
ATOM     32  C   UNL     1       5.107  -3.268  -0.010  0.00  0.00    +0.022 C 
ATOM     33  C   UNL     1       5.604  -4.523  -0.017  0.00  0.00    +0.009 C 
BRANCH  33  34
ATOM     34  C   UNL     1       7.059  -4.738  -0.021  0.00  0.00    -0.025 A 
ATOM     35  C   UNL     1       7.931  -3.644  -0.024  0.00  0.00    +0.008 A 
ATOM     36  C   UNL     1       9.294  -3.854  -0.021  0.00  0.00    +0.001 A 
ATOM     37  C   UNL     1       9.800  -5.142  -0.029  0.00  0.00    +0.000 A 
ATOM     38  C   UNL     1       8.943  -6.229  -0.032  0.00  0.00    +0.001 A 
ATOM     39  C   UNL     1       7.578  -6.036  -0.028  0.00  0.00    +0.008 A 
ENDBRANCH  33  34
ENDBRANCH  31  32
ENDBRANCH  27  30
ENDBRANCH  21  22
ENDBRANCH   1  21
TORSDOF 11
