REMARK  Name = ZINC16681994
REMARK  10 active torsions:
REMARK  status: ('A' for Active; 'I' for Inactive)
REMARK    1  A    between atoms: C_1  and  C_2
REMARK    2  A    between atoms: C_2  and  O_3
REMARK    3  A    between atoms: O_3  and  C_4
REMARK    4  A    between atoms: C_4  and  C_6
REMARK    5  A    between atoms: C_6  and  C_31
REMARK    6  A    between atoms: N_8  and  C_24
REMARK    7  A    between atoms: C_9  and  N_23
REMARK    8  A    between atoms: C_10  and  C_21
REMARK    9  A    between atoms: C_11  and  C_14
REMARK   10  A    between atoms: C_27  and  C_30
REMARK                            x       y       z     vdW  Elec       q    Type
REMARK                         _______ _______ _______ _____ _____    ______ ____
ROOT
ATOM      1  C   UNL     1      -0.013   1.374  -0.020  0.00  0.00    +0.164 C 
ATOM      2  C   UNL     1      -1.247   2.022  -0.013  0.00  0.00    +0.102 C 
ATOM      3  N   UNL     1      -1.321   3.396  -0.088  0.00  0.00    -0.249 N 
ATOM      4  C   UNL     1      -2.254   4.036   0.706  0.00  0.00    +0.111 C 
ATOM      5  C   UNL     1      -3.599   3.963   0.413  0.00  0.00    +0.096 C 
ATOM      6  C   UNL     1      -4.074   3.264  -0.795  0.00  0.00    +0.009 C 
ATOM      7  C   UNL     1      -3.722   1.986  -1.085  0.00  0.00    +0.057 C 
ATOM      8  S   UNL     1      -2.752   1.099   0.101  0.00  0.00    -0.079 S 
ENDROOT
BRANCH   6   9
ATOM      9  C   UNL     1      -4.971   3.984  -1.728  0.00  0.00    -0.016 A 
ATOM     10  C   UNL     1      -4.508   5.105  -2.418  0.00  0.00    +0.010 A 
ATOM     11  C   UNL     1      -5.346   5.769  -3.290  0.00  0.00    +0.020 A 
ATOM     12  C   UNL     1      -6.647   5.331  -3.472  0.00  0.00    +0.041 A 
ATOM     13  C   UNL     1      -7.113   4.222  -2.786  0.00  0.00    +0.020 A 
ATOM     14  C   UNL     1      -6.283   3.547  -1.915  0.00  0.00    +0.010 A 
ATOM     15 CL   UNL     1      -7.698   6.175  -4.566  0.00  0.00    -0.084 Cl
ENDBRANCH   6   9
BRANCH   3  16
ATOM     16  C   UNL     1      -0.483   4.121  -0.942  0.00  0.00    +0.040 A 
ATOM     17  C   UNL     1       0.439   5.018  -0.416  0.00  0.00    +0.024 A 
ATOM     18  C   UNL     1       1.268   5.728  -1.261  0.00  0.00    +0.005 A 
ATOM     19  C   UNL     1       1.175   5.556  -2.630  0.00  0.00    -0.050 A 
ATOM     20  C   UNL     1       0.255   4.668  -3.157  0.00  0.00    +0.005 A 
ATOM     21  C   UNL     1      -0.574   3.951  -2.317  0.00  0.00    +0.024 A 
ATOM     22  C   UNL     1       2.077   6.338  -3.549  0.00  0.00    +0.044 C 
ENDBRANCH   3  16
BRANCH   4  23
ATOM     23  N   UNL     1      -1.835   4.751   1.798  0.00  0.00    -0.345 N 
ATOM     24  H   UNL     1      -2.484   5.202   2.361  0.00  0.00    +0.144 HD
ATOM     25  H   UNL     1      -0.890   4.806   2.009  0.00  0.00    +0.144 HD
ENDBRANCH   4  23
BRANCH   1  26
ATOM     26  C   UNL     1       1.222   2.154   0.031  0.00  0.00    +0.352 C 
ATOM     27  O   UNL     1       1.893   2.298  -0.973  0.00  0.00    -0.244 OA
BRANCH  26  28
ATOM     28  O   UNL     1       1.618   2.715   1.193  0.00  0.00    -0.461 OA
BRANCH  28  30
ATOM     29  C   UNL     1       3.119   4.018   2.568  0.00  0.00    +0.048 C 
ATOM     30  C   UNL     1       2.835   3.463   1.170  0.00  0.00    +0.229 C 
ENDBRANCH  28  30
ENDBRANCH  26  28
ENDBRANCH   1  26
BRANCH   5  31
ATOM     31  C   UNL     1      -4.547   4.574   1.294  0.00  0.00    +0.103 C 
ATOM     32  N   UNL     1      -5.300   5.059   1.993  0.00  0.00    -0.191 NA
ENDBRANCH   5  31
BRANCH   1  33
ATOM     33  C   UNL     1       0.045  -0.055  -0.084  0.00  0.00    +0.109 C 
ATOM     34  N   UNL     1       0.091  -1.189  -0.135  0.00  0.00    -0.191 NA
ENDBRANCH   1  33
TORSDOF 8
