REMARK  Name = ZINC32090689
REMARK  3 active torsions:
REMARK  status: ('A' for Active; 'I' for Inactive)
REMARK    1  A    between atoms: C_1  and  C_2
REMARK    2  A    between atoms: C_7  and  C_8
REMARK    3  A    between atoms: C_16  and  C_26
REMARK                            x       y       z     vdW  Elec       q    Type
REMARK                         _______ _______ _______ _____ _____    ______ ____
ROOT
ATOM      1  C   UNL     1       0.243   0.047   2.493  0.00  0.00    +0.063 C 
ATOM      2  C   UNL     1      -0.835  -0.442   3.467  0.00  0.00    +0.109 C 
ATOM      3  C   UNL     1      -0.522  -0.027   4.877  0.00  0.00    +0.219 C 
ATOM      4  O   UNL     1      -1.430   0.322   5.601  0.00  0.00    -0.275 OA
ATOM      5  N   UNL     1       0.737  -0.032   5.362  0.00  0.00    -0.270 N 
ATOM      6  C   UNL     1       1.785  -0.242   4.468  0.00  0.00    +0.134 A 
ATOM      7  C   UNL     1       1.593  -0.215   3.111  0.00  0.00    +0.023 A 
ATOM      8  C   UNL     1       2.814  -0.461   2.500  0.00  0.00    +0.066 A 
ATOM      9  N   UNL     1       3.720  -0.618   3.437  0.00  0.00    -0.168 NA
ATOM     10  N   UNL     1       3.096  -0.475   4.689  0.00  0.00    -0.198 N 
ATOM     11  C   UNL     1       3.720  -0.557   5.937  0.00  0.00    +0.178 A 
ATOM     12  C   UNL     1       4.902  -1.282   6.082  0.00  0.00    +0.053 A 
ATOM     13  C   UNL     1       5.482  -1.332   7.339  0.00  0.00    +0.045 A 
ATOM     14  C   UNL     1       4.851  -0.659   8.377  0.00  0.00    +0.152 A 
ATOM     15  N   UNL     1       3.733   0.003   8.148  0.00  0.00    -0.136 NA
ATOM     16  N   UNL     1       3.194   0.057   6.985  0.00  0.00    -0.128 NA
ATOM     17 CL   UNL     1       5.533  -0.688   9.973  0.00  0.00    -0.060 Cl
ATOM     18  C   UNL     1       3.059  -0.536   1.015  0.00  0.00    +0.068 C 
ATOM     19  H   UNL     1       0.908   0.108   6.307  0.00  0.00    +0.156 HD
ENDROOT
BRANCH   1  26
ATOM     20  C   UNL     1      -0.177   1.496   0.030  0.00  0.00    +0.044 C 
ATOM     21  C   UNL     1      -0.074  -0.007   0.011  0.00  0.00    -0.047 A 
ATOM     22  C   UNL     1      -0.175  -0.693  -1.185  0.00  0.00    +0.003 A 
ATOM     23  C   UNL     1      -0.080  -2.071  -1.202  0.00  0.00    +0.000 A 
ATOM     24  C   UNL     1       0.116  -2.765  -0.022  0.00  0.00    +0.000 A 
ATOM     25  C   UNL     1       0.218  -2.080   1.174  0.00  0.00    +0.004 A 
ATOM     26  C   UNL     1       0.127  -0.701   1.190  0.00  0.00    -0.036 A 
ENDBRANCH   1  26
TORSDOF 1
