REMARK  Name = ZINC03252577
REMARK  10 active torsions:
REMARK  status: ('A' for Active; 'I' for Inactive)
REMARK    1  A    between atoms: C_1  and  C_2
REMARK    2  A    between atoms: C_2  and  O_3
REMARK    3  A    between atoms: O_3  and  C_4
REMARK    4  A    between atoms: C_4  and  C_6
REMARK    5  A    between atoms: C_10  and  N_11
REMARK    6  A    between atoms: C_12  and  C_14
REMARK    7  A    between atoms: C_14  and  C_16
REMARK    8  A    between atoms: C_14  and  N_60
REMARK    9  A    between atoms: C_19  and  C_22
REMARK   10  A    between atoms: C_26  and  C_30
REMARK                            x       y       z     vdW  Elec       q    Type
REMARK                         _______ _______ _______ _____ _____    ______ ____
ROOT
ATOM      1  N   UNL     1       4.697   0.579   4.250  0.00  0.00    -0.281 N 
ATOM      2  C   UNL     1       5.893   1.177   4.080  0.00  0.00    +0.204 C 
ATOM      3  O   UNL     1       6.086   1.880   3.111  0.00  0.00    -0.277 OA
ATOM      4  H   UNL     1       4.543   0.017   5.026  0.00  0.00    +0.155 HD
ENDROOT
BRANCH   1   9
ATOM      5  C   UNL     1       2.403   0.242   3.320  0.00  0.00    +0.091 A 
ATOM      6  C   UNL     1       1.531   0.598   2.214  0.00  0.00    -0.021 A 
ATOM      7  C   UNL     1       2.079   1.417   1.290  0.00  0.00    -0.004 A 
ATOM      8  S   UNL     1       3.725   1.716   1.869  0.00  0.00    -0.077 S 
ATOM      9  C   UNL     1       3.688   0.767   3.319  0.00  0.00    +0.086 A 
ATOM     10  C   UNL     1       1.425   1.947   0.051  0.00  0.00    +0.046 C 
ATOM     11  C   UNL     1       0.156   1.125  -0.215  0.00  0.00    -0.009 C 
ATOM     12  C   UNL     1      -0.642   1.013   1.087  0.00  0.00    +0.008 C 
ATOM     13  C   UNL     1       0.096   0.104   2.072  0.00  0.00    +0.037 C 
ATOM     14  C   UNL     1      -0.692   1.822  -1.281  0.00  0.00    +0.008 C 
BRANCH   5  15
ATOM     15  C   UNL     1       1.944  -0.638   4.397  0.00  0.00    +0.342 C 
ATOM     16  O   UNL     1       1.411  -0.166   5.383  0.00  0.00    -0.245 OA
BRANCH  15  17
ATOM     17  O   UNL     1       2.111  -1.973   4.294  0.00  0.00    -0.461 OA
BRANCH  17  19
ATOM     18  C   UNL     1       1.906  -4.260   5.105  0.00  0.00    +0.048 C 
ATOM     19  C   UNL     1       1.631  -2.784   5.399  0.00  0.00    +0.229 C 
ENDBRANCH  17  19
ENDBRANCH  15  17
ENDBRANCH   5  15
ENDBRANCH   1   9
BRANCH   2  20
ATOM     20  C   UNL     1       6.990   0.972   5.093  0.00  0.00    +0.016 C 
ATOM     21  C   UNL     1       6.851   2.007   6.211  0.00  0.00    -0.004 C 
BRANCH  20  27
ATOM     22  C   UNL     1       9.384   1.105   5.425  0.00  0.00    -0.077 C 
ATOM     23  C   UNL     1      10.711   1.417   4.729  0.00  0.00    -0.006 C 
ATOM     24  C   UNL     1      10.965   0.376   3.635  0.00  0.00    +0.071 C 
ATOM     25  C   UNL     1       9.794   0.388   2.648  0.00  0.00    -0.006 C 
ATOM     26  C   UNL     1       8.493   0.107   3.404  0.00  0.00    -0.077 C 
ATOM     27  N   UNL     1       8.295   1.157   4.426  0.00  0.00    +0.387 N 
ATOM     28  H   UNL     1       8.308   2.075   3.967  0.00  0.00    -0.081 HD
BRANCH  24  29
ATOM     29  C   UNL     1      12.241   0.712   2.907  0.00  0.00    +0.213 C 
ATOM     30  O   UNL     1      12.217   0.939   1.716  0.00  0.00    -0.276 OA
ATOM     31  N   UNL     1      13.408   0.759   3.579  0.00  0.00    -0.329 N 
ATOM     32  H   UNL     1      13.427   0.578   4.532  0.00  0.00    +0.145 HD
ATOM     33  H   UNL     1      14.229   0.976   3.110  0.00  0.00    +0.145 HD
ENDBRANCH  24  29
ENDBRANCH  20  27
ENDBRANCH   2  20
TORSDOF 7
