REMARK  Name = ZINC15079946
REMARK  10 active torsions:
REMARK  status: ('A' for Active; 'I' for Inactive)
REMARK    1  A    between atoms: C_1  and  C_2
REMARK    2  A    between atoms: C_5  and  N_8
REMARK    3  A    between atoms: C_10  and  C_20
REMARK    4  A    between atoms: C_11  and  C_13
REMARK    5  A    between atoms: C_17  and  C_19
REMARK    6  A    between atoms: C_20  and  N_57
REMARK    7  A    between atoms: C_21  and  C_22
REMARK    8  A    between atoms: C_21  and  N_57
REMARK    9  A    between atoms: C_25  and  S_28
REMARK   10  A    between atoms: S_28  and  N_31
REMARK                            x       y       z     vdW  Elec       q    Type
REMARK                         _______ _______ _______ _____ _____    ______ ____
ROOT
ATOM      1  N   UNL     1       0.429   7.426   0.413  0.00  0.00    -0.239 N 
ATOM      2  C   UNL     1      -0.596   7.425  -0.478  0.00  0.00    +0.116 A 
ATOM      3  C   UNL     1      -0.962   6.141  -0.688  0.00  0.00    -0.019 A 
ATOM      4  C   UNL     1      -0.133   5.321   0.102  0.00  0.00    +0.094 A 
ATOM      5  N   UNL     1       0.698   6.097   0.766  0.00  0.00    -0.166 NA
ENDROOT
BRANCH   1  10
ATOM      6  C   UNL     1       3.136  12.010   2.378  0.00  0.00    +0.044 C 
ATOM      7  C   UNL     1       2.417  10.793   1.857  0.00  0.00    -0.050 A 
ATOM      8  C   UNL     1       2.791   9.533   2.288  0.00  0.00    +0.005 A 
ATOM      9  C   UNL     1       2.134   8.415   1.812  0.00  0.00    +0.028 A 
ATOM     10  C   UNL     1       1.098   8.558   0.899  0.00  0.00    +0.065 A 
ATOM     11  C   UNL     1       0.728   9.823   0.463  0.00  0.00    +0.028 A 
ATOM     12  C   UNL     1       1.385  10.938   0.948  0.00  0.00    +0.005 A 
ENDBRANCH   1  10
BRANCH   4  13
ATOM     13  C   UNL     1      -0.190   3.840   0.177  0.00  0.00    +0.003 A 
ATOM     14  C   UNL     1      -1.421   3.190   0.252  0.00  0.00    +0.010 A 
ATOM     15  C   UNL     1      -1.468   1.813   0.316  0.00  0.00    +0.001 A 
ATOM     16  C   UNL     1      -0.296   1.077   0.317  0.00  0.00    +0.003 A 
ATOM     17  C   UNL     1       0.928   1.716   0.243  0.00  0.00    -0.050 A 
ATOM     18  C   UNL     1       0.987   3.094   0.173  0.00  0.00    +0.013 A 
ATOM     19  C   UNL     1       2.200   0.908   0.239  0.00  0.00    +0.044 C 
ENDBRANCH   4  13
BRANCH   3  20
ATOM     20  C   UNL     1      -2.062   5.671  -1.603  0.00  0.00    -0.043 C 
BRANCH  20  21
ATOM     21  N   UNL     1      -1.463   5.083  -2.816  0.00  0.00    +0.384 N 
ATOM     22  H   UNL     1      -0.933   4.242  -2.559  0.00  0.00    -0.085 HD
ATOM     23  H   UNL     1      -0.831   5.767  -3.248  0.00  0.00    -0.085 HD
BRANCH  21  24
ATOM     24  C   UNL     1      -2.517   4.717  -3.782  0.00  0.00    -0.046 C 
BRANCH  24  25
ATOM     25  C   UNL     1      -1.876   4.119  -5.008  0.00  0.00    -0.064 A 
ATOM     26  C   UNL     1      -1.515   4.933  -6.066  0.00  0.00    +0.003 A 
ATOM     27  C   UNL     1      -0.924   4.386  -7.189  0.00  0.00    +0.029 A 
ATOM     28  C   UNL     1      -0.702   3.023  -7.259  0.00  0.00    +0.105 A 
ATOM     29  C   UNL     1      -1.068   2.209  -6.204  0.00  0.00    +0.029 A 
ATOM     30  C   UNL     1      -1.655   2.756  -5.079  0.00  0.00    +0.003 A 
BRANCH  28  31
ATOM     31  S   UNL     1       0.047   2.325  -8.692  0.00  0.00    +0.056 S 
ATOM     32  O   UNL     1       0.792   3.366  -9.309  0.00  0.00    -0.153 OA
ATOM     33  O   UNL     1       0.643   1.101  -8.284  0.00  0.00    -0.153 OA
BRANCH  31  34
ATOM     34  N   UNL     1      -1.173   1.931  -9.740  0.00  0.00    -0.204 NA
ATOM     35  H   UNL     1      -2.096   2.103  -9.496  0.00  0.00    +0.144 HD
ATOM     36  H   UNL     1      -0.965   1.530 -10.598  0.00  0.00    +0.144 HD
ENDBRANCH  31  34
ENDBRANCH  28  31
ENDBRANCH  24  25
ENDBRANCH  21  24
ENDBRANCH  20  21
ENDBRANCH   3  20
TORSDOF 8
