REMARK  Name = ZINC56595168
REMARK  4 active torsions:
REMARK  status: ('A' for Active; 'I' for Inactive)
REMARK    1  A    between atoms: C_5  and  C_6
REMARK    2  A    between atoms: N_8  and  C_9
REMARK    3  A    between atoms: N_17  and  C_18
REMARK    4  A    between atoms: N_21  and  C_24
REMARK                            x       y       z     vdW  Elec       q    Type
REMARK                         _______ _______ _______ _____ _____    ______ ____
ROOT
ATOM      1  C   UNL     1      -2.424  -2.920   0.015  0.00  0.00    +0.076 C 
ATOM      2  C   UNL     1      -2.914  -3.092   1.454  0.00  0.00    +0.041 C 
ATOM      3  C   UNL     1      -4.226  -3.885   1.452  0.00  0.00    +0.111 C 
ATOM      4  N   UNL     1      -4.014  -5.147   0.731  0.00  0.00    -0.286 N 
ATOM      5  C   UNL     1      -3.460  -5.100  -0.629  0.00  0.00    +0.111 C 
ATOM      6  C   UNL     1      -2.157  -4.295  -0.603  0.00  0.00    +0.041 C 
ATOM      7  C   UNL     1      -4.322  -6.326   1.307  0.00  0.00    +0.302 C 
ATOM      8  O   UNL     1      -4.689  -6.360   2.466  0.00  0.00    -0.253 OA
ATOM      9  N   UNL     1      -4.222  -7.469   0.599  0.00  0.00    -0.297 N 
ATOM     10  H   UNL     1      -3.861  -7.451  -0.301  0.00  0.00    +0.151 HD
ENDROOT
BRANCH   9  11
ATOM     11  C   UNL     1      -4.659  -8.736   1.188  0.00  0.00    +0.071 C 
ATOM     12  C   UNL     1      -3.520  -9.336   2.018  0.00  0.00    +0.004 C 
ATOM     13  C   UNL     1      -3.956 -10.697   2.565  0.00  0.00    -0.077 C 
ATOM     14  N   UNL     1      -4.277 -11.596   1.450  0.00  0.00    +0.382 N 
ATOM     15  C   UNL     1      -5.415 -11.063   0.692  0.00  0.00    -0.077 C 
ATOM     16  C   UNL     1      -5.036  -9.716   0.073  0.00  0.00    +0.004 C 
ATOM     17  H   UNL     1      -3.476 -11.674   0.841  0.00  0.00    -0.081 HD
BRANCH  14  18
ATOM     18  C   UNL     1      -4.619 -12.924   1.977  0.00  0.00    -0.069 C 
ATOM     19  C   UNL     1      -3.644 -14.069   1.696  0.00  0.00    -0.017 C 
ATOM     20  C   UNL     1      -4.987 -14.012   0.966  0.00  0.00    -0.017 C 
ENDBRANCH  14  18
ENDBRANCH   9  11
BRANCH   1  23
ATOM     21  C   UNL     1      -1.245  -0.788   0.017  0.00  0.00    +0.245 C 
ATOM     22  O   UNL     1      -2.323  -0.225   0.026  0.00  0.00    -0.270 OA
ATOM     23  N   UNL     1      -1.188  -2.135   0.011  0.00  0.00    -0.308 N 
ATOM     24  H   UNL     1      -0.328  -2.583   0.003  0.00  0.00    +0.149 HD
BRANCH  21  29
ATOM     25  C   UNL     1      -0.024   1.444   0.020  0.00  0.00    +0.020 A 
ATOM     26  C   UNL     1       1.181   2.048   0.015  0.00  0.00    +0.046 A 
ATOM     27  S   UNL     1       2.318   0.679   0.003  0.00  0.00    -0.104 S 
ATOM     28  C   UNL     1       1.235  -0.603   0.003  0.00  0.00    +0.058 A 
ATOM     29  C   UNL     1      -0.002   0.001   0.013  0.00  0.00    +0.044 A 
ENDBRANCH  21  29
ENDBRANCH   1  23
TORSDOF 4
