REMARK  Name = ZINC23871194
REMARK  10 active torsions:
REMARK  status: ('A' for Active; 'I' for Inactive)
REMARK    1  A    between atoms: C_1  and  C_2
REMARK    2  A    between atoms: C_2  and  N_3
REMARK    3  A    between atoms: N_3  and  C_4
REMARK    4  A    between atoms: C_4  and  C_5
REMARK    5  A    between atoms: C_6  and  C_8
REMARK    6  A    between atoms: C_11  and  N_14
REMARK    7  A    between atoms: C_15  and  C_17
REMARK    8  A    between atoms: C_17  and  S_18
REMARK    9  A    between atoms: S_18  and  C_19
REMARK   10  A    between atoms: C_29  and  C_33
REMARK                            x       y       z     vdW  Elec       q    Type
REMARK                         _______ _______ _______ _____ _____    ______ ____
ROOT
ATOM      1  C   UNL     1      10.418   3.952   3.401  0.00  0.00    +0.173 C 
ENDROOT
BRANCH   1   3
ATOM      2  N   UNL     1      12.654   2.914   3.199  0.00  0.00    -0.285 N 
ATOM      3  C   UNL     1      11.920   4.039   3.317  0.00  0.00    +0.227 C 
ATOM      4  O   UNL     1      12.469   5.120   3.357  0.00  0.00    -0.275 OA
ATOM      5  H   UNL     1      12.164   1.931   3.241  0.00  0.00    +0.155 HD
BRANCH   2   9
ATOM      6  C   UNL     1      16.779   3.166   2.672  0.00  0.00    +0.037 A 
ATOM      7  C   UNL     1      16.233   2.139   3.448  0.00  0.00    +0.015 A 
ATOM      8  C   UNL     1      14.869   2.059   3.620  0.00  0.00    +0.024 A 
ATOM      9  C   UNL     1      14.035   2.998   3.023  0.00  0.00    +0.033 A 
ATOM     10  C   UNL     1      14.575   4.018   2.245  0.00  0.00    +0.024 A 
ATOM     11  C   UNL     1      15.938   4.108   2.074  0.00  0.00    +0.015 A 
BRANCH   6  13
ATOM     12  N   UNL     1      19.069   2.970   3.511  0.00  0.00    -0.298 N 
ATOM     13  C   UNL     1      18.240   3.255   2.486  0.00  0.00    +0.247 C 
ATOM     14  O   UNL     1      18.697   3.585   1.409  0.00  0.00    -0.270 OA
BRANCH  12  16
ATOM     15  C   UNL     1      21.055   4.394   3.599  0.00  0.00    +0.024 C 
ATOM     16  C   UNL     1      20.519   2.991   3.307  0.00  0.00    +0.104 C 
ENDBRANCH  12  16
BRANCH  12  17
ATOM     17  C   UNL     1      18.518   2.640   4.828  0.00  0.00    +0.104 C 
ATOM     18  C   UNL     1      18.602   1.129   5.051  0.00  0.00    +0.024 C 
ENDBRANCH  12  17
ENDBRANCH   6  13
ENDBRANCH   2   9
ENDBRANCH   1   3
BRANCH   1  19
ATOM     19  S   UNL     1       9.726   5.618   3.553  0.00  0.00    -0.077 S 
BRANCH  19  20
ATOM     20  C   UNL     1       8.009   5.230   3.629  0.00  0.00    +0.191 A 
ATOM     21  N   UNL     1       7.645   3.957   3.566  0.00  0.00    -0.207 NA
ATOM     22  C   UNL     1       6.382   3.543   3.613  0.00  0.00    +0.129 A 
ATOM     23  C   UNL     1       5.395   4.564   3.739  0.00  0.00    +0.051 A 
ATOM     24  C   UNL     1       3.953   4.385   3.812  0.00  0.00    -0.025 A 
ATOM     25  C   UNL     1       3.208   5.506   3.929  0.00  0.00    -0.004 A 
ATOM     26  S   UNL     1       4.375   6.844   3.951  0.00  0.00    -0.073 S 
ATOM     27  C   UNL     1       5.859   5.902   3.801  0.00  0.00    +0.115 A 
ATOM     28  N   UNL     1       7.134   6.231   3.748  0.00  0.00    -0.214 NA
ATOM     29  C   UNL     1       1.716   5.598   4.022  0.00  0.00    +0.046 C 
ATOM     30  C   UNL     1       1.117   4.252   3.592  0.00  0.00    -0.009 C 
ATOM     31  C   UNL     1       1.867   3.129   4.316  0.00  0.00    +0.008 C 
ATOM     32  C   UNL     1       3.287   3.013   3.760  0.00  0.00    +0.037 C 
ATOM     33  C   UNL     1      -0.366   4.206   3.965  0.00  0.00    +0.008 C 
ATOM     34  N   UNL     1       6.046   2.204   3.544  0.00  0.00    -0.343 N 
ATOM     35  H   UNL     1       4.990   1.898   3.585  0.00  0.00    +0.144 HD
ATOM     36  H   UNL     1       6.835   1.443   3.447  0.00  0.00    +0.144 HD
ENDBRANCH  19  20
ENDBRANCH   1  19
TORSDOF 7
