REMARK  Name = ZINC08512418
REMARK  3 active torsions:
REMARK  status: ('A' for Active; 'I' for Inactive)
REMARK    1  A    between atoms: C_7  and  C_12
REMARK    2  A    between atoms: C_12  and  S_13
REMARK    3  A    between atoms: S_13  and  C_14
REMARK                            x       y       z     vdW  Elec       q    Type
REMARK                         _______ _______ _______ _____ _____    ______ ____
ROOT
ATOM      1  C   UNL     1      -1.079   2.377   0.020  0.00  0.00    +0.015 A 
ATOM      2  C   UNL     1      -0.018   1.510   0.010  0.00  0.00    -0.043 A 
ATOM      3  C   UNL     1       1.282   1.995   0.001  0.00  0.00    -0.041 A 
ATOM      4  C   UNL     1       1.521   3.357   0.007  0.00  0.00    +0.051 A 
ATOM      5  C   UNL     1       0.460   4.250   0.022  0.00  0.00    +0.140 A 
ATOM      6  C   UNL     1      -0.856   3.755   0.031  0.00  0.00    +0.022 A 
ATOM      7  C   UNL     1      -1.973   4.705   0.046  0.00  0.00    -0.020 A 
ATOM      8  C   UNL     1      -1.686   6.031   0.052  0.00  0.00    +0.097 A 
ATOM      9  C   UNL     1      -0.341   6.458   0.043  0.00  0.00    +0.338 A 
ATOM     10  O   UNL     1      -0.097   7.651   0.050  0.00  0.00    -0.245 OA
ATOM     11  O   UNL     1       0.677   5.583   0.029  0.00  0.00    -0.422 OA
ATOM     12  C   UNL     1       2.257   0.836  -0.016  0.00  0.00    +0.036 C 
ATOM     13  C   UNL     1       1.434  -0.392   0.428  0.00  0.00    +0.009 C 
ATOM     14  C   UNL     1       0.002  -0.004   0.002  0.00  0.00    +0.036 C 
ENDROOT
BRANCH   7  15
ATOM     15  C   UNL     1      -3.400   4.221   0.056  0.00  0.00    +0.113 C 
BRANCH  15  16
ATOM     16  S   UNL     1      -3.986   4.038  -1.647  0.00  0.00    -0.082 S 
BRANCH  16  17
ATOM     17  C   UNL     1      -5.630   3.478  -1.346  0.00  0.00    +0.184 A 
ATOM     18  N   UNL     1      -6.551   3.175  -2.286  0.00  0.00    -0.254 N 
ATOM     19  H   UNL     1      -6.438   3.222  -3.248  0.00  0.00    +0.191 HD
ATOM     20  N   UNL     1      -7.706   2.777  -1.592  0.00  0.00    -0.160 NA
ATOM     21  C   UNL     1      -7.433   2.858  -0.318  0.00  0.00    +0.245 A 
ATOM     22  N   UNL     1      -6.176   3.276  -0.166  0.00  0.00    -0.209 NA
ENDBRANCH  16  17
ENDBRANCH  15  16
ENDBRANCH   7  15
TORSDOF 3
