REMARK  Name = ZINC66578616
REMARK  5 active torsions:
REMARK  status: ('A' for Active; 'I' for Inactive)
REMARK    1  A    between atoms: C_1  and  C_2
REMARK    2  A    between atoms: C_2  and  C_3
REMARK    3  A    between atoms: C_2  and  C_4
REMARK    4  A    between atoms: N_11  and  S_12
REMARK    5  A    between atoms: S_12  and  C_15
REMARK                            x       y       z     vdW  Elec       q    Type
REMARK                         _______ _______ _______ _____ _____    ______ ____
ROOT
ATOM      1  C   UNL     1      -0.343  -1.215   1.435  0.00  0.00    +0.168 C 
ATOM      2  C   UNL     1       1.020  -0.671   1.765  0.00  0.00    +0.232 C 
ATOM      3  O   UNL     1       1.105   0.469   2.170  0.00  0.00    -0.274 OA
ATOM      4  N   UNL     1       2.139  -1.385   1.634  0.00  0.00    -0.313 N 
ATOM      5  C   UNL     1       2.201  -2.729   1.077  0.00  0.00    +0.121 C 
ATOM      6  C   UNL     1       0.838  -3.417   1.165  0.00  0.00    +0.128 C 
ATOM      7  N   UNL     1      -0.189  -2.473   0.690  0.00  0.00    -0.167 NA
ATOM      8  H   UNL     1       2.969  -0.980   1.929  0.00  0.00    +0.149 HD
ENDROOT
BRANCH   1  10
ATOM      9  C   UNL     1      -1.233   1.118   1.341  0.00  0.00    +0.009 C 
ATOM     10  C   UNL     1      -1.105  -0.202   0.578  0.00  0.00    +0.011 C 
ATOM     11  C   UNL     1      -0.344   0.036  -0.728  0.00  0.00    +0.009 C 
ENDBRANCH   1  10
BRANCH   7  12
ATOM     12  S   UNL     1      -1.127  -2.813  -0.632  0.00  0.00    +0.035 S 
ATOM     13  O   UNL     1      -1.669  -1.559  -1.024  0.00  0.00    -0.158 OA
ATOM     14  O   UNL     1      -0.274  -3.539  -1.506  0.00  0.00    -0.158 OA
BRANCH  12  15
ATOM     15  C   UNL     1      -2.443  -3.892  -0.004  0.00  0.00    +0.148 C 
ATOM     16  C   UNL     1      -1.834  -5.191   0.565  0.00  0.00    +0.028 C 
ATOM     17  C   UNL     1      -2.850  -6.291   0.171  0.00  0.00    +0.002 C 
ATOM     18  C   UNL     1      -3.300  -5.850  -1.244  0.00  0.00    +0.002 C 
ATOM     19  C   UNL     1      -3.375  -4.311  -1.155  0.00  0.00    +0.028 C 
ENDBRANCH  12  15
ENDBRANCH   7  12
TORSDOF 3
