REMARK  Name = ZINC00374649
REMARK  3 active torsions:
REMARK  status: ('A' for Active; 'I' for Inactive)
REMARK    1  A    between atoms: C_1  and  C_2
REMARK    2  A    between atoms: C_6  and  C_7
REMARK    3  A    between atoms: N_18  and  O_19
REMARK                            x       y       z     vdW  Elec       q    Type
REMARK                         _______ _______ _______ _____ _____    ______ ____
ROOT
ATOM      1  C   UNL     1       0.021   0.029   2.495  0.00  0.00    +0.227 C 
ATOM      2  N   UNL     1       0.862  -0.767   3.397  0.00  0.00    -0.319 N 
ATOM      3  C   UNL     1       2.243  -0.664   3.281  0.00  0.00    +0.041 A 
ATOM      4  C   UNL     1       3.086  -1.717   3.594  0.00  0.00    +0.024 A 
ATOM      5  C   UNL     1       4.452  -1.564   3.457  0.00  0.00    +0.002 A 
ATOM      6  C   UNL     1       4.985  -0.366   3.008  0.00  0.00    +0.001 A 
ATOM      7  C   UNL     1       4.160   0.694   2.692  0.00  0.00    +0.015 A 
ATOM      8  C   UNL     1       2.781   0.554   2.828  0.00  0.00    +0.060 A 
ATOM      9  C   UNL     1       1.854   1.656   2.513  0.00  0.00    +0.273 C 
ATOM     10  O   UNL     1       2.273   2.787   2.361  0.00  0.00    -0.268 OA
ATOM     11  N   UNL     1       0.539   1.393   2.396  0.00  0.00    -0.154 N 
ATOM     12  H   UNL     1       0.462  -1.351   4.061  0.00  0.00    +0.148 HD
ENDROOT
BRANCH   1  18
ATOM     13  C   UNL     1      -2.442  -0.871   0.895  0.00  0.00    +0.045 C 
ATOM     14  C   UNL     1      -1.034  -1.018   0.380  0.00  0.00    -0.037 A 
ATOM     15  C   UNL     1      -0.796  -1.571  -0.864  0.00  0.00    +0.011 A 
ATOM     16  C   UNL     1       0.482  -1.689  -1.298  0.00  0.00    +0.046 A 
ATOM     17  S   UNL     1       1.401  -1.006   0.072  0.00  0.00    -0.098 S 
ATOM     18  C   UNL     1       0.019  -0.604   1.127  0.00  0.00    +0.033 A 
ENDBRANCH   1  18
BRANCH  11  19
ATOM     19  O   UNL     1      -0.360   2.464   2.171  0.00  0.00    -0.290 OA
ATOM     20  H   UNL     1       0.065   3.331   2.119  0.00  0.00    +0.242 HD
ENDBRANCH  11  19
TORSDOF 2
