REMARK  Name = ZINC45661247
REMARK  8 active torsions:
REMARK  status: ('A' for Active; 'I' for Inactive)
REMARK    1  A    between atoms: C_1  and  C_2
REMARK    2  A    between atoms: C_2  and  C_3
REMARK    3  A    between atoms: C_2  and  C_4
REMARK    4  A    between atoms: C_7  and  S_15
REMARK    5  A    between atoms: N_8  and  C_9
REMARK    6  A    between atoms: C_9  and  C_10
REMARK    7  A    between atoms: S_15  and  C_16
REMARK    8  A    between atoms: C_16  and  C_17
REMARK                            x       y       z     vdW  Elec       q    Type
REMARK                         _______ _______ _______ _____ _____    ______ ____
ROOT
ATOM      1  C   UNL     1      -7.192  -3.128  -0.710  0.00  0.00    +0.143 A 
ATOM      2  N   UNL     1      -8.023  -2.531  -1.546  0.00  0.00    -0.216 NA
ATOM      3  C   UNL     1      -8.940  -3.200  -2.226  0.00  0.00    +0.128 A 
ATOM      4  C   UNL     1      -9.038  -4.609  -2.053  0.00  0.00    +0.051 A 
ATOM      5  C   UNL     1      -9.967  -5.546  -2.695  0.00  0.00    -0.025 A 
ATOM      6  C   UNL     1      -9.853  -6.844  -2.351  0.00  0.00    -0.004 A 
ATOM      7  S   UNL     1      -8.519  -6.900  -1.181  0.00  0.00    -0.073 S 
ATOM      8  C   UNL     1      -8.119  -5.173  -1.147  0.00  0.00    +0.114 A 
ATOM      9  N   UNL     1      -7.232  -4.432  -0.513  0.00  0.00    -0.224 NA
ATOM     10  C   UNL     1     -10.675  -7.998  -2.833  0.00  0.00    +0.043 C 
ATOM     11  C   UNL     1     -10.758  -7.957  -4.364  0.00  0.00    +0.005 C 
ATOM     12  C   UNL     1     -11.972  -7.120  -4.758  0.00  0.00    +0.001 C 
ATOM     13  C   UNL     1     -12.192  -6.007  -3.736  0.00  0.00    +0.005 C 
ATOM     14  C   UNL     1     -10.998  -5.060  -3.710  0.00  0.00    +0.037 C 
ATOM     15  N   UNL     1      -9.792  -2.539  -3.092  0.00  0.00    -0.343 N 
ATOM     16  H   UNL     1     -10.177  -3.010  -3.847  0.00  0.00    +0.144 HD
ATOM     17  H   UNL     1     -10.005  -1.605  -2.943  0.00  0.00    +0.144 HD
ENDROOT
BRANCH   1  18
ATOM     18  C   UNL     1      -6.172  -2.302   0.031  0.00  0.00    +0.153 C 
BRANCH  18  19
ATOM     19  S   UNL     1      -4.650  -2.198  -0.951  0.00  0.00    -0.078 S 
BRANCH  19  23
ATOM     20  C   UNL     1      -1.857  -0.095   0.780  0.00  0.00    +0.137 A 
ATOM     21  N   UNL     1      -2.831  -0.035   1.644  0.00  0.00    -0.133 NA
ATOM     22  N   UNL     1      -3.846  -0.694   1.210  0.00  0.00    -0.122 NA
ATOM     23  C   UNL     1      -3.572  -1.214   0.036  0.00  0.00    +0.192 A 
ATOM     24  N   UNL     1      -2.296  -0.844  -0.277  0.00  0.00    -0.298 N 
BRANCH  20  26
ATOM     25  C   UNL     1      -0.666   2.062   1.057  0.00  0.00    +0.015 C 
ATOM     26  C   UNL     1      -0.501   0.547   0.918  0.00  0.00    +0.051 C 
ATOM     27  C   UNL     1       0.201  -0.005   2.160  0.00  0.00    +0.015 C 
ENDBRANCH  20  26
BRANCH  24  28
ATOM     28  C   UNL     1      -1.550  -1.181  -1.492  0.00  0.00    +0.199 C 
BRANCH  28  29
ATOM     29  C   UNL     1      -0.803  -2.472  -1.281  0.00  0.00    +0.125 A 
ATOM     30  C   UNL     1      -1.270  -3.704  -1.548  0.00  0.00    +0.046 A 
ATOM     31  C   UNL     1      -0.246  -4.615  -1.201  0.00  0.00    +0.041 A 
ATOM     32  C   UNL     1       0.786  -3.885  -0.743  0.00  0.00    +0.195 A 
ATOM     33  O   UNL     1       0.446  -2.587  -0.799  0.00  0.00    -0.466 OA
ENDBRANCH  28  29
ENDBRANCH  24  28
ENDBRANCH  19  23
ENDBRANCH  18  19
ENDBRANCH   1  18
TORSDOF 6
