REMARK  Name = ZINC09176878
REMARK  9 active torsions:
REMARK  status: ('A' for Active; 'I' for Inactive)
REMARK    1  A    between atoms: C_1  and  C_2
REMARK    2  A    between atoms: C_2  and  C_3
REMARK    3  A    between atoms: C_2  and  C_4
REMARK    4  A    between atoms: C_4  and  C_6
REMARK    5  A    between atoms: C_4  and  S_12
REMARK    6  A    between atoms: S_12  and  C_13
REMARK    7  A    between atoms: C_17  and  C_20
REMARK    8  A    between atoms: N_28  and  C_29
REMARK    9  A    between atoms: C_29  and  C_30
REMARK                            x       y       z     vdW  Elec       q    Type
REMARK                         _______ _______ _______ _____ _____    ______ ____
ROOT
ATOM      1  C   UNL     1      -2.460  -0.380   2.090  0.00  0.00    +0.174 A 
ATOM      2  N   UNL     1      -2.884  -0.708   3.294  0.00  0.00    -0.216 NA
ATOM      3  C   UNL     1      -3.695   0.096   3.974  0.00  0.00    +0.117 A 
ATOM      4  C   UNL     1      -4.132   1.326   3.453  0.00  0.00    +0.080 A 
ATOM      5  C   UNL     1      -5.019   2.086   4.330  0.00  0.00    +0.004 A 
ATOM      6  C   UNL     1      -5.343   1.567   5.537  0.00  0.00    +0.056 A 
ATOM      7  S   UNL     1      -4.468   0.014   5.568  0.00  0.00    -0.076 S 
ATOM      8  C   UNL     1      -3.652   1.657   2.149  0.00  0.00    +0.264 A 
ATOM      9  O   UNL     1      -3.979   2.705   1.619  0.00  0.00    -0.267 OA
ATOM     10  N   UNL     1      -2.833   0.799   1.514  0.00  0.00    -0.283 N 
ENDROOT
BRANCH   5  11
ATOM     11  C   UNL     1      -5.554   3.401   3.905  0.00  0.00    -0.017 A 
ATOM     12  C   UNL     1      -4.694   4.382   3.415  0.00  0.00    +0.008 A 
ATOM     13  C   UNL     1      -5.199   5.602   3.016  0.00  0.00    +0.001 A 
ATOM     14  C   UNL     1      -6.555   5.858   3.112  0.00  0.00    +0.000 A 
ATOM     15  C   UNL     1      -7.413   4.890   3.603  0.00  0.00    +0.001 A 
ATOM     16  C   UNL     1      -6.920   3.664   4.000  0.00  0.00    +0.008 A 
ENDBRANCH   5  11
BRANCH   1  17
ATOM     17  S   UNL     1      -1.391  -1.475   1.217  0.00  0.00    -0.075 S 
BRANCH  17  18
ATOM     18  C   UNL     1      -1.143  -2.747   2.481  0.00  0.00    +0.143 C 
BRANCH  18  19
ATOM     19  C   UNL     1      -2.431  -3.501   2.694  0.00  0.00    +0.234 C 
ATOM     20  O   UNL     1      -3.257  -3.553   1.808  0.00  0.00    -0.274 OA
ATOM     21  N   UNL     1      -2.664  -4.117   3.870  0.00  0.00    -0.239 N 
ATOM     22  C   UNL     1      -3.815  -4.790   4.061  0.00  0.00    +0.303 C 
ATOM     23  O   UNL     1      -4.643  -4.843   3.173  0.00  0.00    -0.253 OA
ATOM     24  N   UNL     1      -4.048  -5.407   5.237  0.00  0.00    -0.313 N 
ATOM     25  H   UNL     1      -2.003  -4.075   4.579  0.00  0.00    +0.159 HD
ATOM     26  H   UNL     1      -3.387  -5.365   5.946  0.00  0.00    +0.146 HD
ATOM     27  H   UNL     1      -4.877  -5.892   5.375  0.00  0.00    +0.146 HD
ENDBRANCH  18  19
BRANCH  18  29
ATOM     28  C   UNL     1      -0.420  -4.280   0.645  0.00  0.00    +0.009 C 
ATOM     29  C   UNL     1      -0.054  -3.718   2.020  0.00  0.00    +0.005 C 
ATOM     30  C   UNL     1       1.283  -2.979   1.930  0.00  0.00    +0.009 C 
ENDBRANCH  18  29
ENDBRANCH  17  18
ENDBRANCH   1  17
BRANCH  10  31
ATOM     31  C   UNL     1      -2.338   1.134   0.176  0.00  0.00    +0.162 C 
BRANCH  31  32
ATOM     32  C   UNL     1      -1.043   1.895   0.296  0.00  0.00    -0.028 A 
ATOM     33  C   UNL     1       0.160   1.213   0.318  0.00  0.00    +0.005 A 
ATOM     34  C   UNL     1       1.348   1.911   0.422  0.00  0.00    +0.000 A 
ATOM     35  C   UNL     1       1.334   3.291   0.510  0.00  0.00    +0.000 A 
ATOM     36  C   UNL     1       0.132   3.972   0.493  0.00  0.00    +0.000 A 
ATOM     37  C   UNL     1      -1.057   3.274   0.389  0.00  0.00    +0.005 A 
ENDBRANCH  31  32
ENDBRANCH  10  31
TORSDOF 7
