REMARK  Name = ZINC14253256
REMARK  5 active torsions:
REMARK  status: ('A' for Active; 'I' for Inactive)
REMARK    1  A    between atoms: C_1  and  C_2
REMARK    2  A    between atoms: C_2  and  C_26
REMARK    3  A    between atoms: N_5  and  C_9
REMARK    4  A    between atoms: C_9  and  C_10
REMARK    5  A    between atoms: C_14  and  C_23
REMARK                            x       y       z     vdW  Elec       q    Type
REMARK                         _______ _______ _______ _____ _____    ______ ____
ROOT
ATOM      1  C   UNL     1       1.987   1.605   1.257  0.00  0.00    +0.047 C 
ATOM      2  C   UNL     1       1.141   1.842   0.004  0.00  0.00    +0.135 C 
ATOM      3  C   UNL     1       0.530   3.230   0.024  0.00  0.00    +0.251 C 
ATOM      4  O   UNL     1       1.120   4.289   0.037  0.00  0.00    -0.272 OA
ATOM      5  N   UNL     1      -0.804   3.041   0.022  0.00  0.00    -0.215 N 
ATOM      6  C   UNL     1      -1.118   1.740  -0.000  0.00  0.00    +0.310 C 
ATOM      7  O   UNL     1      -2.259   1.321  -0.010  0.00  0.00    -0.252 OA
ATOM      8  N   UNL     1      -0.030   0.949  -0.007  0.00  0.00    -0.281 N 
ATOM      9  H   UNL     1      -0.019  -0.021  -0.021  0.00  0.00    +0.152 HD
ENDROOT
BRANCH   2  10
ATOM     10  C   UNL     1       1.970   1.646  -1.239  0.00  0.00    -0.015 A 
ATOM     11  C   UNL     1       2.675   2.724  -1.772  0.00  0.00    +0.007 A 
ATOM     12  C   UNL     1       3.433   2.579  -2.892  0.00  0.00    +0.009 A 
ATOM     13  C   UNL     1       3.509   1.327  -3.525  0.00  0.00    -0.018 A 
ATOM     14  C   UNL     1       4.282   1.139  -4.683  0.00  0.00    +0.008 A 
ATOM     15  C   UNL     1       4.331  -0.088  -5.269  0.00  0.00    +0.001 A 
ATOM     16  C   UNL     1       3.626  -1.166  -4.736  0.00  0.00    +0.001 A 
ATOM     17  C   UNL     1       2.868  -1.022  -3.615  0.00  0.00    +0.008 A 
ATOM     18  C   UNL     1       2.792   0.231  -2.983  0.00  0.00    -0.018 A 
ATOM     19  C   UNL     1       2.023   0.417  -1.821  0.00  0.00    +0.014 A 
ENDBRANCH   2  10
BRANCH   5  20
ATOM     20  C   UNL     1      -1.789   4.125   0.038  0.00  0.00    +0.214 C 
BRANCH  20  21
ATOM     21  C   UNL     1      -2.128   4.516  -1.378  0.00  0.00    +0.238 C 
ATOM     22  O   UNL     1      -1.530   4.012  -2.306  0.00  0.00    -0.274 OA
ATOM     23  N   UNL     1      -3.095   5.424  -1.613  0.00  0.00    -0.263 N 
ATOM     24  C   UNL     1      -3.754   6.139  -0.507  0.00  0.00    +0.168 C 
ATOM     25  C   UNL     1      -3.900   7.611  -0.933  0.00  0.00    +0.276 C 
ATOM     26  O   UNL     1      -4.664   7.665  -2.141  0.00  0.00    -0.476 OA
ATOM     27  C   UNL     1      -4.294   6.846  -3.161  0.00  0.00    +0.143 A 
ATOM     28  C   UNL     1      -3.515   5.717  -2.922  0.00  0.00    +0.078 A 
ATOM     29  C   UNL     1      -3.153   4.887  -3.970  0.00  0.00    +0.027 A 
ATOM     30  C   UNL     1      -3.565   5.182  -5.257  0.00  0.00    +0.002 A 
ATOM     31  C   UNL     1      -4.337   6.303  -5.497  0.00  0.00    +0.004 A 
ATOM     32  C   UNL     1      -4.703   7.134  -4.454  0.00  0.00    +0.047 A 
BRANCH  25  33
ATOM     33  C   UNL     1      -4.610   8.384   0.148  0.00  0.00    +0.253 C 
ATOM     34  O   UNL     1      -5.709   8.851  -0.062  0.00  0.00    -0.272 OA
ATOM     35  N   UNL     1      -4.024   8.556   1.349  0.00  0.00    -0.326 N 
ATOM     36  H   UNL     1      -3.144   8.182   1.518  0.00  0.00    +0.145 HD
ATOM     37  H   UNL     1      -4.481   9.053   2.046  0.00  0.00    +0.145 HD
ENDBRANCH  25  33
ENDBRANCH  20  21
ENDBRANCH   5  20
TORSDOF 4
