REMARK  Name = ZINC21360497
REMARK  10 active torsions:
REMARK  status: ('A' for Active; 'I' for Inactive)
REMARK    1  A    between atoms: C_1  and  O_2
REMARK    2  A    between atoms: O_2  and  C_3
REMARK    3  A    between atoms: C_6  and  N_11
REMARK    4  A    between atoms: C_7  and  O_9
REMARK    5  A    between atoms: O_9  and  C_10
REMARK    6  A    between atoms: C_12  and  C_23
REMARK    7  A    between atoms: C_25  and  O_32
REMARK    8  A    between atoms: C_26  and  O_31
REMARK    9  A    between atoms: C_27  and  O_29
REMARK   10  A    between atoms: O_29  and  C_30
REMARK                            x       y       z     vdW  Elec       q    Type
REMARK                         _______ _______ _______ _____ _____    ______ ____
ROOT
ATOM      1  N   UNL     1      -1.410  -0.837   0.119  0.00  0.00    -0.241 N 
ATOM      2  C   UNL     1      -1.891  -0.983  -1.255  0.00  0.00    +0.198 C 
ATOM      3  N   UNL     1      -3.354  -0.913  -1.294  0.00  0.00    -0.321 N 
ATOM      4  C   UNL     1      -4.085  -1.596  -0.328  0.00  0.00    +0.041 A 
ATOM      5  C   UNL     1      -5.364  -2.064  -0.576  0.00  0.00    +0.024 A 
ATOM      6  C   UNL     1      -6.061  -2.712   0.425  0.00  0.00    +0.002 A 
ATOM      7  C   UNL     1      -5.492  -2.894   1.675  0.00  0.00    +0.001 A 
ATOM      8  C   UNL     1      -4.218  -2.437   1.938  0.00  0.00    +0.015 A 
ATOM      9  C   UNL     1      -3.498  -1.793   0.934  0.00  0.00    +0.058 A 
ATOM     10  C   UNL     1      -2.132  -1.290   1.163  0.00  0.00    +0.254 C 
ATOM     11  O   UNL     1      -1.660  -1.284   2.284  0.00  0.00    -0.270 OA
ATOM     12  H   UNL     1      -3.855  -0.328  -2.079  0.00  0.00    +0.148 HD
ENDROOT
BRANCH   1  16
ATOM     13  C   UNL     1       2.256   1.033   0.818  0.00  0.00    +0.124 A 
ATOM     14  C   UNL     1       2.198  -0.343   0.648  0.00  0.00    +0.047 A 
ATOM     15  C   UNL     1       0.985  -0.962   0.416  0.00  0.00    +0.031 A 
ATOM     16  C   UNL     1      -0.178  -0.209   0.354  0.00  0.00    +0.081 A 
ATOM     17  C   UNL     1      -0.121   1.173   0.525  0.00  0.00    +0.145 A 
ATOM     18  C   UNL     1       1.097   1.790   0.756  0.00  0.00    +0.093 A 
BRANCH  13  20
ATOM     19  C   UNL     1       4.606   0.798   1.098  0.00  0.00    +0.277 C 
ATOM     20  O   UNL     1       3.452   1.639   1.047  0.00  0.00    -0.495 OA
ENDBRANCH  13  20
BRANCH  17  21
ATOM     21  O   UNL     1      -1.259   1.914   0.459  0.00  0.00    -0.493 OA
ATOM     22  C   UNL     1      -1.126   3.325   0.643  0.00  0.00    +0.277 C 
ENDBRANCH  17  21
ENDBRANCH   1  16
BRANCH   2  23
ATOM     23  C   UNL     1      -1.446  -2.316  -1.801  0.00  0.00    -0.002 A 
ATOM     24  C   UNL     1      -1.736  -3.476  -1.108  0.00  0.00    +0.056 A 
ATOM     25  C   UNL     1      -1.333  -4.704  -1.610  0.00  0.00    +0.162 A 
ATOM     26  C   UNL     1      -0.625  -4.766  -2.805  0.00  0.00    +0.201 A 
ATOM     27  C   UNL     1      -0.330  -3.597  -3.495  0.00  0.00    +0.165 A 
ATOM     28  C   UNL     1      -0.742  -2.373  -2.989  0.00  0.00    +0.056 A 
BRANCH  27  29
ATOM     29  O   UNL     1       0.361  -3.653  -4.664  0.00  0.00    -0.491 OA
ATOM     30  C   UNL     1       0.629  -2.411  -5.319  0.00  0.00    +0.277 C 
ENDBRANCH  27  29
BRANCH  26  31
ATOM     31  O   UNL     1      -0.223  -5.970  -3.298  0.00  0.00    -0.501 OA
ATOM     32  H   UNL     1       0.337  -6.017  -4.243  0.00  0.00    +0.292 HD
ENDBRANCH  26  31
BRANCH  25  33
ATOM     33  O   UNL     1      -1.624  -5.846  -0.930  0.00  0.00    -0.503 OA
ATOM     34  H   UNL     1      -1.303  -6.820  -1.329  0.00  0.00    +0.292 HD
ENDBRANCH  25  33
ENDBRANCH   2  23
TORSDOF 7
