REMARK  Name = ZINC36145841
REMARK  14 active torsions:
REMARK  status: ('A' for Active; 'I' for Inactive)
REMARK    1  A    between atoms: C_1  and  O_2
REMARK    2  A    between atoms: O_2  and  C_3
REMARK    3  A    between atoms: C_6  and  C_9
REMARK    4  A    between atoms: C_12  and  C_15
REMARK    5  A    between atoms: C_15  and  N_16
REMARK    6  A    between atoms: N_16  and  C_17
REMARK    7  A    between atoms: N_16  and  C_26
REMARK    8  A    between atoms: C_17  and  C_18
REMARK    9  A    between atoms: C_26  and  C_27
REMARK   10  A    between atoms: C_27  and  C_29
REMARK   11  A    between atoms: C_27  and  O_38
REMARK   12  A    between atoms: C_29  and  O_30
REMARK   13  A    between atoms: O_30  and  C_31
REMARK   14  A    between atoms: C_31  and  C_32
REMARK                            x       y       z     vdW  Elec       q    Type
REMARK                         _______ _______ _______ _____ _____    ______ ____
ROOT
ATOM      1  N   UNL     1       4.373  -4.848   8.127  0.00  0.00    +0.387 N 
ATOM      2  H   UNL     1       4.369  -4.175   8.878  0.00  0.00    -0.081 HD
ENDROOT
BRANCH   1   3
ATOM      3  C   UNL     1       3.276  -4.548   7.196  0.00  0.00    -0.030 C 
BRANCH   3   7
ATOM      4  C   UNL     1      -0.350  -4.912   7.622  0.00  0.00    +0.091 C 
ATOM      5  N   UNL     1       0.154  -5.778   8.436  0.00  0.00    -0.089 NA
ATOM      6  O   UNL     1       1.564  -5.707   8.510  0.00  0.00    -0.392 OA
ATOM      7  C   UNL     1       1.964  -4.429   7.974  0.00  0.00    +0.194 C 
ATOM      8  C   UNL     1       0.786  -4.105   7.023  0.00  0.00    +0.104 C 
BRANCH   4  12
ATOM      9  C   UNL     1      -4.478  -4.418   6.758  0.00  0.00    +0.120 A 
ATOM     10  C   UNL     1      -4.071  -5.391   7.663  0.00  0.00    +0.046 A 
ATOM     11  C   UNL     1      -2.733  -5.554   7.946  0.00  0.00    +0.013 A 
ATOM     12  C   UNL     1      -1.784  -4.740   7.322  0.00  0.00    -0.000 A 
ATOM     13  C   UNL     1      -2.198  -3.764   6.412  0.00  0.00    +0.013 A 
ATOM     14  C   UNL     1      -3.538  -3.610   6.131  0.00  0.00    +0.046 A 
BRANCH   9  16
ATOM     15  C   UNL     1      -6.712  -5.123   7.162  0.00  0.00    +0.277 C 
ATOM     16  O   UNL     1      -5.798  -4.260   6.482  0.00  0.00    -0.495 OA
ENDBRANCH   9  16
ENDBRANCH   4  12
ENDBRANCH   3   7
ENDBRANCH   1   3
BRANCH   1  17
ATOM     17  C   UNL     1       5.654  -4.776   7.412  0.00  0.00    -0.040 C 
BRANCH  17  18
ATOM     18  C   UNL     1       5.852  -3.383   6.873  0.00  0.00    -0.029 A 
ATOM     19  C   UNL     1       5.627  -3.122   5.534  0.00  0.00    +0.007 A 
ATOM     20  C   UNL     1       5.807  -1.845   5.038  0.00  0.00    +0.039 A 
ATOM     21  C   UNL     1       6.215  -0.825   5.882  0.00  0.00    +0.126 A 
ATOM     22  C   UNL     1       6.441  -1.085   7.223  0.00  0.00    +0.076 A 
ATOM     23  C   UNL     1       6.254  -2.364   7.719  0.00  0.00    +0.127 A 
ATOM     24  F   UNL     1       6.469  -2.618   9.029  0.00  0.00    -0.205 F 
ATOM     25  F   UNL     1       6.392   0.423   5.397  0.00  0.00    -0.205 F 
ENDBRANCH  17  18
ENDBRANCH   1  17
BRANCH   1  26
ATOM     26  C   UNL     1       4.193  -6.198   8.677  0.00  0.00    -0.044 C 
BRANCH  26  27
ATOM     27  C   UNL     1       5.240  -6.448   9.765  0.00  0.00    +0.124 C 
BRANCH  27  28
ATOM     28  O   UNL     1       6.537  -6.522   9.169  0.00  0.00    -0.391 OA
ATOM     29  H   UNL     1       6.630  -7.229   8.516  0.00  0.00    +0.210 HD
ENDBRANCH  27  28
BRANCH  27  30
ATOM     30  C   UNL     1       4.929  -7.766  10.477  0.00  0.00    +0.189 C 
BRANCH  30  31
ATOM     31  O   UNL     1       5.836  -7.943  11.567  0.00  0.00    -0.373 OA
BRANCH  31  32
ATOM     32  C   UNL     1       5.631  -9.151  12.303  0.00  0.00    +0.195 C 
BRANCH  32  33
ATOM     33  C   UNL     1       6.636  -9.233  13.423  0.00  0.00    -0.022 A 
ATOM     34  C   UNL     1       7.861  -9.838  13.209  0.00  0.00    +0.006 A 
ATOM     35  C   UNL     1       8.783  -9.914  14.236  0.00  0.00    +0.000 A 
ATOM     36  C   UNL     1       8.481  -9.385  15.477  0.00  0.00    +0.000 A 
ATOM     37  C   UNL     1       7.256  -8.779  15.691  0.00  0.00    +0.000 A 
ATOM     38  C   UNL     1       6.336  -8.700  14.662  0.00  0.00    +0.006 A 
ENDBRANCH  32  33
ENDBRANCH  31  32
ENDBRANCH  30  31
ENDBRANCH  27  30
ENDBRANCH  26  27
ENDBRANCH   1  26
TORSDOF 13
