REMARK  Name = ZINC36245366
REMARK  9 active torsions:
REMARK  status: ('A' for Active; 'I' for Inactive)
REMARK    1  A    between atoms: C_1  and  O_2
REMARK    2  A    between atoms: O_2  and  C_3
REMARK    3  A    between atoms: C_5  and  C_17
REMARK    4  A    between atoms: C_8  and  O_9
REMARK    5  A    between atoms: O_9  and  C_10
REMARK    6  A    between atoms: C_10  and  C_11
REMARK    7  A    between atoms: C_17  and  C_19
REMARK    8  A    between atoms: C_17  and  N_30
REMARK    9  A    between atoms: C_28  and  O_29
REMARK                            x       y       z     vdW  Elec       q    Type
REMARK                         _______ _______ _______ _____ _____    ______ ____
ROOT
ATOM      1  C   UNL     1       2.400   0.380  -4.230  0.00  0.00    +0.136 C 
ENDROOT
BRANCH   1   2
ATOM      2  C   UNL     1       3.873   0.496  -3.933  0.00  0.00    +0.021 A 
ATOM      3  C   UNL     1       4.781  -0.266  -4.663  0.00  0.00    +0.010 A 
ATOM      4  C   UNL     1       6.119  -0.184  -4.419  0.00  0.00    +0.010 A 
ATOM      5  C   UNL     1       6.592   0.679  -3.418  0.00  0.00    +0.004 A 
ATOM      6  C   UNL     1       7.968   0.791  -3.137  0.00  0.00    +0.011 A 
ATOM      7  C   UNL     1       8.356   1.651  -2.150  0.00  0.00    +0.020 A 
ATOM      8  C   UNL     1       7.399   2.386  -1.452  0.00  0.00    +0.111 A 
ATOM      9  N   UNL     1       6.120   2.279  -1.717  0.00  0.00    -0.251 NA
ATOM     10  C   UNL     1       5.674   1.456  -2.671  0.00  0.00    +0.113 A 
ATOM     11  C   UNL     1       4.296   1.350  -2.955  0.00  0.00    +0.148 A 
BRANCH  11  12
ATOM     12  O   UNL     1       3.396   2.089  -2.256  0.00  0.00    -0.504 OA
ATOM     13  H   UNL     1       3.066   1.654  -1.458  0.00  0.00    +0.292 HD
ENDBRANCH  11  12
ENDBRANCH   1   2
BRANCH   1  14
ATOM     14  N   UNL     1       2.214  -0.056  -5.616  0.00  0.00    -0.320 N 
ATOM     15  C   UNL     1       2.254   0.875  -6.648  0.00  0.00    +0.097 A 
ATOM     16  C   UNL     1       2.375   2.229  -6.351  0.00  0.00    +0.041 A 
ATOM     17  C   UNL     1       2.414   3.143  -7.388  0.00  0.00    +0.005 A 
ATOM     18  C   UNL     1       2.330   2.672  -8.692  0.00  0.00    +0.018 A 
ATOM     19  C   UNL     1       2.212   1.315  -8.913  0.00  0.00    +0.084 A 
ATOM     20  N   UNL     1       2.183   0.464  -7.905  0.00  0.00    -0.350 N 
ATOM     21  H   UNL     1       2.063  -0.993  -5.814  0.00  0.00    +0.148 HD
ATOM     22  H   UNL     1       2.103  -0.485  -8.089  0.00  0.00    +0.166 HD
ENDBRANCH   1  14
BRANCH   1  25
ATOM     23  C   UNL     1       0.400  -1.129  -1.402  0.00  0.00    +0.162 A 
ATOM     24  C   UNL     1       0.973  -0.203  -2.258  0.00  0.00    +0.055 A 
ATOM     25  C   UNL     1       1.777  -0.629  -3.299  0.00  0.00    -0.019 A 
ATOM     26  C   UNL     1       2.012  -1.978  -3.488  0.00  0.00    +0.009 A 
ATOM     27  C   UNL     1       1.443  -2.907  -2.637  0.00  0.00    +0.050 A 
ATOM     28  C   UNL     1       0.640  -2.486  -1.588  0.00  0.00    +0.162 A 
BRANCH  23  30
ATOM     29  C   UNL     1      -0.594   0.698  -0.247  0.00  0.00    +0.277 C 
ATOM     30  O   UNL     1      -0.391  -0.711  -0.377  0.00  0.00    -0.491 OA
ENDBRANCH  23  30
BRANCH  28  31
ATOM     31  O   UNL     1       0.085  -3.399  -0.746  0.00  0.00    -0.484 OA
BRANCH  31  32
ATOM     32  C   UNL     1       0.375  -4.775  -0.998  0.00  0.00    +0.264 C 
BRANCH  32  33
ATOM     33  C   UNL     1      -0.322  -5.631   0.028  0.00  0.00    -0.010 A 
ATOM     34  C   UNL     1       0.317  -5.947   1.212  0.00  0.00    +0.007 A 
ATOM     35  C   UNL     1      -0.322  -6.733   2.154  0.00  0.00    +0.000 A 
ATOM     36  C   UNL     1      -1.600  -7.202   1.910  0.00  0.00    +0.000 A 
ATOM     37  C   UNL     1      -2.238  -6.885   0.725  0.00  0.00    +0.000 A 
ATOM     38  C   UNL     1      -1.601  -6.096  -0.214  0.00  0.00    +0.007 A 
ENDBRANCH  32  33
ENDBRANCH  31  32
ENDBRANCH  28  31
ENDBRANCH   1  25
TORSDOF 8
