REMARK  Name = ZINC60217905
REMARK  8 active torsions:
REMARK  status: ('A' for Active; 'I' for Inactive)
REMARK    1  A    between atoms: C_3  and  N_31
REMARK    2  A    between atoms: C_6  and  C_7
REMARK    3  A    between atoms: C_7  and  C_9
REMARK    4  A    between atoms: C_7  and  O_30
REMARK    5  A    between atoms: C_9  and  C_11
REMARK    6  A    between atoms: C_9  and  N_13
REMARK    7  A    between atoms: C_11  and  O_12
REMARK    8  A    between atoms: C_21  and  C_23
REMARK                            x       y       z     vdW  Elec       q    Type
REMARK                         _______ _______ _______ _____ _____    ______ ____
ROOT
ATOM      1  N   UNK A   1      -0.404  -1.924   1.977  0.00  0.00    -0.321 N 
ATOM      2  C   UNK A   0      -0.265  -2.078   3.345  0.00  0.00    +0.131 A 
ATOM      3  C   UNK A   0       0.831  -2.810   3.881  0.00  0.00    +0.051 A 
ATOM      4  C   UNK A   0       1.920  -3.482   3.169  0.00  0.00    -0.025 A 
ATOM      5  C   UNK A   0       2.844  -4.113   3.921  0.00  0.00    -0.004 A 
ATOM      6  S   UNK A   0       2.331  -3.855   5.598  0.00  0.00    -0.073 S 
ATOM      7  C   UNK A   0       0.870  -2.899   5.286  0.00  0.00    +0.114 A 
ATOM      8  N   UNK A   0      -0.056  -2.337   6.039  0.00  0.00    -0.224 NA
ATOM      9  C   UNK A   0      -1.050  -1.671   5.484  0.00  0.00    +0.135 A 
ATOM     10  N   UNK A   0      -1.146  -1.541   4.173  0.00  0.00    -0.217 NA
ATOM     11  C   UNK A   0       4.045  -4.869   3.439  0.00  0.00    +0.043 C 
ATOM     12  C   UNK A   0       3.875  -5.142   1.937  0.00  0.00    +0.005 C 
ATOM     13  C   UNK A   0       3.454  -3.841   1.247  0.00  0.00    +0.005 C 
ATOM     14  C   UNK A   0       2.022  -3.481   1.646  0.00  0.00    +0.037 C 
ATOM     15  H   UNK A   1       0.237  -2.335   1.376  0.00  0.00    +0.148 HD
ENDROOT
BRANCH   9  16
ATOM     16  C   UNK A   0      -2.096  -1.038   6.366  0.00  0.00    +0.057 C 
ATOM     17  C   UNK A   0      -1.838  -1.031   7.874  0.00  0.00    +0.012 C 
ATOM     18  C   UNK A   0      -2.900  -1.961   7.283  0.00  0.00    +0.012 C 
ENDBRANCH   9  16
BRANCH   1  19
ATOM     19  C   UNK A   1      -1.519  -1.142   1.438  0.00  0.00    +0.130 C 
BRANCH  19  20
ATOM     20  C   UNK A   1      -0.999  -0.193   0.356  0.00  0.00    +0.167 C 
BRANCH  20  26
ATOM     21  C   UNK A   1      -0.439   2.002   1.423  0.00  0.00    +0.008 A 
ATOM     22  C   UNK A   1       0.467   2.884   1.981  0.00  0.00    +0.033 A 
ATOM     23  C   UNK A   1       1.800   2.534   2.081  0.00  0.00    +0.126 A 
ATOM     24  C   UNK A   1       2.228   1.302   1.623  0.00  0.00    +0.033 A 
ATOM     25  C   UNK A   1       1.322   0.419   1.066  0.00  0.00    +0.008 A 
ATOM     26  C   UNK A   1      -0.011   0.769   0.965  0.00  0.00    -0.017 A 
BRANCH  23  27
ATOM     27  N   UNK A   1       2.771   3.479   2.678  0.00  0.00    +0.056 N 
ATOM     28  O   UNK A   1       2.397   4.557   3.078  0.00  0.00    -0.126 OA
ATOM     29  O   UNK A   1       3.937   3.174   2.765  0.00  0.00    -0.126 OA
ENDBRANCH  23  27
ENDBRANCH  20  26
BRANCH  20  30
ATOM     30  O   UNK A   1      -0.356  -0.948  -0.672  0.00  0.00    -0.385 OA
ATOM     31  H   UNK A   1       0.398  -1.470  -0.364  0.00  0.00    +0.210 HD
ENDBRANCH  20  30
ENDBRANCH  19  20
BRANCH  19  32
ATOM     32  C   UNK A   1      -2.558  -2.087   0.830  0.00  0.00    +0.181 C 
BRANCH  32  33
ATOM     33  O   UNK A   1      -1.989  -2.761  -0.294  0.00  0.00    -0.393 OA
ATOM     34  H   UNK A   1      -2.594  -3.377  -0.730  0.00  0.00    +0.209 HD
ENDBRANCH  32  33
ENDBRANCH  19  32
ENDBRANCH   1  19
TORSDOF 8
