REMARK  Name = ZINC39884082
REMARK  4 active torsions:
REMARK  status: ('A' for Active; 'I' for Inactive)
REMARK    1  A    between atoms: C_4  and  C_7
REMARK    2  A    between atoms: N_11  and  C_15
REMARK    3  A    between atoms: C_15  and  C_16
REMARK    4  A    between atoms: N_18  and  C_19
REMARK                            x       y       z     vdW  Elec       q    Type
REMARK                         _______ _______ _______ _____ _____    ______ ____
ROOT
ATOM      1  C   UNL     1       3.729  -0.707  -0.037  0.00  0.00    +0.072 C 
ATOM      2  C   UNL     1       3.798  -1.573  -1.264  0.00  0.00    +0.033 A 
ATOM      3  C   UNL     1       4.288  -2.824  -1.406  0.00  0.00    +0.091 A 
ATOM      4  N   UNL     1       4.184  -3.348  -2.670  0.00  0.00    -0.288 N 
ATOM      5  C   UNL     1       3.640  -2.615  -3.660  0.00  0.00    +0.292 A 
ATOM      6  O   UNL     1       3.477  -2.924  -4.827  0.00  0.00    -0.259 OA
ATOM      7  S   UNL     1       3.238  -1.171  -2.898  0.00  0.00    -0.030 S 
ATOM      8  S   UNL     1       5.022  -3.689  -0.025  0.00  0.00    -0.093 S 
ATOM      9  C   UNL     1       5.219  -2.318   1.142  0.00  0.00    +0.152 C 
ATOM     10  C   UNL     1       3.842  -1.588   1.182  0.00  0.00    +0.110 C 
ATOM     11  C   UNL     1       3.902  -0.956   2.537  0.00  0.00    +0.235 C 
ATOM     12  O   UNL     1       3.378   0.076   2.881  0.00  0.00    -0.274 OA
ATOM     13  N   UNL     1       4.667  -1.779   3.302  0.00  0.00    -0.162 N 
ATOM     14  C   UNL     1       5.356  -2.732   2.582  0.00  0.00    +0.244 C 
ATOM     15  O   UNL     1       5.943  -3.699   3.006  0.00  0.00    -0.273 OA
ATOM     16  C   UNL     1       4.755  -1.669   4.643  0.00  0.00    +0.313 C 
ATOM     17  O   UNL     1       4.132  -0.802   5.223  0.00  0.00    -0.252 OA
ATOM     18  N   UNL     1       5.533  -2.521   5.339  0.00  0.00    -0.313 N 
ATOM     19  H   UNL     1       6.030  -3.213   4.875  0.00  0.00    +0.147 HD
ATOM     20  H   UNL     1       5.596  -2.442   6.304  0.00  0.00    +0.147 HD
ENDROOT
BRANCH   1  24
ATOM     21  C   UNL     1       0.000   1.376   0.038  0.00  0.00    +0.000 A 
ATOM     22  C   UNL     1       1.187   2.084   0.021  0.00  0.00    +0.000 A 
ATOM     23  C   UNL     1       2.394   1.410  -0.003  0.00  0.00    +0.004 A 
ATOM     24  C   UNL     1       2.413   0.028  -0.010  0.00  0.00    -0.039 A 
ATOM     25  C   UNL     1       1.226  -0.680   0.007  0.00  0.00    +0.004 A 
ATOM     26  C   UNL     1       0.019  -0.006   0.030  0.00  0.00    +0.000 A 
ENDBRANCH   1  24
BRANCH   4  27
ATOM     27  C   UNL     1       4.667  -4.704  -2.942  0.00  0.00    +0.222 C 
BRANCH  27  28
ATOM     28  C   UNL     1       3.549  -5.690  -2.715  0.00  0.00    +0.237 C 
ATOM     29  O   UNL     1       2.458  -5.298  -2.360  0.00  0.00    -0.274 OA
ATOM     30  N   UNL     1       3.763  -7.007  -2.906  0.00  0.00    -0.284 N 
ATOM     31  H   UNL     1       4.615  -7.314  -3.254  0.00  0.00    +0.155 HD
BRANCH  30  32
ATOM     32  C   UNL     1       2.756  -7.931  -2.602  0.00  0.00    +0.034 A 
ATOM     33  C   UNL     1       3.088  -9.176  -2.086  0.00  0.00    +0.026 A 
ATOM     34  C   UNL     1       2.093 -10.086  -1.787  0.00  0.00    +0.040 A 
ATOM     35  C   UNL     1       0.765  -9.758  -2.002  0.00  0.00    +0.124 A 
ATOM     36  C   UNL     1       0.432  -8.516  -2.517  0.00  0.00    +0.040 A 
ATOM     37  C   UNL     1       1.423  -7.601  -2.811  0.00  0.00    +0.026 A 
ATOM     38  F   UNL     1      -0.207 -10.650  -1.710  0.00  0.00    -0.205 F 
ENDBRANCH  30  32
ENDBRANCH  27  28
ENDBRANCH   4  27
TORSDOF 4
