REMARK  Name = ZINC44021729
REMARK  6 active torsions:
REMARK  status: ('A' for Active; 'I' for Inactive)
REMARK    1  A    between atoms: C_1  and  C_2
REMARK    2  A    between atoms: N_11  and  C_12
REMARK    3  A    between atoms: N_16  and  C_21
REMARK    4  A    between atoms: C_21  and  C_22
REMARK    5  A    between atoms: C_22  and  C_23
REMARK    6  A    between atoms: C_22  and  C_24
REMARK                            x       y       z     vdW  Elec       q    Type
REMARK                         _______ _______ _______ _____ _____    ______ ____
ROOT
ATOM      1  C   UNL     1       2.094  -0.168   1.361  0.00  0.00    +0.112 A 
ATOM      2  C   UNL     1       2.748   0.712   0.544  0.00  0.00    +0.112 A 
ATOM      3  C   UNL     1       4.097   1.004   0.797  0.00  0.00    +0.258 A 
ATOM      4  O   UNL     1       4.700   1.786   0.082  0.00  0.00    -0.267 OA
ATOM      5  N   UNL     1       4.722   0.413   1.835  0.00  0.00    -0.261 N 
ATOM      6  C   UNL     1       4.064  -0.451   2.628  0.00  0.00    +0.331 A 
ATOM      7  O   UNL     1       4.647  -0.972   3.559  0.00  0.00    -0.246 OA
ATOM      8  N   UNL     1       2.769  -0.743   2.411  0.00  0.00    -0.295 N 
ATOM      9  H   UNL     1       2.309  -1.365   2.996  0.00  0.00    +0.172 HD
ENDROOT
BRANCH   1  19
ATOM     10  C   UNL     1      -0.387   1.650   1.581  0.00  0.00    +0.029 C 
ATOM     11  C   UNL     1      -0.228   0.468   0.624  0.00  0.00    +0.082 C 
ATOM     12  C   UNL     1      -1.536  -0.337   0.547  0.00  0.00    +0.059 C 
ATOM     13  C   UNL     1      -1.163  -1.717   1.041  0.00  0.00    -0.024 A 
ATOM     14  C   UNL     1      -1.923  -2.860   1.196  0.00  0.00    +0.005 A 
ATOM     15  C   UNL     1      -1.343  -4.020   1.676  0.00  0.00    +0.000 A 
ATOM     16  C   UNL     1       0.001  -4.033   2.001  0.00  0.00    +0.002 A 
ATOM     17  C   UNL     1       0.764  -2.895   1.848  0.00  0.00    +0.024 A 
ATOM     18  C   UNL     1       0.185  -1.720   1.364  0.00  0.00    +0.039 A 
ATOM     19  N   UNL     1       0.774  -0.471   1.137  0.00  0.00    -0.283 N 
ENDBRANCH   1  19
BRANCH   5  20
ATOM     20  C   UNL     1       6.131   0.715   2.101  0.00  0.00    +0.133 C 
BRANCH  20  21
ATOM     21  C   UNL     1       6.226   1.910   3.051  0.00  0.00    +0.003 C 
ATOM     22  C   UNL     1       5.630   1.531   4.409  0.00  0.00    +0.009 C 
ATOM     23  C   UNL     1       7.694   2.304   3.231  0.00  0.00    +0.009 C 
ENDBRANCH  20  21
ENDBRANCH   5  20
TORSDOF 3
