REMARK  Name = ZINC15038209
REMARK  7 active torsions:
REMARK  status: ('A' for Active; 'I' for Inactive)
REMARK    1  A    between atoms: C_3  and  C_6
REMARK    2  A    between atoms: N_10  and  C_14
REMARK    3  A    between atoms: C_14  and  C_15
REMARK    4  A    between atoms: C_15  and  C_16
REMARK    5  A    between atoms: N_18  and  C_19
REMARK    6  A    between atoms: C_22  and  S_25
REMARK    7  A    between atoms: S_25  and  N_28
REMARK                            x       y       z     vdW  Elec       q    Type
REMARK                         _______ _______ _______ _____ _____    ______ ____
ROOT
ATOM      1  C   UNL     1       5.682   0.354  -1.493  0.00  0.00    +0.219 C 
ATOM      2  O   UNL     1       6.294   0.278  -0.449  0.00  0.00    -0.275 OA
ATOM      3  N   UNL     1       6.339   0.271  -2.667  0.00  0.00    -0.285 N 
ATOM      4  H   UNL     1       5.843   0.265  -3.501  0.00  0.00    +0.155 HD
ENDROOT
BRANCH   3   5
ATOM      5  C   UNL     1       7.736   0.194  -2.683  0.00  0.00    +0.033 A 
ATOM      6  C   UNL     1       8.455   0.801  -3.704  0.00  0.00    +0.025 A 
ATOM      7  C   UNL     1       9.834   0.727  -3.715  0.00  0.00    +0.030 A 
ATOM      8  C   UNL     1      10.498   0.041  -2.715  0.00  0.00    +0.105 A 
ATOM      9  C   UNL     1       9.785  -0.569  -1.699  0.00  0.00    +0.030 A 
ATOM     10  C   UNL     1       8.406  -0.495  -1.681  0.00  0.00    +0.025 A 
BRANCH   8  11
ATOM     11  S   UNL     1      12.258  -0.057  -2.735  0.00  0.00    +0.056 S 
ATOM     12  O   UNL     1      12.717   1.057  -3.489  0.00  0.00    -0.153 OA
ATOM     13  O   UNL     1      12.667  -0.290  -1.395  0.00  0.00    -0.153 OA
BRANCH  11  14
ATOM     14  N   UNL     1      12.663  -1.411  -3.597  0.00  0.00    -0.204 NA
ATOM     15  H   UNL     1      13.495  -1.439  -4.095  0.00  0.00    +0.144 HD
ATOM     16  H   UNL     1      12.068  -2.177  -3.605  0.00  0.00    +0.144 HD
ENDBRANCH  11  14
ENDBRANCH   8  11
ENDBRANCH   3   5
BRANCH   1  17
ATOM     17  C   UNL     1       4.187   0.542  -1.478  0.00  0.00    +0.115 C 
BRANCH  17  18
ATOM     18  C   UNL     1       3.695   0.605  -0.030  0.00  0.00    +0.124 C 
BRANCH  18  23
ATOM     19  C   UNL     1      -1.029  -0.917   0.016  0.00  0.00    +0.066 C 
ATOM     20  C   UNL     1       0.005  -0.028   0.006  0.00  0.00    +0.080 C 
ATOM     21  C   UNL     1       1.456  -0.276  -0.008  0.00  0.00    +0.258 C 
ATOM     22  O   UNL     1       1.911  -1.406  -0.014  0.00  0.00    -0.269 OA
ATOM     23  N   UNL     1       2.242   0.788  -0.015  0.00  0.00    -0.255 N 
ATOM     24  C   UNL     1       1.734   2.037  -0.010  0.00  0.00    +0.121 C 
ATOM     25  S   UNL     1       2.576   3.528  -0.018  0.00  0.00    -0.027 S 
ATOM     26  S   UNL     1      -0.029   1.759   0.008  0.00  0.00    -0.061 S 
BRANCH  19  29
ATOM     27  C   UNL     1      -4.592  -0.352   0.052  0.00  0.00    +0.042 A 
ATOM     28  C   UNL     1      -3.500  -1.233   0.035  0.00  0.00    +0.049 A 
ATOM     29  C   UNL     1      -2.363  -0.450   0.030  0.00  0.00    +0.129 A 
ATOM     30  O   UNL     1      -2.753   0.842   0.034  0.00  0.00    -0.463 OA
ATOM     31  C   UNL     1      -4.093   0.904   0.048  0.00  0.00    +0.195 A 
ENDBRANCH  19  29
ENDBRANCH  18  23
ENDBRANCH  17  18
ENDBRANCH   1  17
TORSDOF 7
