REMARK  Name = ZINC06859815
REMARK  7 active torsions:
REMARK  status: ('A' for Active; 'I' for Inactive)
REMARK    1  A    between atoms: C_1  and  C_2
REMARK    2  A    between atoms: C_4  and  C_24
REMARK    3  A    between atoms: C_5  and  N_9
REMARK    4  A    between atoms: C_6  and  C_8
REMARK    5  A    between atoms: N_9  and  S_10
REMARK    6  A    between atoms: S_10  and  C_13
REMARK    7  A    between atoms: C_14  and  C_23
REMARK                            x       y       z     vdW  Elec       q    Type
REMARK                         _______ _______ _______ _____ _____    ______ ____
ROOT
ATOM      1  S   UNL     1       5.663   0.297  -0.004  0.00  0.00    +0.079 S 
ATOM      2  O   UNL     1       6.693  -0.670   0.149  0.00  0.00    -0.150 OA
ATOM      3  O   UNL     1       5.704   1.301  -1.008  0.00  0.00    -0.150 OA
ENDROOT
BRANCH   1   4
ATOM      4  C   UNL     1       5.526   1.134   1.541  0.00  0.00    +0.194 A 
ATOM      5  C   UNL     1       5.934   0.514   2.703  0.00  0.00    +0.073 A 
ATOM      6  N   UNL     1       5.824   1.172   3.854  0.00  0.00    -0.226 NA
ATOM      7  C   UNL     1       5.328   2.384   3.895  0.00  0.00    +0.180 A 
ATOM      8  N   UNL     1       4.894   3.070   2.793  0.00  0.00    -0.260 N 
ATOM      9  C   UNL     1       4.999   2.425   1.593  0.00  0.00    +0.286 A 
ATOM     10  O   UNL     1       4.631   2.977   0.568  0.00  0.00    -0.265 OA
ATOM     11  C   UNL     1       4.400   4.335   3.005  0.00  0.00    +0.104 A 
ATOM     12  C   UNL     1       4.349   4.857   4.231  0.00  0.00    +0.067 A 
ATOM     13  S   UNL     1       5.030   3.535   5.220  0.00  0.00    -0.058 S 
ATOM     14  C   UNL     1       6.501  -0.882   2.668  0.00  0.00    +0.068 C 
ENDBRANCH   1   4
BRANCH   1  15
ATOM     15  N   UNL     1       4.254  -0.544  -0.231  0.00  0.00    -0.216 N 
ATOM     16  H   UNL     1       4.268  -1.513  -0.263  0.00  0.00    +0.174 HD
BRANCH  15  21
ATOM     17  C   UNL     1      -0.645   2.250  -0.825  0.00  0.00    +0.044 C 
ATOM     18  C   UNL     1       0.655   1.504  -0.669  0.00  0.00    -0.050 A 
ATOM     19  C   UNL     1       0.881   0.738   0.460  0.00  0.00    +0.008 A 
ATOM     20  C   UNL     1       2.073   0.058   0.609  0.00  0.00    -0.028 A 
ATOM     21  C   UNL     1       3.047   0.143  -0.378  0.00  0.00    +0.054 A 
ATOM     22  C   UNL     1       2.818   0.913  -1.511  0.00  0.00    -0.028 A 
ATOM     23  C   UNL     1       1.623   1.591  -1.654  0.00  0.00    +0.008 A 
ATOM     24  C   UNL     1       3.871   1.008  -2.585  0.00  0.00    +0.046 C 
ATOM     25  C   UNL     1       2.318  -0.776   1.840  0.00  0.00    +0.046 C 
ENDBRANCH  15  21
ENDBRANCH   1  15
TORSDOF 3
