REMARK  Name = ZINC37138260
REMARK  6 active torsions:
REMARK  status: ('A' for Active; 'I' for Inactive)
REMARK    1  A    between atoms: C_4  and  N_11
REMARK    2  A    between atoms: C_6  and  S_7
REMARK    3  A    between atoms: S_7  and  N_10
REMARK    4  A    between atoms: N_11  and  C_12
REMARK    5  A    between atoms: C_12  and  C_13
REMARK    6  A    between atoms: C_18  and  O_19
REMARK                            x       y       z     vdW  Elec       q    Type
REMARK                         _______ _______ _______ _____ _____    ______ ____
ROOT
ATOM      1  C   UNL     1      -0.017   1.378   0.010  0.00  0.00    +0.030 A 
ATOM      2  C   UNL     1       1.170   2.089   0.002  0.00  0.00    +0.024 A 
ATOM      3  C   UNL     1       2.378   1.419  -0.013  0.00  0.00    +0.062 A 
ATOM      4  C   UNL     1       2.400   0.029  -0.021  0.00  0.00    +0.048 A 
ATOM      5  C   UNL     1       1.207  -0.680  -0.013  0.00  0.00    +0.053 A 
ATOM      6  C   UNL     1       0.002  -0.004   0.002  0.00  0.00    +0.107 A 
ATOM      7 CL   UNL     1       3.867   2.312  -0.023  0.00  0.00    -0.082 Cl
ENDROOT
BRANCH   6   8
ATOM      8  S   UNL     1      -1.512  -0.904   0.012  0.00  0.00    +0.056 S 
ATOM      9  O   UNL     1      -1.220  -2.185   0.553  0.00  0.00    -0.153 OA
ATOM     10  O   UNL     1      -2.492  -0.045   0.577  0.00  0.00    -0.153 OA
BRANCH   8  11
ATOM     11  N   UNL     1      -1.949  -1.146  -1.567  0.00  0.00    -0.204 NA
ATOM     12  H   UNL     1      -1.389  -0.806  -2.282  0.00  0.00    +0.144 HD
ATOM     13  H   UNL     1      -2.764  -1.628  -1.776  0.00  0.00    +0.144 HD
ENDBRANCH   8  11
ENDBRANCH   6   8
BRANCH   4  14
ATOM     14  N   UNL     1       3.620  -0.652  -0.036  0.00  0.00    -0.338 N 
ATOM     15  H   UNL     1       4.453  -0.155  -0.042  0.00  0.00    +0.146 HD
BRANCH  14  16
ATOM     16  C   UNL     1       3.641  -2.117  -0.044  0.00  0.00    +0.140 C 
BRANCH  16  17
ATOM     17  C   UNL     1       5.069  -2.599  -0.061  0.00  0.00    +0.012 A 
ATOM     18  C   UNL     1       5.647  -3.005  -1.248  0.00  0.00    +0.028 A 
ATOM     19  C   UNL     1       6.958  -3.447  -1.264  0.00  0.00    +0.042 A 
ATOM     20  C   UNL     1       7.692  -3.484  -0.091  0.00  0.00    +0.023 A 
ATOM     21  C   UNL     1       7.117  -3.079   1.097  0.00  0.00    +0.047 A 
ATOM     22  C   UNL     1       5.805  -2.629   1.114  0.00  0.00    +0.122 A 
ATOM     23 CL   UNL     1       7.683  -3.958  -2.757  0.00  0.00    -0.084 Cl
BRANCH  22  24
ATOM     24  O   UNL     1       5.239  -2.224   2.282  0.00  0.00    -0.506 OA
ATOM     25  H   UNL     1       4.798  -2.932   2.772  0.00  0.00    +0.292 HD
ENDBRANCH  22  24
ENDBRANCH  16  17
ENDBRANCH  14  16
ENDBRANCH   4  14
TORSDOF 6
