REMARK  Name = ZINC36386415
REMARK  5 active torsions:
REMARK  status: ('A' for Active; 'I' for Inactive)
REMARK    1  A    between atoms: C_1  and  C_2
REMARK    2  A    between atoms: C_2  and  C_30
REMARK    3  A    between atoms: C_4  and  N_5
REMARK    4  A    between atoms: N_5  and  C_6
REMARK    5  A    between atoms: C_14  and  C_17
REMARK                            x       y       z     vdW  Elec       q    Type
REMARK                         _______ _______ _______ _____ _____    ______ ____
ROOT
ATOM      1  C   UNL     1      -2.469  -4.149  -0.508  0.00  0.00    +0.115 C 
ATOM      2  C   UNL     1      -3.462  -4.772  -1.145  0.00  0.00    +0.038 C 
ATOM      3  C   UNL     1      -3.522  -6.276  -1.216  0.00  0.00    +0.189 C 
ATOM      4  C   UNL     1      -2.692  -6.886  -0.086  0.00  0.00    +0.235 C 
ATOM      5  C   UNL     1      -2.549  -8.392  -0.294  0.00  0.00    +0.211 C 
ATOM      6  O   UNL     1      -2.063  -8.646  -1.615  0.00  0.00    -0.343 OA
ATOM      7  C   UNL     1      -2.900  -8.105  -2.642  0.00  0.00    +0.283 C 
ATOM      8  O   UNL     1      -2.998  -6.700  -2.478  0.00  0.00    -0.336 OA
ATOM      9  O   UNL     1      -1.395  -6.279  -0.072  0.00  0.00    -0.452 OA
ATOM     10  C   UNL     1      -1.404  -4.940   0.145  0.00  0.00    +0.354 C 
ATOM     11  O   UNL     1      -0.572  -4.412   0.857  0.00  0.00    -0.244 OA
ENDROOT
BRANCH   7  12
ATOM     12  C   UNL     1      -2.310  -8.421  -3.992  0.00  0.00    +0.008 A 
ATOM     13  C   UNL     1      -1.951  -7.396  -4.846  0.00  0.00    +0.008 A 
ATOM     14  C   UNL     1      -1.410  -7.686  -6.085  0.00  0.00    +0.000 A 
ATOM     15  C   UNL     1      -1.228  -9.001  -6.469  0.00  0.00    +0.000 A 
ATOM     16  C   UNL     1      -1.586 -10.027  -5.614  0.00  0.00    +0.000 A 
ATOM     17  C   UNL     1      -2.123  -9.737  -4.373  0.00  0.00    +0.008 A 
ENDBRANCH   7  12
BRANCH   1  18
ATOM     18  N   UNL     1      -2.432  -2.750  -0.465  0.00  0.00    -0.312 N 
ATOM     19  H   UNL     1      -3.164  -2.258  -0.061  0.00  0.00    +0.152 HD
BRANCH  18  23
ATOM     20  C   UNL     1      -0.371   1.525  -1.810  0.00  0.00    +0.011 C 
ATOM     21  C   UNL     1      -0.524   0.016  -2.011  0.00  0.00    -0.023 C 
ATOM     22  C   UNL     1      -1.279  -0.586  -0.823  0.00  0.00    +0.057 C 
ATOM     23  C   UNL     1      -1.367  -2.080  -0.989  0.00  0.00    +0.012 C 
ATOM     24  C   UNL     1      -0.410  -2.768  -1.650  0.00  0.00    +0.065 C 
ATOM     25  C   UNL     1       0.699  -2.127  -2.212  0.00  0.00    +0.158 C 
ATOM     26  O   UNL     1       1.539  -2.782  -2.797  0.00  0.00    -0.293 OA
ATOM     27  C   UNL     1       0.861  -0.634  -2.098  0.00  0.00    +0.085 C 
ATOM     28  C   UNL     1      -1.298  -0.254  -3.303  0.00  0.00    +0.011 C 
ENDBRANCH  18  23
ENDBRANCH   1  18
TORSDOF 3
