REMARK  Name = ZINC37745258
REMARK  7 active torsions:
REMARK  status: ('A' for Active; 'I' for Inactive)
REMARK    1  A    between atoms: C_1  and  C_2
REMARK    2  A    between atoms: C_5  and  C_18
REMARK    3  A    between atoms: C_7  and  N_8
REMARK    4  A    between atoms: N_8  and  S_9
REMARK    5  A    between atoms: S_9  and  C_12
REMARK    6  A    between atoms: C_19  and  C_20
REMARK    7  A    between atoms: C_20  and  O_21
REMARK                            x       y       z     vdW  Elec       q    Type
REMARK                         _______ _______ _______ _____ _____    ______ ____
ROOT
ATOM      1  C   UNL     1       0.163   1.693   0.145  0.00  0.00    +0.046 C 
ATOM      2  C   UNL     1       0.265   0.194   0.022  0.00  0.00    -0.028 A 
ATOM      3  C   UNL     1       0.437  -0.385  -1.220  0.00  0.00    +0.006 A 
ATOM      4  C   UNL     1       0.532  -1.757  -1.340  0.00  0.00    +0.017 A 
ATOM      5  C   UNL     1       0.454  -2.564  -0.204  0.00  0.00    +0.027 A 
ATOM      6  C   UNL     1       0.281  -1.980   1.050  0.00  0.00    +0.041 A 
ATOM      7  C   UNL     1       0.193  -0.600   1.161  0.00  0.00    +0.052 A 
ENDROOT
BRANCH   7   8
ATOM      8  N   UNL     1       0.025  -0.009   2.415  0.00  0.00    -0.216 N 
ATOM      9  H   UNL     1      -0.521   0.787   2.507  0.00  0.00    +0.174 HD
BRANCH   8  10
ATOM     10  S   UNL     1       0.758  -0.669   3.746  0.00  0.00    +0.075 S 
ATOM     11  O   UNL     1       0.514   0.221   4.827  0.00  0.00    -0.150 OA
ATOM     12  O   UNL     1       0.376  -2.037   3.784  0.00  0.00    -0.150 OA
BRANCH  10  13
ATOM     13  C   UNL     1       2.495  -0.639   3.452  0.00  0.00    +0.145 A 
ATOM     14  C   UNL     1       3.219  -1.615   2.856  0.00  0.00    +0.133 A 
ATOM     15  N   UNL     1       4.505  -1.211   2.821  0.00  0.00    -0.283 N 
ATOM     16  H   UNL     1       5.250  -1.709   2.450  0.00  0.00    +0.188 HD
ATOM     17  N   UNL     1       4.575   0.056   3.415  0.00  0.00    -0.180 NA
ATOM     18  C   UNL     1       3.369   0.400   3.787  0.00  0.00    +0.163 A 
ENDBRANCH  10  13
ENDBRANCH   8  10
ENDBRANCH   7   8
BRANCH   5  19
ATOM     19  C   UNL     1       0.551  -3.987  -0.326  0.00  0.00    -0.064 C 
ATOM     20  C   UNL     1       0.631  -5.154  -0.426  0.00  0.00    -0.069 C 
BRANCH  20  21
ATOM     21  C   UNL     1       0.731  -6.618  -0.551  0.00  0.00    +0.244 C 
BRANCH  21  22
ATOM     22  O   UNL     1       0.623  -7.215   0.743  0.00  0.00    -0.383 OA
ATOM     23  H   UNL     1       0.681  -8.180   0.737  0.00  0.00    +0.211 HD
ENDBRANCH  21  22
ENDBRANCH  20  21
ENDBRANCH   5  19
TORSDOF 6
