REMARK  Name = ZINC12570668
REMARK  12 active torsions:
REMARK  status: ('A' for Active; 'I' for Inactive)
REMARK    1  A    between atoms: C_1  and  C_2
REMARK    2  A    between atoms: C_2  and  O_3
REMARK    3  A    between atoms: O_3  and  C_4
REMARK    4  A    between atoms: C_4  and  C_6
REMARK    5  A    between atoms: C_6  and  C_7
REMARK    6  A    between atoms: C_7  and  C_8
REMARK    7  A    between atoms: N_10  and  C_11
REMARK    8  A    between atoms: C_11  and  N_13
REMARK    9  A    between atoms: N_13  and  N_14
REMARK   10  A    between atoms: C_15  and  C_17
REMARK   11  A    between atoms: C_17  and  O_18
REMARK   12  A    between atoms: O_18  and  C_19
REMARK                            x       y       z     vdW  Elec       q    Type
REMARK                         _______ _______ _______ _____ _____    ______ ____
ROOT
ATOM      1  N   UNL     1       5.212  -2.709  -0.062  0.00  0.00    -0.245 N 
ATOM      2  H   UNL     1       5.972  -2.107  -0.066  0.00  0.00    +0.172 HD
ENDROOT
BRANCH   1   3
ATOM      3  N   UNL     1       3.909  -2.193  -0.047  0.00  0.00    -0.232 N 
ATOM      4  C   UNL     1       3.713  -0.860  -0.038  0.00  0.00    +0.267 C 
ATOM      5  O   UNL     1       4.664  -0.107  -0.043  0.00  0.00    -0.271 OA
ATOM      6  H   UNL     1       3.149  -2.795  -0.043  0.00  0.00    +0.173 HD
BRANCH   4   7
ATOM      7  C   UNL     1       2.312  -0.304  -0.022  0.00  0.00    +0.326 C 
BRANCH   7   8
ATOM      8  O   UNL     1       2.366   1.124  -0.015  0.00  0.00    -0.482 OA
BRANCH   8   9
ATOM      9  C   UNL     1       1.179   1.786   0.000  0.00  0.00    +0.135 A 
ATOM     10  C   UNL     1      -0.013   1.076   0.008  0.00  0.00    +0.048 A 
ATOM     11  C   UNL     1      -1.218   1.751   0.017  0.00  0.00    +0.019 A 
ATOM     12  C   UNL     1      -1.238   3.134   0.030  0.00  0.00    +0.019 A 
ATOM     13  C   UNL     1      -0.051   3.845   0.022  0.00  0.00    +0.034 A 
ATOM     14  C   UNL     1       1.157   3.174   0.008  0.00  0.00    +0.061 A 
ATOM     15 BR   UNL     1       2.779   4.146  -0.003  0.00  0.00    -0.046 Br
ATOM     16 BR   UNL     1      -2.889   4.054   0.050  0.00  0.00    -0.050 Br
ENDBRANCH   8   9
ENDBRANCH   7   8
ENDBRANCH   4   7
ENDBRANCH   1   3
BRANCH   1  17
ATOM     17  C   UNL     1       5.408  -4.043  -0.071  0.00  0.00    +0.153 C 
ATOM     18  S   UNL     1       6.999  -4.673  -0.090  0.00  0.00    -0.017 S 
BRANCH  17  21
ATOM     19  C   UNL     1       4.548  -6.213  -0.075  0.00  0.00    +0.219 C 
ATOM     20  O   UNL     1       5.675  -6.659  -0.088  0.00  0.00    -0.275 OA
ATOM     21  N   UNL     1       4.351  -4.879  -0.066  0.00  0.00    -0.267 N 
ATOM     22  H   UNL     1       3.450  -4.522  -0.055  0.00  0.00    +0.157 HD
BRANCH  19  23
ATOM     23  C   UNL     1       3.366  -7.148  -0.068  0.00  0.00    +0.107 C 
BRANCH  23  24
ATOM     24  C   UNL     1       3.862  -8.596  -0.081  0.00  0.00    +0.130 C 
BRANCH  24  25
ATOM     25  C   UNL     1       2.680  -9.531  -0.074  0.00  0.00    +0.308 C 
ATOM     26  O   UNL     1       1.557  -9.086  -0.061  0.00  0.00    -0.251 OA
BRANCH  25  27
ATOM     27  O   UNL     1       2.876 -10.859  -0.084  0.00  0.00    -0.465 OA
BRANCH  27  29
ATOM     28  C   UNL     1       2.111 -13.171  -0.089  0.00  0.00    +0.048 C 
ATOM     29  C   UNL     1       1.692 -11.700  -0.077  0.00  0.00    +0.229 C 
ENDBRANCH  27  29
ENDBRANCH  25  27
ENDBRANCH  24  25
ENDBRANCH  23  24
ENDBRANCH  19  23
ENDBRANCH  17  21
ENDBRANCH   1  17
TORSDOF 11
