REMARK  Name = ZINC02873839
REMARK  6 active torsions:
REMARK  status: ('A' for Active; 'I' for Inactive)
REMARK    1  A    between atoms: C_3  and  C_10
REMARK    2  A    between atoms: C_5  and  N_7
REMARK    3  A    between atoms: C_13  and  C_15
REMARK    4  A    between atoms: N_17  and  C_18
REMARK    5  A    between atoms: C_18  and  N_20
REMARK    6  A    between atoms: N_20  and  C_21
REMARK                            x       y       z     vdW  Elec       q    Type
REMARK                         _______ _______ _______ _____ _____    ______ ____
ROOT
ATOM      1  C   UNL     1       2.758   7.428  -2.034  0.00  0.00    +0.285 C 
ATOM      2  O   UNL     1       2.744   8.101  -3.048  0.00  0.00    -0.266 OA
ATOM      3  N   UNL     1       3.504   7.814  -0.980  0.00  0.00    -0.261 N 
ATOM      4  H   UNL     1       3.515   7.278  -0.171  0.00  0.00    +0.157 HD
ENDROOT
BRANCH   1   8
ATOM      5  C   UNL     1       1.067   4.347  -1.191  0.00  0.00    +0.136 A 
ATOM      6  C   UNL     1       0.595   4.515  -2.461  0.00  0.00    +0.050 A 
ATOM      7  C   UNL     1       1.161   5.693  -2.958  0.00  0.00    +0.055 A 
ATOM      8  C   UNL     1       1.964   6.201  -1.959  0.00  0.00    +0.190 A 
ATOM      9  O   UNL     1       1.886   5.371  -0.897  0.00  0.00    -0.450 OA
BRANCH   5  12
ATOM     10  C   UNL     1      -0.454   1.181   0.136  0.00  0.00    +0.003 A 
ATOM     11  C   UNL     1      -0.145   2.225  -0.711  0.00  0.00    +0.012 A 
ATOM     12  C   UNL     1       0.728   3.229  -0.288  0.00  0.00    +0.019 A 
ATOM     13  C   UNL     1       1.279   3.171   0.994  0.00  0.00    +0.044 A 
ATOM     14  C   UNL     1       0.958   2.124   1.833  0.00  0.00    +0.127 A 
ATOM     15  C   UNL     1       0.092   1.132   1.406  0.00  0.00    +0.033 A 
BRANCH  14  16
ATOM     16  N   UNL     1       1.541   2.061   3.192  0.00  0.00    +0.056 N 
ATOM     17  O   UNL     1       1.258   1.137   3.933  0.00  0.00    -0.126 OA
ATOM     18  O   UNL     1       2.304   2.933   3.568  0.00  0.00    -0.126 OA
ENDBRANCH  14  16
ENDBRANCH   5  12
ENDBRANCH   1   8
BRANCH   3  19
ATOM     19  C   UNL     1       4.235   8.944  -1.049  0.00  0.00    +0.141 C 
ATOM     20  S   UNL     1       4.216   9.890  -2.475  0.00  0.00    -0.018 S 
BRANCH  19  21
ATOM     21  N   UNL     1       4.981   9.330   0.006  0.00  0.00    -0.293 N 
ATOM     22  H   UNL     1       4.936   8.835   0.839  0.00  0.00    +0.154 HD
BRANCH  21  23
ATOM     23  C   UNL     1       5.822  10.445  -0.102  0.00  0.00    +0.083 A 
ATOM     24  C   UNL     1       5.344  11.711   0.217  0.00  0.00    +0.148 A 
ATOM     25  C   UNL     1       6.176  12.810   0.110  0.00  0.00    +0.078 A 
ATOM     26  C   UNL     1       7.485  12.650  -0.314  0.00  0.00    +0.127 A 
ATOM     27  C   UNL     1       7.963  11.391  -0.632  0.00  0.00    +0.055 A 
ATOM     28  C   UNL     1       7.136  10.288  -0.522  0.00  0.00    +0.045 A 
ATOM     29 BR   UNL     1       7.793   8.567  -0.949  0.00  0.00    -0.048 Br
ATOM     30  F   UNL     1       8.297  13.725  -0.417  0.00  0.00    -0.205 F 
ATOM     31  F   UNL     1       4.068  11.868   0.632  0.00  0.00    -0.203 F 
ENDBRANCH  21  23
ENDBRANCH  19  21
ENDBRANCH   3  19
TORSDOF 6
