REMARK  Name = ZINC46795230
REMARK  10 active torsions:
REMARK  status: ('A' for Active; 'I' for Inactive)
REMARK    1  A    between atoms: C_1  and  C_2
REMARK    2  A    between atoms: C_2  and  C_3
REMARK    3  A    between atoms: C_2  and  C_4
REMARK    4  A    between atoms: C_7  and  C_10
REMARK    5  A    between atoms: C_10  and  C_12
REMARK    6  A    between atoms: C_10  and  N_26
REMARK    7  A    between atoms: C_12  and  N_13
REMARK    8  A    between atoms: C_14  and  C_16
REMARK    9  A    between atoms: C_19  and  S_22
REMARK   10  A    between atoms: S_22  and  N_25
REMARK                            x       y       z     vdW  Elec       q    Type
REMARK                         _______ _______ _______ _____ _____    ______ ____
ROOT
ATOM      1  C   UNL     1      -5.385  -1.973   0.021  0.00  0.00    +0.104 C 
ENDROOT
BRANCH   1   2
ATOM      2  N   UNL     1      -5.710  -1.924  -1.411  0.00  0.00    -0.289 NA
ATOM      3  C   UNL     1      -7.125  -1.587  -1.619  0.00  0.00    +0.090 C 
ATOM      4  C   UNL     1      -7.321  -1.147  -3.079  0.00  0.00    +0.058 C 
ATOM      5  C   UNL     1      -6.620  -2.137  -3.951  0.00  0.00    -0.005 A 
ATOM      6  C   UNL     1      -5.718  -3.077  -3.552  0.00  0.00    -0.023 A 
ATOM      7  C   UNL     1      -5.195  -3.899  -4.547  0.00  0.00    +0.013 A 
ATOM      8  C   UNL     1      -5.586  -3.738  -5.833  0.00  0.00    +0.046 A 
ATOM      9  S   UNL     1      -6.744  -2.384  -5.700  0.00  0.00    -0.101 S 
ATOM     10  C   UNL     1      -5.337  -3.178  -2.078  0.00  0.00    +0.121 C 
ENDBRANCH   1   2
BRANCH   1  14
ATOM     11  C   UNL     1      -1.454  -0.423   0.645  0.00  0.00    -0.045 A 
ATOM     12  C   UNL     1      -2.489  -0.036   1.475  0.00  0.00    +0.004 A 
ATOM     13  C   UNL     1      -3.761  -0.537   1.273  0.00  0.00    +0.005 A 
ATOM     14  C   UNL     1      -3.998  -1.426   0.241  0.00  0.00    -0.029 A 
ATOM     15  C   UNL     1      -2.963  -1.812  -0.590  0.00  0.00    +0.005 A 
ATOM     16  C   UNL     1      -1.692  -1.308  -0.391  0.00  0.00    +0.004 A 
BRANCH  11  18
ATOM     17  C   UNL     1      -0.094   1.648   0.744  0.00  0.00    +0.012 C 
ATOM     18  C   UNL     1      -0.067   0.123   0.865  0.00  0.00    +0.013 C 
ATOM     19  C   UNL     1       0.420  -0.269   2.262  0.00  0.00    +0.012 C 
ENDBRANCH  11  18
ENDBRANCH   1  14
BRANCH   1  20
ATOM     20  C   UNL     1      -5.445  -3.422   0.508  0.00  0.00    +0.128 C 
BRANCH  20  21
ATOM     21  N   UNL     1      -6.792  -3.954   0.293  0.00  0.00    -0.310 N 
ATOM     22  C   UNL     1      -7.051  -5.254   0.542  0.00  0.00    +0.244 C 
ATOM     23  O   UNL     1      -6.167  -5.983   0.945  0.00  0.00    -0.270 OA
ATOM     24  H   UNL     1      -7.498  -3.372  -0.028  0.00  0.00    +0.149 HD
BRANCH  22  25
ATOM     25  C   UNL     1      -8.412  -5.791   0.325  0.00  0.00    +0.037 A 
ATOM     26  C   UNL     1      -9.428  -4.957  -0.142  0.00  0.00    +0.015 A 
ATOM     27  C   UNL     1     -10.695  -5.465  -0.343  0.00  0.00    +0.029 A 
ATOM     28  C   UNL     1     -10.959  -6.798  -0.081  0.00  0.00    +0.105 A 
ATOM     29  C   UNL     1      -9.956  -7.630   0.383  0.00  0.00    +0.029 A 
ATOM     30  C   UNL     1      -8.683  -7.136   0.582  0.00  0.00    +0.015 A 
BRANCH  28  31
ATOM     31  S   UNL     1     -12.580  -7.438  -0.340  0.00  0.00    +0.056 S 
ATOM     32  O   UNL     1     -12.703  -8.581   0.496  0.00  0.00    -0.153 OA
ATOM     33  O   UNL     1     -13.471  -6.334  -0.257  0.00  0.00    -0.153 OA
BRANCH  31  34
ATOM     34  N   UNL     1     -12.647  -7.984  -1.902  0.00  0.00    -0.204 NA
ATOM     35  H   UNL     1     -11.869  -7.911  -2.475  0.00  0.00    +0.144 HD
ATOM     36  H   UNL     1     -13.465  -8.378  -2.243  0.00  0.00    +0.144 HD
ENDBRANCH  31  34
ENDBRANCH  28  31
ENDBRANCH  22  25
ENDBRANCH  20  21
ENDBRANCH   1  20
TORSDOF 8
