REMARK  Name = ZINC21219337
REMARK  10 active torsions:
REMARK  status: ('A' for Active; 'I' for Inactive)
REMARK    1  A    between atoms: C_1  and  C_2
REMARK    2  A    between atoms: C_2  and  O_3
REMARK    3  A    between atoms: O_3  and  C_4
REMARK    4  A    between atoms: C_7  and  C_10
REMARK    5  A    between atoms: C_15  and  C_25
REMARK    6  A    between atoms: C_27  and  N_35
REMARK    7  A    between atoms: C_28  and  O_34
REMARK    8  A    between atoms: C_29  and  O_31
REMARK    9  A    between atoms: O_31  and  C_32
REMARK   10  A    between atoms: C_32  and  C_33
REMARK                            x       y       z     vdW  Elec       q    Type
REMARK                         _______ _______ _______ _____ _____    ______ ____
ROOT
ATOM      1  C   UNL     1       0.497  -6.066  -1.929  0.00  0.00    +0.032 C 
ATOM      2  C   UNL     1       1.339  -6.540  -0.745  0.00  0.00    +0.059 C 
ATOM      3  C   UNL     1       1.654  -8.020  -0.892  0.00  0.00    +0.017 C 
ATOM      4  C   UNL     1       0.779  -8.845  -1.490  0.00  0.00    +0.036 C 
ATOM      5  C   UNL     1       0.966 -10.328  -1.707  0.00  0.00    +0.136 C 
ATOM      6  N   UNL     1       2.081 -10.902  -0.984  0.00  0.00    -0.331 N 
ATOM      7  C   UNL     1       3.390 -10.520  -1.266  0.00  0.00    +0.049 A 
ATOM      8  C   UNL     1       4.293 -11.406  -1.832  0.00  0.00    +0.025 A 
ATOM      9  C   UNL     1       5.560 -10.964  -2.171  0.00  0.00    +0.002 A 
ATOM     10  C   UNL     1       5.927  -9.649  -1.947  0.00  0.00    +0.002 A 
ATOM     11  C   UNL     1       5.036  -8.767  -1.359  0.00  0.00    +0.025 A 
ATOM     12  C   UNL     1       3.776  -9.214  -1.004  0.00  0.00    +0.052 A 
ATOM     13  N   UNL     1       2.848  -8.397  -0.365  0.00  0.00    -0.316 N 
ATOM     14  C   UNL     1      -0.440  -8.342  -2.002  0.00  0.00    +0.163 C 
ATOM     15  O   UNL     1      -1.226  -9.117  -2.513  0.00  0.00    -0.292 OA
ATOM     16  C   UNL     1      -0.798  -6.887  -1.937  0.00  0.00    +0.088 C 
ATOM     17  H   UNL     1       1.900 -11.651  -0.199  0.00  0.00    +0.147 HD
ATOM     18  H   UNL     1       3.140  -8.053   0.638  0.00  0.00    +0.152 HD
ENDROOT
BRANCH   1  22
ATOM     19  C   UNL     1      -0.420  -1.916  -1.487  0.00  0.00    +0.121 A 
ATOM     20  C   UNL     1      -0.796  -2.819  -0.503  0.00  0.00    +0.046 A 
ATOM     21  C   UNL     1      -0.503  -4.161  -0.651  0.00  0.00    +0.007 A 
ATOM     22  C   UNL     1       0.174  -4.603  -1.773  0.00  0.00    -0.043 A 
ATOM     23  C   UNL     1       0.554  -3.704  -2.752  0.00  0.00    +0.007 A 
ATOM     24  C   UNL     1       0.259  -2.362  -2.612  0.00  0.00    +0.046 A 
BRANCH  19  25
ATOM     25  O   UNL     1      -0.712  -0.596  -1.347  0.00  0.00    -0.492 OA
BRANCH  25  27
ATOM     26  C   UNL     1      -1.650   1.302  -0.182  0.00  0.00    +0.048 C 
ATOM     27  C   UNL     1      -1.413  -0.209  -0.163  0.00  0.00    +0.225 C 
ENDBRANCH  25  27
ENDBRANCH  19  25
ENDBRANCH   1  22
BRANCH   5  28
ATOM     28  C   UNL     1       1.174 -10.574  -3.179  0.00  0.00    -0.017 A 
ATOM     29  C   UNL     1       2.277 -10.040  -3.819  0.00  0.00    +0.042 A 
ATOM     30  C   UNL     1       2.475 -10.267  -5.168  0.00  0.00    +0.171 A 
ATOM     31  C   UNL     1       1.561 -11.022  -5.885  0.00  0.00    +0.189 A 
ATOM     32  C   UNL     1       0.447 -11.555  -5.242  0.00  0.00    +0.164 A 
ATOM     33  C   UNL     1       0.258 -11.328  -3.889  0.00  0.00    +0.055 A 
BRANCH  30  34
ATOM     34  N   UNL     1       3.661  -9.700  -5.848  0.00  0.00    +0.060 N 
ATOM     35  O   UNL     1       4.465  -9.036  -5.218  0.00  0.00    -0.126 OA
ATOM     36  O   UNL     1       3.833  -9.896  -7.038  0.00  0.00    -0.126 OA
ENDBRANCH  30  34
BRANCH  31  37
ATOM     37  O   UNL     1       1.751 -11.243  -7.213  0.00  0.00    -0.502 OA
ATOM     38  H   UNL     1       1.024 -11.842  -7.781  0.00  0.00    +0.292 HD
ENDBRANCH  31  37
BRANCH  32  39
ATOM     39  O   UNL     1      -0.454 -12.296  -5.942  0.00  0.00    -0.488 OA
BRANCH  39  40
ATOM     40  C   UNL     1      -1.572 -12.811  -5.217  0.00  0.00    +0.226 C 
ATOM     41  C   UNL     1      -2.468 -13.612  -6.163  0.00  0.00    +0.048 C 
ENDBRANCH  39  40
ENDBRANCH  32  39
ENDBRANCH   5  28
TORSDOF 8
