REMARK  Name = ZINC02413866
REMARK  7 active torsions:
REMARK  status: ('A' for Active; 'I' for Inactive)
REMARK    1  A    between atoms: C_1  and  C_2
REMARK    2  A    between atoms: C_2  and  C_3
REMARK    3  A    between atoms: C_3  and  C_4
REMARK    4  A    between atoms: C_10  and  N_14
REMARK    5  A    between atoms: C_19  and  C_20
REMARK    6  A    between atoms: C_19  and  C_26
REMARK    7  A    between atoms: C_19  and  N_71
REMARK                            x       y       z     vdW  Elec       q    Type
REMARK                         _______ _______ _______ _____ _____    ______ ____
ROOT
ATOM      1  N   UNL     1      -2.225   7.219  -3.083  0.00  0.00    -0.318 N 
ATOM      2  C   UNL     1      -2.377   7.753  -1.723  0.00  0.00    +0.088 C 
ATOM      3  C   UNL     1      -1.197   7.296  -0.863  0.00  0.00    -0.058 C 
ATOM      4  C   UNL     1      -0.995   5.293  -2.207  0.00  0.00    -0.058 C 
ATOM      5  C   UNL     1      -2.175   5.750  -3.067  0.00  0.00    +0.088 C 
ATOM      6  N   UNL     1      -1.171   5.818  -0.837  0.00  0.00    +0.389 N 
ATOM      7  H   UNL     1      -2.063   5.476  -0.460  0.00  0.00    -0.080 HD
ENDROOT
BRANCH   1  14
ATOM      8  C   UNL     1      -3.868   6.198  -9.989  0.00  0.00    +0.046 A 
ATOM      9  C   UNL     1      -4.957   7.033  -9.774  0.00  0.00    -0.022 A 
ATOM     10  C   UNL     1      -5.168   7.575  -8.527  0.00  0.00    -0.031 A 
ATOM     11  C   UNL     1      -4.270   7.274  -7.479  0.00  0.00    +0.037 A 
ATOM     12  C   UNL     1      -4.320   7.747  -6.083  0.00  0.00    +0.093 A 
ATOM     13  C   UNL     1      -3.295   7.291  -5.245  0.00  0.00    +0.080 A 
ATOM     14  C   UNL     1      -3.241   7.672  -3.911  0.00  0.00    +0.139 A 
ATOM     15  N   UNL     1      -4.193   8.480  -3.446  0.00  0.00    -0.220 NA
ATOM     16  C   UNL     1      -5.149   8.905  -4.251  0.00  0.00    +0.224 A 
ATOM     17  N   UNL     1      -5.231   8.567  -5.513  0.00  0.00    -0.234 NA
ATOM     18  S   UNL     1      -2.294   6.261  -6.282  0.00  0.00    -0.064 S 
ATOM     19  C   UNL     1      -3.200   6.420  -7.801  0.00  0.00    +0.111 A 
ATOM     20  N   UNL     1      -3.033   5.922  -9.008  0.00  0.00    -0.244 NA
ATOM     21  C   UNL     1      -6.405   8.442  -8.538  0.00  0.00    +0.036 C 
ATOM     22  C   UNL     1      -7.172   8.029  -9.813  0.00  0.00    +0.009 C 
ATOM     23  C   UNL     1      -6.042   7.498 -10.722  0.00  0.00    +0.037 C 
BRANCH   8  24
ATOM     24  C   UNL     1      -3.639   5.605 -11.356  0.00  0.00    +0.055 C 
BRANCH  24  26
ATOM     25  C   UNL     1      -2.525   5.945 -13.566  0.00  0.00    +0.004 C 
ATOM     26  C   UNL     1      -2.758   6.547 -12.179  0.00  0.00    +0.003 C 
ENDBRANCH  24  26
ENDBRANCH   8  24
ENDBRANCH   1  14
BRANCH   6  27
ATOM     27  C   UNL     1      -0.070   5.347   0.031  0.00  0.00    -0.007 C 
BRANCH  27  28
ATOM     28  C   UNL     1      -0.050   3.840   0.023  0.00  0.00    -0.057 A 
ATOM     29  C   UNL     1       1.156   3.165   0.008  0.00  0.00    +0.002 A 
ATOM     30  C   UNL     1       1.175   1.783   0.000  0.00  0.00    +0.000 A 
ATOM     31  C   UNL     1      -0.013   1.076   0.008  0.00  0.00    +0.000 A 
ATOM     32  C   UNL     1      -1.219   1.751   0.017  0.00  0.00    +0.000 A 
ATOM     33  C   UNL     1      -1.238   3.133   0.030  0.00  0.00    +0.002 A 
ENDBRANCH  27  28
BRANCH  27  34
ATOM     34  C   UNL     1      -0.311   5.838   1.435  0.00  0.00    -0.057 A 
ATOM     35  C   UNL     1      -1.593   5.858   1.951  0.00  0.00    +0.002 A 
ATOM     36  C   UNL     1      -1.813   6.304   3.241  0.00  0.00    +0.000 A 
ATOM     37  C   UNL     1      -0.751   6.740   4.011  0.00  0.00    +0.000 A 
ATOM     38  C   UNL     1       0.530   6.726   3.494  0.00  0.00    +0.000 A 
ATOM     39  C   UNL     1       0.751   6.275   2.206  0.00  0.00    +0.002 A 
ENDBRANCH  27  34
ENDBRANCH   6  27
TORSDOF 6
