REMARK  Name = ZINC08915328
REMARK  6 active torsions:
REMARK  status: ('A' for Active; 'I' for Inactive)
REMARK    1  A    between atoms: C_5  and  C_7
REMARK    2  A    between atoms: C_10  and  C_12
REMARK    3  A    between atoms: C_14  and  C_26
REMARK    4  A    between atoms: C_16  and  C_21
REMARK    5  A    between atoms: C_18  and  O_20
REMARK    6  A    between atoms: C_26  and  C_28
REMARK                            x       y       z     vdW  Elec       q    Type
REMARK                         _______ _______ _______ _____ _____    ______ ____
ROOT
ATOM      1  C   UNL     1       2.606  -6.034  -1.267  0.00  0.00    +0.156 C 
ATOM      2  C   UNL     1       3.953  -5.902  -0.540  0.00  0.00    +0.152 C 
ATOM      3  C   UNL     1       4.952  -6.856  -1.198  0.00  0.00    +0.284 C 
ATOM      4  N   UNL     1       4.939  -6.693  -2.647  0.00  0.00    -0.306 N 
ATOM      5  C   UNL     1       3.961  -6.164  -3.301  0.00  0.00    +0.256 C 
ATOM      6  N   UNL     1       2.832  -5.690  -2.679  0.00  0.00    -0.290 N 
ATOM      7  O   UNL     1       4.603  -8.203  -0.872  0.00  0.00    -0.194 OA
ATOM      8  H   UNL     1       2.196  -5.138  -3.161  0.00  0.00    +0.151 HD
ATOM      9  H   UNL     1       5.710  -7.001  -3.149  0.00  0.00    +0.167 HD
ENDROOT
BRANCH   1  13
ATOM     10  C   UNL     1       0.512  -3.238  -0.195  0.00  0.00    +0.137 A 
ATOM     11  C   UNL     1      -0.070  -4.237   0.519  0.00  0.00    +0.050 A 
ATOM     12  C   UNL     1       0.635  -5.419   0.213  0.00  0.00    +0.047 A 
ATOM     13  C   UNL     1       1.603  -5.085  -0.662  0.00  0.00    +0.127 A 
ATOM     14  O   UNL     1       1.523  -3.767  -0.910  0.00  0.00    -0.458 OA
BRANCH  10  19
ATOM     15  C   UNL     1      -1.609  -0.144  -0.378  0.00  0.00    +0.001 A 
ATOM     16  C   UNL     1      -0.661   0.845  -0.184  0.00  0.00    +0.001 A 
ATOM     17  C   UNL     1       0.668   0.511   0.006  0.00  0.00    +0.021 A 
ATOM     18  C   UNL     1       1.057  -0.814   0.004  0.00  0.00    +0.052 A 
ATOM     19  C   UNL     1       0.104  -1.817  -0.191  0.00  0.00    +0.036 A 
ATOM     20  C   UNL     1      -1.235  -1.472  -0.382  0.00  0.00    +0.013 A 
ATOM     21 CL   UNL     1       2.725  -1.232   0.241  0.00  0.00    -0.083 Cl
ENDBRANCH  10  19
ENDBRANCH   1  13
BRANCH   3  22
ATOM     22  C   UNL     1       6.357  -6.559  -0.670  0.00  0.00    +0.441 C 
ATOM     23  F   UNL     1       6.350  -6.609   0.728  0.00  0.00    -0.166 F 
ATOM     24  F   UNL     1       7.253  -7.512  -1.166  0.00  0.00    -0.166 F 
ATOM     25  F   UNL     1       6.753  -5.284  -1.089  0.00  0.00    -0.166 F 
ENDBRANCH   3  22
BRANCH   5  26
ATOM     26  O   UNL     1       4.050  -6.072  -4.646  0.00  0.00    -0.483 OA
ATOM     27  H   UNL     1       4.873  -6.427  -5.011  0.00  0.00    +0.295 HD
ENDBRANCH   5  26
BRANCH   2  28
ATOM     28  C   UNL     1       4.454  -4.485  -0.653  0.00  0.00    +0.173 C 
ATOM     29  O   UNL     1       4.364  -3.892  -1.707  0.00  0.00    -0.292 OA
BRANCH  28  30
ATOM     30  C   UNL     1       5.052  -3.822   0.516  0.00  0.00    +0.018 A 
ATOM     31  C   UNL     1       5.108  -4.483   1.747  0.00  0.00    +0.013 A 
ATOM     32  C   UNL     1       5.670  -3.855   2.838  0.00  0.00    +0.020 A 
ATOM     33  C   UNL     1       6.179  -2.572   2.717  0.00  0.00    +0.041 A 
ATOM     34  C   UNL     1       6.127  -1.911   1.500  0.00  0.00    +0.020 A 
ATOM     35  C   UNL     1       5.573  -2.528   0.400  0.00  0.00    +0.013 A 
ATOM     36 CL   UNL     1       6.884  -1.789   4.096  0.00  0.00    -0.084 Cl
ENDBRANCH  28  30
ENDBRANCH   2  28
TORSDOF 6
