REMARK  Name = ZINC63362438
REMARK  16 active torsions:
REMARK  status: ('A' for Active; 'I' for Inactive)
REMARK    1  A    between atoms: C_1  and  C_2
REMARK    2  A    between atoms: C_2  and  C_3
REMARK    3  A    between atoms: C_3  and  C_5
REMARK    4  A    between atoms: C_3  and  C_6
REMARK    5  A    between atoms: C_6  and  C_8
REMARK    6  A    between atoms: C_6  and  N_34
REMARK    7  A    between atoms: C_13  and  C_16
REMARK    8  A    between atoms: N_18  and  CA_19
REMARK    9  A    between atoms: CA_19  and  CB_21
REMARK   10  A    between atoms: CA_19  and  C_31
REMARK   11  A    between atoms: CB_21  and  CG_22
REMARK   12  A    between atoms: C_35  and  O_37
REMARK   13  A    between atoms: O_37  and  C_38
REMARK   14  A    between atoms: C_38  and  C_39
REMARK   15  A    between atoms: C_38  and  C_40
REMARK   16  A    between atoms: C_38  and  C_41
REMARK                            x       y       z     vdW  Elec       q    Type
REMARK                         _______ _______ _______ _____ _____    ______ ____
ROOT
ATOM      1  C   UNK A   0      -0.849  -2.396  -1.476  0.00  0.00    +0.236 C 
ATOM      2  O   UNK A   0       0.109  -3.135  -1.565  0.00  0.00    -0.274 OA
ATOM      3  N   UNK A   0      -1.404  -1.875  -2.588  0.00  0.00    -0.300 N 
ATOM      4  C   UNK A   0      -2.487  -0.887  -2.492  0.00  0.00    +0.108 C 
ATOM      5  C   UNK A   0      -3.674  -1.373  -3.329  0.00  0.00    +0.032 C 
ATOM      6  C   UNK A   0      -3.204  -1.654  -4.758  0.00  0.00    +0.078 C 
ATOM      7  C   UNK A   0      -2.142  -2.755  -4.741  0.00  0.00    +0.032 C 
ATOM      8  C   UNK A   0      -0.934  -2.280  -3.920  0.00  0.00    +0.108 C 
ENDROOT
BRANCH   6   9
ATOM      9  C   UNK A   0      -4.377  -2.100  -5.594  0.00  0.00    +0.217 C 
ATOM     10  O   UNK A   0      -5.479  -2.185  -5.095  0.00  0.00    -0.275 OA
ATOM     11  N   TRP A   1      -4.200  -2.404  -6.895  0.00  0.00    -0.302 N 
ATOM     12  H   TRP A   1      -3.318  -2.335  -7.293  0.00  0.00    +0.150 HD
BRANCH  11  13
ATOM     13  CA  TRP A   1      -5.340  -2.838  -7.707  0.00  0.00    +0.190 C 
BRANCH  13  14
ATOM     14  C   TRP A   1      -5.542  -4.321  -7.537  0.00  0.00    +0.376 C 
ATOM     15  O   TRP A   1      -4.803  -4.957  -6.805  0.00  0.00    -0.244 OA
ATOM     16  OXT TRP A   1      -6.445  -4.886  -8.131  0.00  0.00    -0.244 OA
ENDBRANCH  13  14
BRANCH  13  17
ATOM     17  CB  TRP A   1      -5.064  -2.526  -9.179  0.00  0.00    +0.067 C 
BRANCH  17  18
ATOM     18  CG  TRP A   1      -4.984  -1.033  -9.370  0.00  0.00    -0.039 C 
ATOM     19  CD2 TRP A   1      -3.865  -0.274  -9.380  0.00  0.00    -0.001 A 
ATOM     20  CE3 TRP A   1      -2.442  -0.598  -9.220  0.00  0.00    +0.010 A 
ATOM     21  CZ3 TRP A   1      -1.532   0.401  -9.277  0.00  0.00    +0.001 A 
ATOM     22  CH2 TRP A   1      -1.912   1.734  -9.485  0.00  0.00    +0.002 A 
ATOM     23  CZ2 TRP A   1      -3.199   2.110  -9.640  0.00  0.00    +0.026 A 
ATOM     24  CE2 TRP A   1      -4.240   1.141  -9.598  0.00  0.00    +0.043 A 
ATOM     25  NE1 TRP A   1      -5.541   1.253  -9.719  0.00  0.00    -0.380 N 
ATOM     26  CD1 TRP A   1      -6.138  -0.082  -9.597  0.00  0.00    +0.144 C 
ATOM     27  HE1 TRP A   1      -6.027   2.079  -9.868  0.00  0.00    +0.160 HD
ENDBRANCH  17  18
ENDBRANCH  13  17
ENDBRANCH  11  13
ENDBRANCH   6   9
BRANCH   1  28
ATOM     28  C   UNK A   0      -1.418  -2.061  -0.121  0.00  0.00    +0.165 C 
BRANCH  28  29
ATOM     29  N   UNK A   0      -1.007  -3.080   0.847  0.00  0.00    -0.270 N 
ATOM     30  C   UNK A   0      -1.751  -3.302   1.949  0.00  0.00    +0.401 C 
ATOM     31  O   UNK A   0      -2.763  -2.656   2.139  0.00  0.00    -0.226 OA
ATOM     32  H   UNK A   0      -0.200  -3.596   0.695  0.00  0.00    +0.153 HD
BRANCH  30  33
ATOM     33  O   UNK A   0      -1.373  -4.239   2.839  0.00  0.00    -0.445 OA
BRANCH  33  34
ATOM     34  C   UNK A   0      -2.209  -4.421   3.983  0.00  0.00    +0.107 C 
ATOM     35  C   UNK A   0      -3.613  -4.826   3.531  0.00  0.00    +0.055 C 
ATOM     36  C   UNK A   0      -1.623  -5.519   4.873  0.00  0.00    +0.055 C 
ATOM     37  C   UNK A   0      -2.286  -3.112   4.772  0.00  0.00    +0.055 C 
ENDBRANCH  33  34
ENDBRANCH  30  33
ENDBRANCH  28  29
BRANCH  28  38
ATOM     38  C   UNK A   0      -0.898  -0.693   0.326  0.00  0.00    +0.015 C 
ATOM     39  C   UNK A   0      -1.579  -0.293   1.636  0.00  0.00    +0.010 C 
BRANCH  38  41
ATOM     40  C   UNK A   0       1.154   0.626   0.866  0.00  0.00    +0.004 C 
ATOM     41  C   UNK A   0       0.615  -0.768   0.540  0.00  0.00    +0.002 C 
ENDBRANCH  38  41
ENDBRANCH  28  38
ENDBRANCH   1  28
TORSDOF 11
