REMARK  Name = ZINC06142356
REMARK  8 active torsions:
REMARK  status: ('A' for Active; 'I' for Inactive)
REMARK    1  A    between atoms: C_1  and  C_2
REMARK    2  A    between atoms: C_3  and  N_15
REMARK    3  A    between atoms: N_6  and  C_9
REMARK    4  A    between atoms: N_7  and  C_8
REMARK    5  A    between atoms: C_16  and  C_18
REMARK    6  A    between atoms: C_18  and  C_31
REMARK    7  A    between atoms: C_19  and  C_20
REMARK    8  A    between atoms: C_23  and  C_25
REMARK                            x       y       z     vdW  Elec       q    Type
REMARK                         _______ _______ _______ _____ _____    ______ ____
ROOT
ATOM      1  N   UNL     1      -1.196  -0.669   2.674  0.00  0.00    -0.275 N 
ATOM      2  C   UNL     1      -1.331  -1.239   3.887  0.00  0.00    +0.259 C 
ATOM      3  O   UNL     1      -1.595  -0.551   4.857  0.00  0.00    -0.269 OA
ATOM      4  H   UNL     1      -1.060  -1.224   1.889  0.00  0.00    +0.155 HD
ENDROOT
BRANCH   1   7
ATOM      5  C   UNL     1       0.980   1.051   1.362  0.00  0.00    +0.067 C 
ATOM      6  C   UNL     1      -0.314   1.523   1.973  0.00  0.00    +0.059 A 
ATOM      7  C   UNL     1      -1.251   0.733   2.543  0.00  0.00    +0.121 A 
ATOM      8  C   UNL     1      -2.333   1.605   3.001  0.00  0.00    +0.293 A 
ATOM      9  O   UNL     1      -3.355   1.258   3.565  0.00  0.00    -0.264 OA
ATOM     10  N   UNL     1      -1.983   2.868   2.679  0.00  0.00    -0.216 N 
ATOM     11  N   UNL     1      -0.734   2.825   2.049  0.00  0.00    -0.282 N 
ATOM     12  C   UNL     1       0.005   3.986   1.548  0.00  0.00    +0.171 C 
BRANCH  10  13
ATOM     13  C   UNL     1      -2.734   4.019   2.936  0.00  0.00    +0.067 A 
ATOM     14  C   UNL     1      -3.273   4.231   4.198  0.00  0.00    +0.028 A 
ATOM     15  C   UNL     1      -4.009   5.372   4.449  0.00  0.00    +0.002 A 
ATOM     16  C   UNL     1      -4.220   6.297   3.443  0.00  0.00    +0.000 A 
ATOM     17  C   UNL     1      -3.689   6.086   2.184  0.00  0.00    +0.002 A 
ATOM     18  C   UNL     1      -2.947   4.950   1.927  0.00  0.00    +0.028 A 
ENDBRANCH  10  13
ENDBRANCH   1   7
BRANCH   2  19
ATOM     19  C   UNL     1      -1.161  -2.689   4.040  0.00  0.00    +0.117 C 
ATOM     20  C   UNL     1      -1.300  -3.276   5.290  0.00  0.00    +0.070 C 
BRANCH  20  21
ATOM     21  C   UNL     1      -1.137  -4.663   5.436  0.00  0.00    +0.130 A 
ATOM     22  C   UNL     1      -1.248  -5.375   6.622  0.00  0.00    +0.050 A 
ATOM     23  C   UNL     1      -1.012  -6.713   6.312  0.00  0.00    +0.050 A 
ATOM     24  C   UNL     1      -0.766  -6.777   4.957  0.00  0.00    +0.136 A 
ATOM     25  O   UNL     1      -0.851  -5.536   4.447  0.00  0.00    -0.455 OA
BRANCH  24  26
ATOM     26  C   UNL     1      -0.465  -8.003   4.193  0.00  0.00    +0.017 A 
ATOM     27  C   UNL     1      -0.405  -9.238   4.843  0.00  0.00    +0.011 A 
ATOM     28  C   UNL     1      -0.128 -10.380   4.121  0.00  0.00    +0.001 A 
ATOM     29  C   UNL     1       0.100 -10.304   2.759  0.00  0.00    +0.000 A 
ATOM     30  C   UNL     1       0.048  -9.083   2.109  0.00  0.00    +0.001 A 
ATOM     31  C   UNL     1      -0.233  -7.933   2.817  0.00  0.00    +0.011 A 
ENDBRANCH  24  26
ENDBRANCH  20  21
BRANCH  19  32
ATOM     32  C   UNL     1      -0.851  -3.498   2.900  0.00  0.00    +0.104 C 
ATOM     33  N   UNL     1      -0.605  -4.139   1.995  0.00  0.00    -0.191 NA
ENDBRANCH  19  32
ENDBRANCH   2  19
TORSDOF 6
