REMARK  Name = ZINC23273430
REMARK  9 active torsions:
REMARK  status: ('A' for Active; 'I' for Inactive)
REMARK    1  A    between atoms: C_1  and  C_2
REMARK    2  A    between atoms: C_2  and  C_3
REMARK    3  A    between atoms: C_3  and  C_29
REMARK    4  A    between atoms: N_6  and  C_10
REMARK    5  A    between atoms: C_10  and  C_11
REMARK    6  A    between atoms: N_13  and  C_14
REMARK    7  A    between atoms: C_14  and  C_16
REMARK    8  A    between atoms: C_14  and  C_23
REMARK    9  A    between atoms: C_16  and  C_17
REMARK                            x       y       z     vdW  Elec       q    Type
REMARK                         _______ _______ _______ _____ _____    ______ ____
ROOT
ATOM      1  C   UNL     1       2.405   6.168  -3.111  0.00  0.00    +0.213 C 
ENDROOT
BRANCH   1   5
ATOM      2  C   UNL     1       3.732   5.309  -6.472  0.00  0.00    +0.138 C 
ATOM      3  C   UNL     1       3.916   5.806  -5.052  0.00  0.00    +0.251 C 
ATOM      4  O   UNL     1       4.950   6.162  -4.529  0.00  0.00    -0.272 OA
ATOM      5  N   UNL     1       2.691   5.769  -4.492  0.00  0.00    -0.215 N 
ATOM      6  C   UNL     1       1.767   5.330  -5.354  0.00  0.00    +0.310 C 
ATOM      7  O   UNL     1       0.589   5.213  -5.080  0.00  0.00    -0.252 OA
ATOM      8  N   UNL     1       2.288   5.030  -6.557  0.00  0.00    -0.281 N 
ATOM      9  H   UNL     1       1.856   4.651  -7.495  0.00  0.00    +0.152 HD
BRANCH   2  10
ATOM     10  C   UNL     1       4.125   6.378  -7.459  0.00  0.00    -0.015 A 
ATOM     11  C   UNL     1       5.401   6.393  -7.990  0.00  0.00    +0.007 A 
ATOM     12  C   UNL     1       5.760   7.370  -8.899  0.00  0.00    +0.020 A 
ATOM     13  C   UNL     1       4.845   8.340  -9.270  0.00  0.00    +0.041 A 
ATOM     14  C   UNL     1       3.570   8.328  -8.733  0.00  0.00    +0.020 A 
ATOM     15  C   UNL     1       3.211   7.347  -7.828  0.00  0.00    +0.007 A 
ATOM     16 CL   UNL     1       5.298   9.572 -10.406  0.00  0.00    -0.084 Cl
ENDBRANCH   2  10
BRANCH   2  18
ATOM     17  C   UNL     1       4.074   2.945  -5.740  0.00  0.00    +0.007 C 
ATOM     18  C   UNL     1       4.542   4.033  -6.709  0.00  0.00    +0.037 C 
ENDBRANCH   2  18
ENDBRANCH   1   5
BRANCH   1  19
ATOM     19  C   UNL     1       2.539   4.971  -2.205  0.00  0.00    +0.231 C 
ATOM     20  O   UNL     1       2.843   3.892  -2.667  0.00  0.00    -0.274 OA
ATOM     21  N   UNL     1       2.321   5.100  -0.881  0.00  0.00    -0.307 N 
ATOM     22  H   UNL     1       2.045   6.079  -0.462  0.00  0.00    +0.149 HD
BRANCH  21  23
ATOM     23  C   UNL     1       2.451   3.937  -0.001  0.00  0.00    +0.107 C 
BRANCH  23  24
ATOM     24  C   UNL     1       1.156   3.165   0.008  0.00  0.00    -0.027 A 
ATOM     25  C   UNL     1       1.175   1.783   0.000  0.00  0.00    +0.005 A 
ATOM     26  C   UNL     1      -0.013   1.076   0.008  0.00  0.00    +0.000 A 
ATOM     27  C   UNL     1      -1.219   1.751   0.017  0.00  0.00    +0.000 A 
ATOM     28  C   UNL     1      -1.238   3.133   0.030  0.00  0.00    +0.000 A 
ATOM     29  C   UNL     1      -0.050   3.840   0.023  0.00  0.00    +0.005 A 
ENDBRANCH  23  24
BRANCH  23  30
ATOM     30  C   UNL     1       2.774   4.406   1.419  0.00  0.00    +0.062 C 
BRANCH  30  31
ATOM     31  C   UNL     1       4.127   5.069   1.433  0.00  0.00    -0.045 A 
ATOM     32  C   UNL     1       5.263   4.320   1.677  0.00  0.00    +0.004 A 
ATOM     33  C   UNL     1       6.504   4.928   1.684  0.00  0.00    +0.000 A 
ATOM     34  C   UNL     1       6.609   6.288   1.459  0.00  0.00    +0.000 A 
ATOM     35  C   UNL     1       5.473   7.039   1.222  0.00  0.00    +0.000 A 
ATOM     36  C   UNL     1       4.232   6.429   1.209  0.00  0.00    +0.004 A 
ENDBRANCH  30  31
ENDBRANCH  23  30
ENDBRANCH  21  23
ENDBRANCH   1  19
TORSDOF 8
