REMARK  Name = ZINC11156584
REMARK  8 active torsions:
REMARK  status: ('A' for Active; 'I' for Inactive)
REMARK    1  A    between atoms: C_1  and  C_2
REMARK    2  A    between atoms: N_4  and  C_5
REMARK    3  A    between atoms: C_5  and  C_7
REMARK    4  A    between atoms: C_5  and  C_18
REMARK    5  A    between atoms: C_7  and  C_8
REMARK    6  A    between atoms: C_23  and  N_26
REMARK    7  A    between atoms: N_26  and  S_27
REMARK    8  A    between atoms: S_27  and  C_30
REMARK                            x       y       z     vdW  Elec       q    Type
REMARK                         _______ _______ _______ _____ _____    ______ ____
ROOT
ATOM      1  C   UNL     1      -0.407  -2.658   1.222  0.00  0.00    +0.236 C 
ATOM      2  O   UNL     1       0.350  -1.922   1.819  0.00  0.00    -0.274 OA
ATOM      3  N   UNL     1      -0.597  -3.922   1.651  0.00  0.00    -0.300 N 
ATOM      4  C   UNL     1      -1.506  -4.826   0.934  0.00  0.00    +0.109 C 
ATOM      5  C   UNL     1      -2.522  -5.394   1.930  0.00  0.00    +0.039 C 
ATOM      6  C   UNL     1      -1.777  -6.047   3.097  0.00  0.00    +0.079 C 
ATOM      7  C   UNL     1      -0.932  -4.994   3.817  0.00  0.00    +0.039 C 
ATOM      8  C   UNL     1       0.107  -4.423   2.839  0.00  0.00    +0.109 C 
ENDROOT
BRANCH   6   9
ATOM      9  N   UNL     1      -2.745  -6.620   4.035  0.00  0.00    -0.187 NA
ATOM     10  H   UNL     1      -3.595  -6.177   4.186  0.00  0.00    +0.148 HD
BRANCH   9  11
ATOM     11  S   UNL     1      -2.389  -8.024   4.837  0.00  0.00    +0.059 S 
ATOM     12  O   UNL     1      -3.499  -8.303   5.679  0.00  0.00    -0.153 OA
ATOM     13  O   UNL     1      -1.925  -8.945   3.858  0.00  0.00    -0.153 OA
BRANCH  11  14
ATOM     14  C   UNL     1      -1.024  -7.686   5.898  0.00  0.00    +0.105 A 
ATOM     15  C   UNL     1       0.269  -7.857   5.437  0.00  0.00    +0.028 A 
ATOM     16  C   UNL     1       1.340  -7.591   6.269  0.00  0.00    +0.002 A 
ATOM     17  C   UNL     1       1.119  -7.156   7.562  0.00  0.00    +0.000 A 
ATOM     18  C   UNL     1      -0.173  -6.984   8.023  0.00  0.00    +0.002 A 
ATOM     19  C   UNL     1      -1.244  -7.246   7.189  0.00  0.00    +0.028 A 
ENDBRANCH  11  14
ENDBRANCH   9  11
ENDBRANCH   6   9
BRANCH   1  20
ATOM     20  C   UNL     1      -1.136  -2.159   0.001  0.00  0.00    +0.163 C 
BRANCH  20  24
ATOM     21  C   UNL     1      -0.018   1.503   0.010  0.00  0.00    +0.109 C 
ATOM     22  C   UNL     1       0.002  -0.004   0.002  0.00  0.00    +0.211 C 
ATOM     23  O   UNL     1       1.060  -0.596  -0.011  0.00  0.00    -0.276 OA
ATOM     24  N   UNL     1      -1.156  -0.694   0.009  0.00  0.00    -0.304 N 
ATOM     25  H   UNL     1      -2.002  -0.220   0.020  0.00  0.00    +0.149 HD
ENDBRANCH  20  24
BRANCH  20  26
ATOM     26  C   UNL     1      -0.420  -2.652  -1.258  0.00  0.00    +0.069 C 
BRANCH  26  27
ATOM     27  C   UNL     1      -1.215  -2.257  -2.475  0.00  0.00    -0.020 A 
ATOM     28  C   UNL     1      -2.119  -3.013  -3.118  0.00  0.00    +0.087 A 
ATOM     29  N   UNL     1      -2.637  -2.321  -4.178  0.00  0.00    -0.360 N 
ATOM     30  H   UNL     1      -3.308  -2.660  -4.792  0.00  0.00    +0.165 HD
ATOM     31  C   UNL     1      -2.064  -1.071  -4.246  0.00  0.00    +0.047 A 
ATOM     32  C   UNL     1      -1.153  -0.974  -3.178  0.00  0.00    +0.003 A 
ATOM     33  C   UNL     1      -0.421   0.200  -2.992  0.00  0.00    +0.010 A 
ATOM     34  C   UNL     1      -0.596   1.252  -3.847  0.00  0.00    +0.001 A 
ATOM     35  C   UNL     1      -1.496   1.163  -4.899  0.00  0.00    +0.002 A 
ATOM     36  C   UNL     1      -2.222   0.010  -5.107  0.00  0.00    +0.026 A 
ENDBRANCH  26  27
ENDBRANCH  20  26
ENDBRANCH   1  20
TORSDOF 7
