REMARK  Name = ZINC64520851
REMARK  9 active torsions:
REMARK  status: ('A' for Active; 'I' for Inactive)
REMARK    1  A    between atoms: C_1  and  C_2
REMARK    2  A    between atoms: C_4  and  S_9
REMARK    3  A    between atoms: C_5  and  C_8
REMARK    4  A    between atoms: S_9  and  N_12
REMARK    5  A    between atoms: C_15  and  C_18
REMARK    6  A    between atoms: C_18  and  C_19
REMARK    7  A    between atoms: N_21  and  C_22
REMARK    8  A    between atoms: C_22  and  C_23
REMARK    9  A    between atoms: C_23  and  C_24
REMARK                            x       y       z     vdW  Elec       q    Type
REMARK                         _______ _______ _______ _____ _____    ______ ____
ROOT
ATOM      1  N   UNL     1       0.692   1.342  -3.251  0.00  0.00    -0.177 NA
ATOM      2  C   UNL     1      -0.267   2.433  -3.032  0.00  0.00    +0.110 C 
ATOM      3  C   UNL     1      -0.416   3.227  -4.334  0.00  0.00    +0.021 C 
ATOM      4  C   UNL     1       0.964   3.688  -4.807  0.00  0.00    +0.000 C 
ATOM      5  C   UNL     1       1.845   2.468  -5.084  0.00  0.00    +0.021 C 
ATOM      6  C   UNL     1       2.022   1.666  -3.785  0.00  0.00    +0.110 C 
ENDROOT
BRANCH   1   7
ATOM      7  S   UNL     1       0.284  -0.224  -2.897  0.00  0.00    +0.061 S 
ATOM      8  O   UNL     1       1.123  -1.052  -3.691  0.00  0.00    -0.153 OA
ATOM      9  O   UNL     1      -1.134  -0.297  -2.954  0.00  0.00    -0.153 OA
BRANCH   7  12
ATOM     10  C   UNL     1      -0.019   1.526   0.010  0.00  0.00    +0.047 C 
ATOM     11  C   UNL     1       0.002  -0.004   0.002  0.00  0.00    +0.196 C 
ATOM     12  C   UNL     1       0.735  -0.512  -1.218  0.00  0.00    +0.134 C 
ATOM     13  C   UNL     1       1.772  -1.208  -0.801  0.00  0.00    +0.061 C 
ATOM     14  N   UNL     1       1.832  -1.235   0.581  0.00  0.00    -0.268 N 
ATOM     15  O   UNL     1       0.748  -0.498   1.124  0.00  0.00    -0.265 OA
ATOM     16  C   UNL     1       2.763  -1.888  -1.710  0.00  0.00    +0.067 C 
ATOM     17  H   UNL     1       2.513  -1.690   1.100  0.00  0.00    +0.194 HD
ENDBRANCH   7  12
ENDBRANCH   1   7
BRANCH   4  18
ATOM     18  C   UNL     1       0.815   4.511  -6.088  0.00  0.00    +0.099 C 
BRANCH  18  19
ATOM     19  C   UNL     1       2.157   5.068  -6.486  0.00  0.00    +0.213 C 
ATOM     20  O   UNL     1       3.137   4.831  -5.812  0.00  0.00    -0.276 OA
ATOM     21  N   UNL     1       2.269   5.830  -7.592  0.00  0.00    -0.315 N 
ATOM     22  H   UNL     1       1.486   6.020  -8.132  0.00  0.00    +0.149 HD
BRANCH  21  23
ATOM     23  C   UNL     1       3.575   6.372  -7.979  0.00  0.00    +0.108 C 
BRANCH  23  24
ATOM     24  C   UNL     1       3.426   7.194  -9.261  0.00  0.00    +0.052 C 
BRANCH  24  25
ATOM     25  C   UNL     1       4.768   7.751  -9.659  0.00  0.00    -0.040 C 
ATOM     26  C   UNL     1       5.642   7.215 -10.541  0.00  0.00    -0.001 A 
ATOM     27  C   UNL     1       5.607   5.998 -11.361  0.00  0.00    +0.010 A 
ATOM     28  C   UNL     1       6.657   5.719 -12.166  0.00  0.00    +0.001 A 
ATOM     29  C   UNL     1       7.775   6.560 -12.237  0.00  0.00    +0.002 A 
ATOM     30  C   UNL     1       7.881   7.695 -11.514  0.00  0.00    +0.026 A 
ATOM     31  C   UNL     1       6.835   8.087 -10.634  0.00  0.00    +0.043 A 
ATOM     32  N   UNL     1       6.703   9.123  -9.841  0.00  0.00    -0.380 N 
ATOM     33  C   UNL     1       5.408   9.027  -9.159  0.00  0.00    +0.144 C 
ATOM     34  H   UNL     1       7.352   9.835  -9.727  0.00  0.00    +0.160 HD
ENDBRANCH  24  25
ENDBRANCH  23  24
ENDBRANCH  21  23
ENDBRANCH  18  19
ENDBRANCH   4  18
TORSDOF 7
