REMARK  Name = ZINC39987029
REMARK  9 active torsions:
REMARK  status: ('A' for Active; 'I' for Inactive)
REMARK    1  A    between atoms: C_1  and  O_2
REMARK    2  A    between atoms: O_2  and  C_3
REMARK    3  A    between atoms: C_6  and  S_12
REMARK    4  A    between atoms: C_8  and  N_9
REMARK    5  A    between atoms: S_12  and  N_15
REMARK    6  A    between atoms: N_15  and  C_16
REMARK    7  A    between atoms: C_18  and  C_27
REMARK    8  A    between atoms: C_19  and  O_26
REMARK    9  A    between atoms: C_36  and  O_37
REMARK                            x       y       z     vdW  Elec       q    Type
REMARK                         _______ _______ _______ _____ _____    ______ ____
ROOT
ATOM      1  C   UNL     1       0.581  -3.751   5.633  0.00  0.00    +0.057 A 
ATOM      2  C   UNL     1       0.769  -4.883   4.896  0.00  0.00    +0.037 A 
ATOM      3  C   UNL     1      -0.266  -5.818   4.737  0.00  0.00    +0.030 A 
ATOM      4  C   UNL     1      -1.505  -5.608   5.330  0.00  0.00    +0.132 A 
ATOM      5  C   UNL     1      -1.718  -4.446   6.096  0.00  0.00    +0.026 A 
ATOM      6  C   UNL     1      -0.664  -3.511   6.254  0.00  0.00    +0.008 A 
ATOM      7  C   UNL     1      -0.880  -2.356   7.022  0.00  0.00    +0.010 A 
ATOM      8  C   UNL     1      -2.092  -2.152   7.608  0.00  0.00    +0.001 A 
ATOM      9  C   UNL     1      -3.127  -3.074   7.458  0.00  0.00    +0.001 A 
ATOM     10  C   UNL     1      -2.958  -4.199   6.710  0.00  0.00    +0.012 A 
ENDROOT
BRANCH   3  11
ATOM     11  C   UNL     1      -0.036  -7.038   3.932  0.00  0.00    +0.035 A 
ATOM     12  C   UNL     1      -0.208  -7.011   2.527  0.00  0.00    -0.007 A 
ATOM     13  C   UNL     1      -0.596  -5.837   1.865  0.00  0.00    +0.009 A 
ATOM     14  C   UNL     1      -0.752  -5.845   0.512  0.00  0.00    +0.001 A 
ATOM     15  C   UNL     1      -0.531  -7.005  -0.227  0.00  0.00    +0.001 A 
ATOM     16  C   UNL     1      -0.152  -8.162   0.383  0.00  0.00    +0.008 A 
ATOM     17  C   UNL     1       0.018  -8.191   1.777  0.00  0.00    -0.017 A 
ATOM     18  C   UNL     1       0.408  -9.369   2.438  0.00  0.00    +0.012 A 
ATOM     19  C   UNL     1       0.568  -9.375   3.789  0.00  0.00    +0.046 A 
ATOM     20  C   UNL     1       0.356  -8.221   4.545  0.00  0.00    +0.125 A 
BRANCH  20  21
ATOM     21  O   UNL     1       0.529  -8.256   5.892  0.00  0.00    -0.506 OA
ATOM     22  H   UNL     1      -0.269  -8.494   6.385  0.00  0.00    +0.292 HD
ENDBRANCH  20  21
ENDBRANCH   3  11
BRANCH   1  23
ATOM     23  N   UNL     1       1.623  -2.832   5.780  0.00  0.00    -0.216 N 
ATOM     24  H   UNL     1       2.021  -2.685   6.652  0.00  0.00    +0.174 HD
BRANCH  23  25
ATOM     25  S   UNL     1       2.178  -1.992   4.465  0.00  0.00    +0.072 S 
ATOM     26  O   UNL     1       2.436  -2.953   3.450  0.00  0.00    -0.150 OA
ATOM     27  O   UNL     1       3.178  -1.103   4.943  0.00  0.00    -0.150 OA
BRANCH  25  31
ATOM     28  C   UNL     1      -1.239   0.580   2.978  0.00  0.00    +0.150 A 
ATOM     29  C   UNL     1      -0.422   1.034   4.003  0.00  0.00    +0.050 A 
ATOM     30  C   UNL     1       0.620   0.248   4.455  0.00  0.00    +0.032 A 
ATOM     31  C   UNL     1       0.849  -0.992   3.886  0.00  0.00    +0.111 A 
ATOM     32  C   UNL     1       0.036  -1.447   2.864  0.00  0.00    +0.065 A 
ATOM     33  C   UNL     1      -1.011  -0.666   2.413  0.00  0.00    +0.169 A 
BRANCH  33  34
ATOM     34  N   UNL     1      -1.884  -1.157   1.323  0.00  0.00    +0.060 N 
ATOM     35  O   UNL     1      -1.743  -2.279   0.894  0.00  0.00    -0.126 OA
ATOM     36  O   UNL     1      -2.738  -0.436   0.862  0.00  0.00    -0.126 OA
ENDBRANCH  33  34
BRANCH  28  38
ATOM     37  C   UNL     1      -2.441   2.623   3.159  0.00  0.00    +0.277 C 
ATOM     38  O   UNL     1      -2.265   1.351   2.531  0.00  0.00    -0.493 OA
ENDBRANCH  28  38
ENDBRANCH  25  31
ENDBRANCH  23  25
ENDBRANCH   1  23
BRANCH   4  39
ATOM     39  O   UNL     1      -2.503  -6.516   5.173  0.00  0.00    -0.506 OA
ATOM     40  H   UNL     1      -2.518  -7.206   5.851  0.00  0.00    +0.292 HD
ENDBRANCH   4  39
TORSDOF 8
