REMARK  Name = ZINC11275389
REMARK  7 active torsions:
REMARK  status: ('A' for Active; 'I' for Inactive)
REMARK    1  A    between atoms: C_4  and  C_7
REMARK    2  A    between atoms: C_7  and  C_8
REMARK    3  A    between atoms: C_7  and  C_14
REMARK    4  A    between atoms: C_7  and  O_33
REMARK    5  A    between atoms: C_14  and  O_16
REMARK    6  A    between atoms: O_16  and  C_17
REMARK    7  A    between atoms: C_17  and  C_18
REMARK                            x       y       z     vdW  Elec       q    Type
REMARK                         _______ _______ _______ _____ _____    ______ ____
ROOT
ATOM      1  O   UNL     1       6.343  -1.319  -1.628  0.00  0.00    -0.454 OA
ENDROOT
BRANCH   1   2
ATOM      2  C   UNL     1       5.004  -1.236  -1.595  0.00  0.00    +0.349 C 
ATOM      3  O   UNL     1       4.365  -1.382  -2.610  0.00  0.00    -0.247 OA
BRANCH   2   4
ATOM      4  C   UNL     1       4.298  -0.958  -0.293  0.00  0.00    +0.213 C 
BRANCH   4   8
ATOM      5  C   UNL     1       0.511   0.852  -1.086  0.00  0.00    +0.000 A 
ATOM      6  C   UNL     1       1.501   1.573  -0.445  0.00  0.00    +0.000 A 
ATOM      7  C   UNL     1       2.727   0.987  -0.189  0.00  0.00    +0.007 A 
ATOM      8  C   UNL     1       2.962  -0.320  -0.572  0.00  0.00    -0.001 A 
ATOM      9  C   UNL     1       1.972  -1.041  -1.212  0.00  0.00    +0.007 A 
ATOM     10  C   UNL     1       0.747  -0.455  -1.470  0.00  0.00    +0.000 A 
ENDBRANCH   4   8
BRANCH   4  11
ATOM     11  C   UNL     1       4.091  -2.252   0.452  0.00  0.00    -0.001 A 
ATOM     12  C   UNL     1       3.736  -3.397  -0.237  0.00  0.00    +0.007 A 
ATOM     13  C   UNL     1       3.546  -4.583   0.446  0.00  0.00    +0.000 A 
ATOM     14  C   UNL     1       3.712  -4.626   1.817  0.00  0.00    +0.000 A 
ATOM     15  C   UNL     1       4.068  -3.481   2.506  0.00  0.00    +0.000 A 
ATOM     16  C   UNL     1       4.262  -2.296   1.823  0.00  0.00    +0.007 A 
ENDBRANCH   4  11
BRANCH   4  17
ATOM     17  O   UNL     1       5.092  -0.074   0.500  0.00  0.00    -0.370 OA
ATOM     18  H   UNL     1       5.266   0.781   0.082  0.00  0.00    +0.212 HD
ENDBRANCH   4  17
ENDBRANCH   2   4
ENDBRANCH   1   2
BRANCH   1  19
ATOM     19  C   UNL     1       6.946  -1.584  -2.896  0.00  0.00    +0.308 C 
BRANCH  19  20
ATOM     20  C   UNL     1       8.444  -1.643  -2.738  0.00  0.00    +0.170 A 
ATOM     21  N   UNL     1       9.151  -0.535  -2.871  0.00  0.00    -0.214 NA
ATOM     22  C   UNL     1      10.468  -0.520  -2.744  0.00  0.00    +0.128 A 
ATOM     23  C   UNL     1      11.148  -1.735  -2.455  0.00  0.00    +0.051 A 
ATOM     24  C   UNL     1      12.588  -1.956  -2.273  0.00  0.00    -0.025 A 
ATOM     25  C   UNL     1      12.979  -3.218  -2.010  0.00  0.00    -0.004 A 
ATOM     26  S   UNL     1      11.482  -4.172  -1.977  0.00  0.00    -0.073 S 
ATOM     27  C   UNL     1      10.329  -2.873  -2.328  0.00  0.00    +0.114 A 
ATOM     28  N   UNL     1       9.019  -2.798  -2.466  0.00  0.00    -0.221 NA
ATOM     29  C   UNL     1      14.372  -3.723  -1.800  0.00  0.00    +0.043 C 
ATOM     30  C   UNL     1      15.091  -2.822  -0.788  0.00  0.00    +0.005 C 
ATOM     31  C   UNL     1      15.776  -1.692  -1.552  0.00  0.00    +0.001 C 
ATOM     32  C   UNL     1      14.950  -1.319  -2.782  0.00  0.00    +0.005 C 
ATOM     33  C   UNL     1      13.579  -0.799  -2.368  0.00  0.00    +0.037 C 
ATOM     34  N   UNL     1      11.173   0.661  -2.890  0.00  0.00    -0.343 N 
ATOM     35  H   UNL     1      12.027   0.774  -2.445  0.00  0.00    +0.144 HD
ATOM     36  H   UNL     1      10.814   1.376  -3.439  0.00  0.00    +0.144 HD
ENDBRANCH  19  20
ENDBRANCH   1  19
TORSDOF 7
