REMARK  Name = ZINC16846772
REMARK  6 active torsions:
REMARK  status: ('A' for Active; 'I' for Inactive)
REMARK    1  A    between atoms: C_1  and  C_2
REMARK    2  A    between atoms: C_2  and  C_3
REMARK    3  A    between atoms: C_3  and  C_23
REMARK    4  A    between atoms: C_13  and  S_18
REMARK    5  A    between atoms: S_18  and  C_19
REMARK    6  A    between atoms: C_19  and  C_20
REMARK                            x       y       z     vdW  Elec       q    Type
REMARK                         _______ _______ _______ _____ _____    ______ ____
ROOT
ATOM      1  C   UNL     1       1.601   5.891   0.464  0.00  0.00    +0.071 C 
ATOM      2  C   UNL     1       2.139   4.531   0.009  0.00  0.00    +0.071 C 
ATOM      3  C   UNL     1       0.978   3.539   0.013  0.00  0.00    -0.019 A 
ATOM      4  C   UNL     1      -0.294   4.001   0.028  0.00  0.00    +0.021 A 
ATOM      5  S   UNL     1      -1.305   2.549   0.035  0.00  0.00    -0.071 S 
ATOM      6  C   UNL     1      -0.016   1.327   0.009  0.00  0.00    +0.116 A 
ATOM      7  C   UNL     1       1.159   2.093   0.002  0.00  0.00    +0.056 A 
ATOM      8  C   UNL     1       2.416   1.312  -0.013  0.00  0.00    +0.174 A 
ATOM      9  N   UNL     1       3.686   1.633  -0.023  0.00  0.00    -0.128 NA
ATOM     10  N   UNL     1       4.403   0.563  -0.034  0.00  0.00    -0.122 NA
ATOM     11  C   UNL     1       3.634  -0.501  -0.033  0.00  0.00    +0.198 A 
ATOM     12  N   UNL     1       2.337  -0.063  -0.020  0.00  0.00    -0.241 N 
ATOM     13  C   UNL     1       1.121  -0.690  -0.012  0.00  0.00    +0.202 A 
ATOM     14  N   UNL     1       0.002  -0.004   0.002  0.00  0.00    -0.208 NA
ATOM     15  N   UNL     1       1.069  -2.064  -0.019  0.00  0.00    -0.328 N 
ATOM     16  C   UNL     1      -0.715   5.437   0.040  0.00  0.00    +0.203 C 
ATOM     17  O   UNL     1       0.433   6.236  -0.287  0.00  0.00    -0.368 OA
ATOM     18  C   UNL     1       1.242   5.823   1.950  0.00  0.00    +0.042 C 
ATOM     19  H   UNL     1       0.212  -2.518  -0.013  0.00  0.00    +0.145 HD
ATOM     20  H   UNL     1       1.891  -2.580  -0.029  0.00  0.00    +0.145 HD
ENDROOT
BRANCH   1  22
ATOM     21  C   UNL     1       2.188   8.294   0.819  0.00  0.00    +0.007 C 
ATOM     22  C   UNL     1       2.675   6.959   0.251  0.00  0.00    +0.032 C 
ENDBRANCH   1  22
BRANCH  11  23
ATOM     23  S   UNL     1       4.171  -2.179  -0.045  0.00  0.00    -0.086 S 
BRANCH  23  24
ATOM     24  C   UNL     1       5.981  -2.061  -0.060  0.00  0.00    +0.074 C 
ATOM     25  C   UNL     1       6.584  -3.467  -0.072  0.00  0.00    +0.016 C 
ENDBRANCH  23  24
ENDBRANCH  11  23
TORSDOF 3
