REMARK  Name = ZINC40391344
REMARK  11 active torsions:
REMARK  status: ('A' for Active; 'I' for Inactive)
REMARK    1  A    between atoms: C_1  and  C_2
REMARK    2  A    between atoms: C_2  and  N_3
REMARK    3  A    between atoms: C_4  and  C_23
REMARK    4  A    between atoms: C_5  and  C_18
REMARK    5  A    between atoms: C_6  and  C_11
REMARK    6  A    between atoms: C_18  and  O_20
REMARK    7  A    between atoms: O_20  and  C_21
REMARK    8  A    between atoms: C_21  and  C_22
REMARK    9  A    between atoms: C_23  and  N_24
REMARK   10  A    between atoms: C_28  and  C_31
REMARK   11  A    between atoms: C_32  and  C_34
REMARK                            x       y       z     vdW  Elec       q    Type
REMARK                         _______ _______ _______ _____ _____    ______ ____
ROOT
ATOM      1  N   UNL     1       0.357   0.623  -1.736  0.00  0.00    -0.258 N 
ATOM      2  C   UNL     1      -0.282   0.588  -2.943  0.00  0.00    +0.041 C 
ATOM      3  C   UNL     1       0.409   0.427  -4.092  0.00  0.00    +0.080 C 
ATOM      4  C   UNL     1       1.914   0.286  -3.997  0.00  0.00    +0.144 C 
ATOM      5  N   UNL     1       2.505   0.338  -2.649  0.00  0.00    -0.288 N 
ATOM      6  C   UNL     1       1.683   0.509  -1.594  0.00  0.00    +0.307 C 
ATOM      7  O   UNL     1       2.162   0.557  -0.478  0.00  0.00    -0.252 OA
ATOM      8  H   UNL     1       3.463   0.254  -2.523  0.00  0.00    +0.151 HD
ENDROOT
BRANCH   4   9
ATOM      9  C   UNL     1       2.537   1.386  -4.818  0.00  0.00    -0.021 A 
ATOM     10  C   UNL     1       2.643   2.662  -4.297  0.00  0.00    +0.006 A 
ATOM     11  C   UNL     1       3.213   3.671  -5.050  0.00  0.00    +0.002 A 
ATOM     12  C   UNL     1       3.677   3.405  -6.324  0.00  0.00    +0.020 A 
ATOM     13  C   UNL     1       3.571   2.129  -6.846  0.00  0.00    +0.041 A 
ATOM     14  C   UNL     1       3.005   1.118  -6.090  0.00  0.00    +0.025 A 
ATOM     15 CL   UNL     1       4.154   1.794  -8.447  0.00  0.00    -0.084 Cl
ENDBRANCH   4   9
BRANCH   1  17
ATOM     16  C   UNL     1      -0.602   2.294  -0.229  0.00  0.00    +0.025 C 
ATOM     17  C   UNL     1      -0.455   0.801  -0.529  0.00  0.00    +0.111 C 
ENDBRANCH   1  17
BRANCH   3  18
ATOM     18  C   UNL     1      -0.251   0.389  -5.343  0.00  0.00    +0.339 C 
ATOM     19  O   UNL     1      -0.504  -0.680  -5.865  0.00  0.00    -0.245 OA
BRANCH  18  20
ATOM     20  O   UNL     1      -0.601   1.540  -5.956  0.00  0.00    -0.462 OA
BRANCH  20  21
ATOM     21  C   UNL     1      -1.264   1.427  -7.216  0.00  0.00    +0.229 C 
ATOM     22  C   UNL     1      -1.579   2.825  -7.753  0.00  0.00    +0.048 C 
ENDBRANCH  20  21
ENDBRANCH  18  20
ENDBRANCH   3  18
BRANCH   2  23
ATOM     23  C   UNL     1      -1.781   0.731  -2.993  0.00  0.00    +0.136 C 
BRANCH  23  24
ATOM     24  N   UNL     1      -2.406  -0.443  -2.369  0.00  0.00    -0.294 NA
ATOM     25  C   UNL     1      -2.138  -1.658  -3.149  0.00  0.00    +0.104 C 
ATOM     26  C   UNL     1      -2.648  -2.880  -2.377  0.00  0.00    +0.124 C 
ATOM     27  N   UNL     1      -4.061  -2.659  -2.035  0.00  0.00    -0.292 N 
ATOM     28  C   UNL     1      -4.429  -1.399  -1.373  0.00  0.00    +0.087 C 
ATOM     29  C   UNL     1      -3.849  -0.235  -2.185  0.00  0.00    +0.107 C 
ATOM     30  C   UNL     1      -5.953  -1.276  -1.309  0.00  0.00    +0.029 C 
ATOM     31  C   UNL     1      -4.995  -3.588  -2.320  0.00  0.00    +0.254 C 
ATOM     32  O   UNL     1      -6.173  -3.346  -2.130  0.00  0.00    -0.269 OA
BRANCH  31  33
ATOM     33  C   UNL     1      -4.593  -4.891  -2.860  0.00  0.00    +0.074 A 
ATOM     34  C   UNL     1      -5.369  -5.858  -3.480  0.00  0.00    +0.021 A 
ATOM     35  C   UNL     1      -4.702  -6.990  -3.884  0.00  0.00    +0.008 A 
ATOM     36  C   UNL     1      -3.369  -7.085  -3.658  0.00  0.00    +0.046 A 
ATOM     37  S   UNL     1      -2.975  -5.640  -2.897  0.00  0.00    -0.092 S 
ENDBRANCH  31  33
ENDBRANCH  23  24
ENDBRANCH   2  23
TORSDOF 8
