REMARK  Name = ZINC02872335
REMARK  13 active torsions:
REMARK  status: ('A' for Active; 'I' for Inactive)
REMARK    1  A    between atoms: C_1  and  C_2
REMARK    2  A    between atoms: C_2  and  C_4
REMARK    3  A    between atoms: C_2  and  N_26
REMARK    4  A    between atoms: C_7  and  S_10
REMARK    5  A    between atoms: N_8  and  C_9
REMARK    6  A    between atoms: S_10  and  C_11
REMARK    7  A    between atoms: C_11  and  C_12
REMARK    8  A    between atoms: N_14  and  C_15
REMARK    9  A    between atoms: C_16  and  C_24
REMARK   10  A    between atoms: C_27  and  C_29
REMARK   11  A    between atoms: C_29  and  C_30
REMARK   12  A    between atoms: C_33  and  O_36
REMARK   13  A    between atoms: O_36  and  C_37
REMARK                            x       y       z     vdW  Elec       q    Type
REMARK                         _______ _______ _______ _____ _____    ______ ____
ROOT
ATOM      1  C   UNL     1      -2.033   1.820   1.355  0.00  0.00    +0.154 A 
ATOM      2  N   UNL     1      -2.223   2.214   2.583  0.00  0.00    -0.132 NA
ATOM      3  N   UNL     1      -1.107   2.228   3.219  0.00  0.00    -0.122 NA
ATOM      4  C   UNL     1      -0.137   1.835   2.427  0.00  0.00    +0.192 A 
ATOM      5  N   UNL     1      -0.698   1.558   1.213  0.00  0.00    -0.308 N 
ATOM      6  C   UNL     1      -0.013   1.086   0.008  0.00  0.00    +0.152 C 
ENDROOT
BRANCH   1   8
ATOM      7  C   UNL     1      -3.924   0.423   0.564  0.00  0.00    +0.036 C 
ATOM      8  C   UNL     1      -3.089   1.676   0.290  0.00  0.00    +0.138 C 
BRANCH   8   9
ATOM      9  N   UNL     1      -3.960   2.855   0.303  0.00  0.00    -0.305 N 
ATOM     10  C   UNL     1      -4.627   3.212  -0.812  0.00  0.00    +0.218 C 
ATOM     11  O   UNL     1      -4.507   2.557  -1.827  0.00  0.00    -0.275 OA
ATOM     12  H   UNL     1      -4.055   3.378   1.114  0.00  0.00    +0.149 HD
BRANCH  10  13
ATOM     13  C   UNL     1      -5.522   4.424  -0.799  0.00  0.00    +0.130 C 
BRANCH  13  14
ATOM     14  C   UNL     1      -6.146   4.603  -2.159  0.00  0.00    -0.038 A 
ATOM     15  C   UNL     1      -5.510   5.375  -3.114  0.00  0.00    +0.007 A 
ATOM     16  C   UNL     1      -6.077   5.536  -4.363  0.00  0.00    +0.046 A 
ATOM     17  C   UNL     1      -7.290   4.931  -4.656  0.00  0.00    +0.120 A 
ATOM     18  C   UNL     1      -7.929   4.161  -3.695  0.00  0.00    +0.046 A 
ATOM     19  C   UNL     1      -7.355   3.999  -2.449  0.00  0.00    +0.007 A 
BRANCH  17  20
ATOM     20  O   UNL     1      -7.853   5.092  -5.883  0.00  0.00    -0.495 OA
ATOM     21  C   UNL     1      -7.139   5.898  -6.823  0.00  0.00    +0.277 C 
ENDBRANCH  17  20
ENDBRANCH  13  14
ENDBRANCH  10  13
ENDBRANCH   8   9
ENDBRANCH   1   8
BRANCH   4  22
ATOM     22  S   UNL     1       1.568   1.691   2.849  0.00  0.00    -0.077 S 
BRANCH  22  23
ATOM     23  C   UNL     1       1.509   2.221   4.579  0.00  0.00    +0.173 C 
BRANCH  23  24
ATOM     24  C   UNL     1       2.897   2.177   5.165  0.00  0.00    +0.228 C 
ATOM     25  O   UNL     1       3.833   1.823   4.481  0.00  0.00    -0.275 OA
ATOM     26  N   UNL     1       3.097   2.533   6.450  0.00  0.00    -0.278 N 
ATOM     27  H   UNL     1       2.348   2.816   6.997  0.00  0.00    +0.155 HD
BRANCH  26  28
ATOM     28  C   UNL     1       4.375   2.492   6.990  0.00  0.00    +0.090 A 
ATOM     29  C   UNL     1       4.778   2.821   8.275  0.00  0.00    +0.084 A 
ATOM     30  C   UNL     1       6.189   2.687   8.592  0.00  0.00    -0.018 A 
ATOM     31  C   UNL     1       6.968   2.258   7.576  0.00  0.00    -0.004 A 
ATOM     32  S   UNL     1       5.855   2.026   6.219  0.00  0.00    -0.077 S 
ATOM     33  C   UNL     1       8.449   2.033   7.606  0.00  0.00    +0.043 C 
ATOM     34  C   UNL     1       9.017   2.720   8.856  0.00  0.00    +0.005 C 
ATOM     35  C   UNL     1       8.157   2.335  10.064  0.00  0.00    +0.005 C 
ATOM     36  C   UNL     1       6.785   3.004   9.959  0.00  0.00    +0.037 C 
BRANCH  29  37
ATOM     37  C   UNL     1       3.836   3.273   9.255  0.00  0.00    +0.102 C 
ATOM     38  N   UNL     1       3.090   3.631  10.033  0.00  0.00    -0.191 NA
ENDBRANCH  29  37
ENDBRANCH  26  28
ENDBRANCH  23  24
ENDBRANCH  22  23
ENDBRANCH   4  22
TORSDOF 10
