REMARK  Name = ZINC29934538
REMARK  8 active torsions:
REMARK  status: ('A' for Active; 'I' for Inactive)
REMARK    1  A    between atoms: C_1  and  C_2
REMARK    2  A    between atoms: C_2  and  C_4
REMARK    3  A    between atoms: C_2  and  N_14
REMARK    4  A    between atoms: C_15  and  C_17
REMARK    5  A    between atoms: C_17  and  N_18
REMARK    6  A    between atoms: C_21  and  N_24
REMARK    7  A    between atoms: N_24  and  S_25
REMARK    8  A    between atoms: S_25  and  C_28
REMARK                            x       y       z     vdW  Elec       q    Type
REMARK                         _______ _______ _______ _____ _____    ______ ____
ROOT
ATOM      1  N   UNL     1      -0.242  -1.150  -4.714  0.00  0.00    +0.385 N 
ATOM      2  C   UNL     1      -1.273  -2.155  -4.425  0.00  0.00    -0.077 C 
ATOM      3  C   UNL     1      -2.314  -2.160  -5.546  0.00  0.00    +0.002 C 
ATOM      4  C   UNL     1      -1.627  -2.499  -6.872  0.00  0.00    +0.073 C 
ATOM      5  C   UNL     1      -0.505  -1.489  -7.127  0.00  0.00    +0.002 C 
ATOM      6  C   UNL     1       0.470  -1.508  -5.947  0.00  0.00    -0.077 C 
ATOM      7  H   UNL     1      -0.678  -0.247  -4.829  0.00  0.00    -0.081 HD
ENDROOT
BRANCH   4   8
ATOM      8  N   UNL     1      -2.604  -2.432  -7.962  0.00  0.00    -0.187 NA
ATOM      9  H   UNL     1      -3.313  -1.771  -7.937  0.00  0.00    +0.148 HD
BRANCH   8  10
ATOM     10  S   UNL     1      -2.497  -3.485  -9.236  0.00  0.00    +0.059 S 
ATOM     11  O   UNL     1      -3.585  -3.188 -10.099  0.00  0.00    -0.153 OA
ATOM     12  O   UNL     1      -1.146  -3.455  -9.675  0.00  0.00    -0.153 OA
BRANCH  10  13
ATOM     13  C   UNL     1      -2.784  -5.103  -8.600  0.00  0.00    +0.105 A 
ATOM     14  C   UNL     1      -1.724  -5.863  -8.142  0.00  0.00    +0.031 A 
ATOM     15  C   UNL     1      -1.948  -7.132  -7.642  0.00  0.00    +0.040 A 
ATOM     16  C   UNL     1      -3.235  -7.642  -7.602  0.00  0.00    +0.124 A 
ATOM     17  C   UNL     1      -4.295  -6.880  -8.061  0.00  0.00    +0.040 A 
ATOM     18  C   UNL     1      -4.069  -5.609  -8.555  0.00  0.00    +0.031 A 
ATOM     19  F   UNL     1      -3.455  -8.883  -7.114  0.00  0.00    -0.205 F 
ENDBRANCH  10  13
ENDBRANCH   8  10
ENDBRANCH   4   8
BRANCH   1  20
ATOM     20  C   UNL     1       0.712  -1.094  -3.598  0.00  0.00    +0.019 C 
BRANCH  20  22
ATOM     21  N   UNL     1       0.688  -0.476  -1.203  0.00  0.00    -0.310 N 
ATOM     22  C   UNL     1       0.006  -0.608  -2.358  0.00  0.00    +0.197 C 
ATOM     23  O   UNL     1      -1.175  -0.336  -2.400  0.00  0.00    -0.278 OA
ATOM     24  H   UNL     1       1.632  -0.695  -1.170  0.00  0.00    +0.149 HD
BRANCH  21  26
ATOM     25  C   UNL     1      -0.019   1.526   0.010  0.00  0.00    +0.033 C 
ATOM     26  C   UNL     1       0.002  -0.004   0.002  0.00  0.00    +0.100 C 
BRANCH  26  27
ATOM     27  C   UNL     1       0.731  -0.503   1.223  0.00  0.00    -0.027 A 
ATOM     28  C   UNL     1       2.125  -0.509   1.236  0.00  0.00    +0.006 A 
ATOM     29  C   UNL     1       2.813  -0.954   2.322  0.00  0.00    +0.009 A 
ATOM     30  C   UNL     1       2.112  -1.414   3.450  0.00  0.00    -0.018 A 
ATOM     31  C   UNL     1       2.789  -1.880   4.590  0.00  0.00    +0.008 A 
ATOM     32  C   UNL     1       2.076  -2.318   5.663  0.00  0.00    +0.001 A 
ATOM     33  C   UNL     1       0.682  -2.312   5.651  0.00  0.00    +0.001 A 
ATOM     34  C   UNL     1      -0.006  -1.867   4.564  0.00  0.00    +0.008 A 
ATOM     35  C   UNL     1       0.695  -1.408   3.437  0.00  0.00    -0.018 A 
ATOM     36  C   UNL     1       0.018  -0.936   2.299  0.00  0.00    +0.014 A 
ENDBRANCH  26  27
ENDBRANCH  21  26
ENDBRANCH  20  22
ENDBRANCH   1  20
TORSDOF 7
