REMARK  Name = ZINC40752287
REMARK  6 active torsions:
REMARK  status: ('A' for Active; 'I' for Inactive)
REMARK    1  A    between atoms: C_1  and  C_2
REMARK    2  A    between atoms: C_9  and  O_12
REMARK    3  A    between atoms: O_12  and  C_13
REMARK    4  A    between atoms: C_14  and  N_28
REMARK    5  A    between atoms: C_15  and  N_19
REMARK    6  A    between atoms: N_19  and  C_20
REMARK                            x       y       z     vdW  Elec       q    Type
REMARK                         _______ _______ _______ _____ _____    ______ ____
ROOT
ATOM      1  C   UNL     1      -0.008  -2.681   4.747  0.00  0.00    +0.246 A 
ATOM      2  C   UNL     1      -0.135  -2.022   5.970  0.00  0.00    +0.128 A 
ATOM      3  C   UNL     1      -0.244  -2.796   7.128  0.00  0.00    +0.151 A 
ATOM      4  N   UNL     1      -0.223  -4.122   7.021  0.00  0.00    -0.218 NA
ATOM      5  C   UNL     1      -0.101  -4.704   5.845  0.00  0.00    +0.227 A 
ATOM      6  N   UNL     1      -0.001  -4.011   4.729  0.00  0.00    -0.199 NA
ENDROOT
BRANCH   2   7
ATOM      7  N   UNL     1      -0.151  -0.621   6.035  0.00  0.00    -0.351 N 
ATOM      8  H   UNL     1      -0.074  -0.097   5.222  0.00  0.00    +0.143 HD
ATOM      9  H   UNL     1      -0.240  -0.176   6.892  0.00  0.00    +0.143 HD
ENDBRANCH   2   7
BRANCH   3  10
ATOM     10  N   UNL     1      -0.372  -2.190   8.372  0.00  0.00    -0.297 N 
ATOM     11  H   UNL     1      -0.473  -1.227   8.435  0.00  0.00    +0.154 HD
BRANCH  10  12
ATOM     12  C   UNL     1      -0.354  -2.968   9.534  0.00  0.00    +0.052 A 
ATOM     13  C   UNL     1       0.276  -4.205   9.533  0.00  0.00    +0.044 A 
ATOM     14  C   UNL     1       0.292  -4.972  10.684  0.00  0.00    +0.043 A 
ATOM     15  C   UNL     1      -0.320  -4.507  11.835  0.00  0.00    +0.021 A 
ATOM     16  C   UNL     1      -0.948  -3.275  11.839  0.00  0.00    +0.023 A 
ATOM     17  C   UNL     1      -0.963  -2.502  10.693  0.00  0.00    +0.062 A 
ATOM     18 CL   UNL     1      -1.746  -0.953  10.701  0.00  0.00    -0.082 Cl
ATOM     19 CL   UNL     1       1.079  -6.519  10.684  0.00  0.00    -0.083 Cl
ENDBRANCH  10  12
ENDBRANCH   3  10
BRANCH   1  20
ATOM     20  O   UNL     1       0.102  -1.977   3.593  0.00  0.00    -0.434 OA
BRANCH  20  29
ATOM     21  C   UNL     1      -4.689  -3.016   2.641  0.00  0.00    +0.065 C 
ATOM     22  C   UNL     1      -3.394  -3.309   1.929  0.00  0.00    +0.039 A 
ATOM     23  C   UNL     1      -3.425  -4.021   0.731  0.00  0.00    +0.023 A 
ATOM     24  C   UNL     1      -2.261  -4.296   0.071  0.00  0.00    +0.012 A 
ATOM     25  C   UNL     1      -1.054  -3.841   0.636  0.00  0.00    +0.004 A 
ATOM     26  C   UNL     1       0.181  -4.085   0.015  0.00  0.00    +0.010 A 
ATOM     27  C   UNL     1       1.329  -3.629   0.590  0.00  0.00    +0.004 A 
ATOM     28  C   UNL     1       1.296  -2.923   1.790  0.00  0.00    +0.048 A 
ATOM     29  C   UNL     1       0.114  -2.667   2.423  0.00  0.00    +0.156 A 
ATOM     30  C   UNL     1      -1.095  -3.123   1.856  0.00  0.00    +0.113 A 
ATOM     31  N   UNL     1      -2.268  -2.884   2.449  0.00  0.00    -0.248 NA
ENDBRANCH  20  29
ENDBRANCH   1  20
TORSDOF 5
