REMARK  Name = ZINC47999913
REMARK  8 active torsions:
REMARK  status: ('A' for Active; 'I' for Inactive)
REMARK    1  A    between atoms: C_1  and  C_2
REMARK    2  A    between atoms: N_8  and  C_9
REMARK    3  A    between atoms: C_9  and  C_10
REMARK    4  A    between atoms: C_10  and  C_11
REMARK    5  A    between atoms: C_11  and  C_12
REMARK    6  A    between atoms: C_12  and  N_13
REMARK    7  A    between atoms: C_14  and  C_16
REMARK    8  A    between atoms: C_16  and  N_18
REMARK                            x       y       z     vdW  Elec       q    Type
REMARK                         _______ _______ _______ _____ _____    ______ ____
ROOT
ATOM      1  N   UNL     1       0.376   0.344   7.323  0.00  0.00    -0.308 N 
ATOM      2  C   UNL     1       0.917   0.114   8.536  0.00  0.00    +0.301 C 
ATOM      3  O   UNL     1       1.935  -0.538   8.632  0.00  0.00    -0.265 OA
ATOM      4  H   UNL     1      -0.439   0.866   7.246  0.00  0.00    +0.149 HD
ENDROOT
BRANCH   2   5
ATOM      5  C   UNL     1       0.263   0.662   9.760  0.00  0.00    +0.324 C 
ATOM      6  O   UNL     1      -0.759   1.317   9.664  0.00  0.00    -0.263 OA
BRANCH   5   7
ATOM      7  N   UNL     1       0.797   0.435  10.958  0.00  0.00    -0.148 NA
ATOM      8  C   UNL     1       0.214   0.924  12.051  0.00  0.00    +0.164 A 
ATOM      9  N   UNL     1       0.621   0.796  13.339  0.00  0.00    -0.335 N 
ATOM     10  C   UNL     1      -0.116   1.376  14.354  0.00  0.00    +0.055 A 
ATOM     11  C   UNL     1       0.120   1.367  15.736  0.00  0.00    +0.027 A 
ATOM     12  C   UNL     1      -0.739   2.009  16.596  0.00  0.00    +0.002 A 
ATOM     13  C   UNL     1      -1.857   2.680  16.127  0.00  0.00    +0.001 A 
ATOM     14  C   UNL     1      -2.112   2.704  14.768  0.00  0.00    +0.017 A 
ATOM     15  C   UNL     1      -1.254   2.063  13.905  0.00  0.00    +0.039 A 
ATOM     16  S   UNL     1      -1.188   1.846  12.146  0.00  0.00    -0.052 S 
ATOM     17  H   UNL     1       1.426   0.298  13.547  0.00  0.00    +0.168 HD
ENDBRANCH   5   7
ENDBRANCH   2   5
BRANCH   1  18
ATOM     18  C   UNL     1       1.017  -0.194   6.121  0.00  0.00    +0.104 C 
BRANCH  18  19
ATOM     19  C   UNL     1       0.207   0.209   4.887  0.00  0.00    +0.017 C 
BRANCH  19  20
ATOM     20  C   UNL     1       0.877  -0.353   3.631  0.00  0.00    -0.017 C 
BRANCH  20  21
ATOM     21  C   UNL     1       0.067   0.050   2.397  0.00  0.00    -0.078 C 
BRANCH  21  28
ATOM     22  C   UNL     1      -0.019   1.526   0.010  0.00  0.00    -0.013 C 
ATOM     23  C   UNL     1       0.002  -0.004   0.002  0.00  0.00    -0.072 C 
ATOM     24  C   UNL     1       0.717  -0.497  -1.258  0.00  0.00    -0.016 C 
ATOM     25  C   UNL     1       0.735  -2.028  -1.262  0.00  0.00    -0.003 C 
ATOM     26  C   UNL     1       1.410  -2.524   0.020  0.00  0.00    -0.019 C 
ATOM     27  C   UNL     1       0.669  -1.956   1.232  0.00  0.00    -0.078 C 
ATOM     28  N   UNL     1       0.711  -0.490   1.192  0.00  0.00    +0.381 N 
ATOM     29  H   UNL     1       1.671  -0.182   1.159  0.00  0.00    -0.081 HD
ENDBRANCH  21  28
ENDBRANCH  20  21
ENDBRANCH  19  20
ENDBRANCH  18  19
ENDBRANCH   1  18
TORSDOF 7
