REMARK  Name = ZINC08609417
REMARK  4 active torsions:
REMARK  status: ('A' for Active; 'I' for Inactive)
REMARK    1  A    between atoms: C_1  and  N_2
REMARK    2  A    between atoms: C_9  and  S_11
REMARK    3  A    between atoms: S_11  and  N_14
REMARK    4  A    between atoms: N_23  and  C_24
REMARK                            x       y       z     vdW  Elec       q    Type
REMARK                         _______ _______ _______ _____ _____    ______ ____
ROOT
ATOM      1  N   UNL     1      -1.772  -4.847   3.464  0.00  0.00    -0.175 NA
ATOM      2  C   UNL     1      -1.922  -3.873   4.507  0.00  0.00    +0.111 C 
ATOM      3  C   UNL     1      -1.065  -4.324   5.702  0.00  0.00    +0.036 C 
ATOM      4  C   UNL     1      -1.720  -5.391   6.474  0.00  0.00    +0.110 C 
ATOM      5  N   UNL     1      -1.996  -6.560   5.606  0.00  0.00    -0.284 N 
ATOM      6  C   UNL     1      -3.107  -6.534   4.696  0.00  0.00    +0.126 C 
ATOM      7  C   UNL     1      -2.721  -5.981   3.298  0.00  0.00    +0.128 C 
ATOM      8  C   UNL     1      -1.204  -7.648   5.670  0.00  0.00    +0.306 C 
ATOM      9  O   UNL     1      -0.213  -7.638   6.375  0.00  0.00    -0.252 OA
ATOM     10  N   UNL     1      -1.510  -8.748   4.954  0.00  0.00    -0.269 N 
ATOM     11  H   UNL     1      -2.239  -8.723   4.315  0.00  0.00    +0.156 HD
ENDROOT
BRANCH  10  12
ATOM     12  C   UNL     1      -0.777  -9.927   5.133  0.00  0.00    +0.035 A 
ATOM     13  C   UNL     1      -0.269 -10.247   6.386  0.00  0.00    +0.024 A 
ATOM     14  C   UNL     1       0.454 -11.410   6.559  0.00  0.00    +0.017 A 
ATOM     15  C   UNL     1       0.673 -12.257   5.487  0.00  0.00    +0.018 A 
ATOM     16  C   UNL     1       0.169 -11.941   4.239  0.00  0.00    +0.017 A 
ATOM     17  C   UNL     1      -0.560 -10.781   4.060  0.00  0.00    +0.024 A 
ATOM     18 BR   UNL     1       1.665 -13.849   5.729  0.00  0.00    -0.050 Br
ENDBRANCH  10  12
BRANCH   1  19
ATOM     19  S   UNL     1      -0.507  -4.699   2.406  0.00  0.00    +0.061 S 
ATOM     20  O   UNL     1      -0.265  -5.996   1.879  0.00  0.00    -0.153 OA
ATOM     21  O   UNL     1       0.497  -3.949   3.075  0.00  0.00    -0.153 OA
BRANCH  19  30
ATOM     22  C   UNL     1      -2.496  -0.187  -2.568  0.00  0.00    +0.149 C 
ATOM     23  N   UNL     1      -2.453  -1.607  -2.212  0.00  0.00    -0.350 N 
ATOM     24  C   UNL     1      -2.916  -2.629  -2.995  0.00  0.00    +0.086 A 
ATOM     25  C   UNL     1      -2.725  -3.804  -2.375  0.00  0.00    +0.027 A 
ATOM     26  C   UNL     1      -2.088  -3.511  -1.089  0.00  0.00    +0.002 A 
ATOM     27  C   UNL     1      -1.934  -2.114  -1.041  0.00  0.00    +0.049 A 
ATOM     28  C   UNL     1      -1.343  -1.532   0.076  0.00  0.00    +0.028 A 
ATOM     29  C   UNL     1      -0.914  -2.327   1.116  0.00  0.00    +0.030 A 
ATOM     30  C   UNL     1      -1.065  -3.705   1.062  0.00  0.00    +0.106 A 
ATOM     31  C   UNL     1      -1.650  -4.298  -0.022  0.00  0.00    +0.038 A 
ENDBRANCH  19  30
ENDBRANCH   1  19
TORSDOF 3
