REMARK  Name = ZINC21237440
REMARK  7 active torsions:
REMARK  status: ('A' for Active; 'I' for Inactive)
REMARK    1  A    between atoms: C_1  and  C_2
REMARK    2  A    between atoms: C_2  and  C_3
REMARK    3  A    between atoms: C_2  and  C_4
REMARK    4  A    between atoms: C_4  and  O_5
REMARK    5  A    between atoms: O_5  and  C_6
REMARK    6  A    between atoms: C_9  and  C_12
REMARK    7  A    between atoms: C_17  and  C_27
REMARK                            x       y       z     vdW  Elec       q    Type
REMARK                         _______ _______ _______ _____ _____    ______ ____
ROOT
ATOM      1  C   UNL     1      -3.069   4.223  -4.206  0.00  0.00    +0.032 C 
ATOM      2  C   UNL     1      -4.344   3.858  -3.448  0.00  0.00    +0.059 C 
ATOM      3  C   UNL     1      -4.011   3.511  -2.007  0.00  0.00    +0.017 C 
ATOM      4  C   UNL     1      -2.983   4.109  -1.381  0.00  0.00    +0.036 C 
ATOM      5  C   UNL     1      -2.553   3.869   0.045  0.00  0.00    +0.136 C 
ATOM      6  N   UNL     1      -3.494   3.107   0.838  0.00  0.00    -0.331 N 
ATOM      7  C   UNL     1      -3.784   1.779   0.527  0.00  0.00    +0.049 A 
ATOM      8  C   UNL     1      -3.456   0.745   1.389  0.00  0.00    +0.025 A 
ATOM      9  C   UNL     1      -3.720  -0.561   1.015  0.00  0.00    +0.002 A 
ATOM     10  C   UNL     1      -4.304  -0.835  -0.209  0.00  0.00    +0.002 A 
ATOM     11  C   UNL     1      -4.649   0.198  -1.064  0.00  0.00    +0.025 A 
ATOM     12  C   UNL     1      -4.406   1.505  -0.682  0.00  0.00    +0.052 A 
ATOM     13  N   UNL     1      -4.831   2.592  -1.438  0.00  0.00    -0.316 N 
ATOM     14  C   UNL     1      -2.188   5.060  -2.065  0.00  0.00    +0.163 C 
ATOM     15  O   UNL     1      -1.276   5.599  -1.470  0.00  0.00    -0.292 OA
ATOM     16  C   UNL     1      -2.433   5.425  -3.499  0.00  0.00    +0.088 C 
ATOM     17  H   UNL     1      -3.993   3.575   1.700  0.00  0.00    +0.147 HD
ATOM     18  H   UNL     1      -5.920   2.676  -1.560  0.00  0.00    +0.152 HD
ENDROOT
BRANCH   1  22
ATOM     19  C   UNL     1      -4.028   5.253  -8.241  0.00  0.00    +0.121 A 
ATOM     20  C   UNL     1      -3.175   4.191  -7.979  0.00  0.00    +0.046 A 
ATOM     21  C   UNL     1      -2.866   3.861  -6.674  0.00  0.00    +0.007 A 
ATOM     22  C   UNL     1      -3.407   4.586  -5.629  0.00  0.00    -0.043 A 
ATOM     23  C   UNL     1      -4.263   5.641  -5.887  0.00  0.00    +0.007 A 
ATOM     24  C   UNL     1      -4.570   5.980  -7.191  0.00  0.00    +0.046 A 
BRANCH  19  25
ATOM     25  O   UNL     1      -4.333   5.581  -9.524  0.00  0.00    -0.492 OA
BRANCH  25  26
ATOM     26  C   UNL     1      -5.219   6.686  -9.719  0.00  0.00    +0.232 C 
BRANCH  26  28
ATOM     27  C   UNL     1      -6.170   5.692 -11.804  0.00  0.00    +0.010 C 
ATOM     28  C   UNL     1      -5.442   6.902 -11.217  0.00  0.00    +0.020 C 
ATOM     29  C   UNL     1      -6.289   8.159 -11.430  0.00  0.00    +0.010 C 
ENDBRANCH  26  28
ENDBRANCH  25  26
ENDBRANCH  19  25
ENDBRANCH   1  22
BRANCH   5  30
ATOM     30  C   UNL     1      -1.238   3.133   0.030  0.00  0.00    -0.023 A 
ATOM     31  C   UNL     1      -1.171   1.847  -0.473  0.00  0.00    +0.006 A 
ATOM     32  C   UNL     1       0.035   1.171  -0.483  0.00  0.00    +0.000 A 
ATOM     33  C   UNL     1       1.175   1.784   0.001  0.00  0.00    +0.000 A 
ATOM     34  C   UNL     1       1.109   3.071   0.499  0.00  0.00    +0.000 A 
ATOM     35  C   UNL     1      -0.097   3.746   0.513  0.00  0.00    +0.006 A 
ENDBRANCH   5  30
TORSDOF 5
