REMARK  Name = ZINC15974991
REMARK  2 active torsions:
REMARK  status: ('A' for Active; 'I' for Inactive)
REMARK    1  A    between atoms: C_16  and  C_18
REMARK    2  A    between atoms: N_23  and  C_26
REMARK                            x       y       z     vdW  Elec       q    Type
REMARK                         _______ _______ _______ _____ _____    ______ ____
ROOT
ATOM      1  C   UNL     1       0.280   2.195  -0.359  0.00  0.00    +0.001 A 
ATOM      2  C   UNL     1       1.547   2.742  -0.457  0.00  0.00    +0.000 A 
ATOM      3  C   UNL     1       2.667   1.932  -0.360  0.00  0.00    +0.006 A 
ATOM      4  C   UNL     1       2.520   0.579  -0.163  0.00  0.00    -0.019 A 
ATOM      5  C   UNL     1       1.242   0.015  -0.057  0.00  0.00    -0.019 A 
ATOM      6  C   UNL     1       0.120   0.839  -0.160  0.00  0.00    +0.008 A 
ATOM      7  C   UNL     1       1.083  -1.435   0.171  0.00  0.00    +0.023 C 
ATOM      8  C   UNL     1       2.118  -2.261  -0.081  0.00  0.00    +0.072 C 
ATOM      9  N   UNL     1       3.289  -1.661  -0.526  0.00  0.00    -0.316 N 
ATOM     10  C   UNL     1       3.717  -0.330  -0.061  0.00  0.00    +0.117 C 
ATOM     11  C   UNL     1       4.854   0.139  -0.978  0.00  0.00    +0.115 C 
ATOM     12  C   UNL     1       5.415  -1.188  -1.577  0.00  0.00    +0.119 C 
ATOM     13  C   UNL     1       4.227  -2.158  -1.526  0.00  0.00    +0.172 C 
ATOM     14  C   UNL     1       6.460  -1.577  -0.553  0.00  0.00    +0.232 C 
ATOM     15  O   UNL     1       6.919  -2.688  -0.393  0.00  0.00    -0.274 OA
ATOM     16  N   UNL     1       6.791  -0.480   0.147  0.00  0.00    -0.210 N 
ATOM     17  C   UNL     1       6.008   0.611  -0.106  0.00  0.00    +0.232 C 
ATOM     18  O   UNL     1       6.189   1.746   0.277  0.00  0.00    -0.274 OA
ENDROOT
BRANCH  16  19
ATOM     19  C   UNL     1       7.852  -0.452   1.064  0.00  0.00    +0.047 A 
ATOM     20  C   UNL     1       8.699  -1.545   1.180  0.00  0.00    +0.044 A 
ATOM     21  C   UNL     1       9.744  -1.516   2.084  0.00  0.00    +0.044 A 
ATOM     22  C   UNL     1       9.946  -0.397   2.873  0.00  0.00    +0.040 A 
ATOM     23  C   UNL     1       9.103   0.694   2.759  0.00  0.00    +0.044 A 
ATOM     24  C   UNL     1       8.059   0.671   1.852  0.00  0.00    +0.044 A 
ATOM     25 CL   UNL     1       9.359   2.096   3.751  0.00  0.00    -0.083 Cl
ATOM     26 CL   UNL     1      10.804  -2.883   2.230  0.00  0.00    -0.083 Cl
ENDBRANCH  16  19
BRANCH  13  27
ATOM     27  C   UNL     1       4.707  -3.533  -1.138  0.00  0.00    +0.232 C 
ATOM     28  O   UNL     1       4.586  -3.917   0.006  0.00  0.00    -0.274 OA
ATOM     29  N   UNL     1       5.269  -4.337  -2.063  0.00  0.00    -0.328 N 
ATOM     30  H   UNL     1       5.365  -4.030  -2.978  0.00  0.00    +0.145 HD
ATOM     31  H   UNL     1       5.577  -5.222  -1.813  0.00  0.00    +0.145 HD
ENDBRANCH  13  27
TORSDOF 2
