REMARK  Name = ZINC02337123
REMARK  5 active torsions:
REMARK  status: ('A' for Active; 'I' for Inactive)
REMARK    1  A    between atoms: C_4  and  C_24
REMARK    2  A    between atoms: C_5  and  C_7
REMARK    3  A    between atoms: C_7  and  N_8
REMARK    4  A    between atoms: C_9  and  N_23
REMARK    5  A    between atoms: C_10  and  C_21
REMARK                            x       y       z     vdW  Elec       q    Type
REMARK                         _______ _______ _______ _____ _____    ______ ____
ROOT
ATOM      1  N   UNL     1       3.454  -0.879  -0.031  0.00  0.00    -0.307 N 
ATOM      2  C   UNL     1       2.992  -2.161  -0.033  0.00  0.00    +0.118 A 
ATOM      3  C   UNL     1       1.603  -2.176  -0.019  0.00  0.00    +0.118 A 
ATOM      4  C   UNL     1       1.170  -0.770  -0.008  0.00  0.00    +0.128 A 
ATOM      5  C   UNL     1       2.406   0.018  -0.016  0.00  0.00    +0.163 A 
ATOM      6  N   UNL     1       2.336   1.331  -0.009  0.00  0.00    -0.226 NA
ATOM      7  C   UNL     1       1.141   1.936   0.005  0.00  0.00    +0.092 A 
ATOM      8  C   UNL     1       1.058   3.341   0.012  0.00  0.00    +0.030 A 
ATOM      9  C   UNL     1      -0.160   3.947   0.027  0.00  0.00    +0.002 A 
ATOM     10  C   UNL     1      -1.334   3.196   0.036  0.00  0.00    +0.002 A 
ATOM     11  C   UNL     1      -1.294   1.837   0.024  0.00  0.00    +0.030 A 
ATOM     12  C   UNL     1      -0.053   1.173   0.014  0.00  0.00    +0.090 A 
ATOM     13  N   UNL     1      -0.001  -0.164   0.007  0.00  0.00    -0.241 NA
ENDROOT
BRANCH   2  14
ATOM     14  N   UNL     1       3.787  -3.279  -0.046  0.00  0.00    -0.343 N 
ATOM     15  H   UNL     1       3.383  -4.161  -0.046  0.00  0.00    +0.144 HD
ATOM     16  H   UNL     1       4.753  -3.188  -0.054  0.00  0.00    +0.144 HD
ENDBRANCH   2  14
BRANCH   3  17
ATOM     17  C   UNL     1       0.759  -3.333  -0.016  0.00  0.00    +0.105 C 
ATOM     18  N   UNL     1       0.089  -4.250  -0.014  0.00  0.00    -0.191 NA
ENDBRANCH   3  17
BRANCH   1  19
ATOM     19  C   UNL     1       4.871  -0.505  -0.043  0.00  0.00    +0.160 C 
BRANCH  19  24
ATOM     20  C   UNL     1       4.949  -0.649  -3.815  0.00  0.00    +0.000 A 
ATOM     21  C   UNL     1       6.291  -0.438  -4.071  0.00  0.00    +0.001 A 
ATOM     22  C   UNL     1       7.173  -0.247  -3.024  0.00  0.00    +0.013 A 
ATOM     23  C   UNL     1       6.713  -0.265  -1.720  0.00  0.00    +0.060 A 
ATOM     24  C   UNL     1       5.372  -0.481  -1.464  0.00  0.00    -0.016 A 
ATOM     25  C   UNL     1       4.489  -0.671  -2.511  0.00  0.00    +0.006 A 
BRANCH  23  26
ATOM     26  C   UNL     1       7.673  -0.052  -0.579  0.00  0.00    +0.418 C 
ATOM     27  F   UNL     1       8.944   0.237  -1.087  0.00  0.00    -0.166 F 
ATOM     28  F   UNL     1       7.232   1.016   0.209  0.00  0.00    -0.166 F 
ATOM     29  F   UNL     1       7.736  -1.212   0.201  0.00  0.00    -0.166 F 
ENDBRANCH  23  26
ENDBRANCH  19  24
ENDBRANCH   1  19
TORSDOF 5
