REMARK  Name = ZINC15007982
REMARK  11 active torsions:
REMARK  status: ('A' for Active; 'I' for Inactive)
REMARK    1  A    between atoms: C_1  and  C_2
REMARK    2  A    between atoms: C_10  and  C_12
REMARK    3  A    between atoms: C_12  and  C_14
REMARK    4  A    between atoms: C_12  and  N_15
REMARK    5  A    between atoms: C_16  and  C_18
REMARK    6  A    between atoms: N_20  and  C_29
REMARK    7  A    between atoms: C_22  and  C_25
REMARK    8  A    between atoms: N_27  and  C_28
REMARK    9  A    between atoms: C_29  and  C_30
REMARK   10  A    between atoms: C_30  and  C_31
REMARK   11  A    between atoms: C_31  and  C_32
REMARK                            x       y       z     vdW  Elec       q    Type
REMARK                         _______ _______ _______ _____ _____    ______ ____
ROOT
ATOM      1  C   UNL     1      -1.715  -8.700   1.033  0.00  0.00    +0.100 A 
ATOM      2  C   UNL     1      -2.363  -9.794   1.565  0.00  0.00    +0.102 A 
ATOM      3  N   UNL     1      -2.972 -10.698   0.780  0.00  0.00    -0.352 N 
ATOM      4  C   UNL     1      -3.000 -10.612  -0.560  0.00  0.00    +0.102 A 
ATOM      5  C   UNL     1      -2.393  -9.570  -1.226  0.00  0.00    +0.100 A 
ATOM      6  C   UNL     1      -1.709  -8.537  -0.430  0.00  0.00    +0.206 A 
ATOM      7  O   UNL     1      -1.158  -7.587  -0.962  0.00  0.00    -0.286 OA
ENDROOT
BRANCH   5   8
ATOM      8  C   UNL     1      -2.430  -9.490  -2.696  0.00  0.00    +0.249 C 
ATOM      9  O   UNL     1      -3.089 -10.290  -3.332  0.00  0.00    -0.270 OA
ATOM     10  N   UNL     1      -1.736  -8.529  -3.337  0.00  0.00    -0.314 N 
ATOM     11  C   UNL     1      -1.683  -8.515  -4.801  0.00  0.00    +0.128 C 
ATOM     12  H   UNL     1      -1.271  -7.846  -2.828  0.00  0.00    +0.149 HD
ENDBRANCH   5   8
BRANCH   1  14
ATOM     13  N   UNL     1      -0.520  -6.597   1.377  0.00  0.00    -0.302 N 
ATOM     14  C   UNL     1      -1.051  -7.717   1.905  0.00  0.00    +0.250 C 
ATOM     15  O   UNL     1      -0.981  -7.917   3.103  0.00  0.00    -0.270 OA
ATOM     16  H   UNL     1      -0.510  -6.472   0.415  0.00  0.00    +0.150 HD
BRANCH  13  17
ATOM     17  C   UNL     1       0.041  -5.567   2.255  0.00  0.00    +0.136 C 
ATOM     18  C   UNL     1       1.491  -5.919   2.592  0.00  0.00    +0.036 C 
BRANCH  17  28
ATOM     19  C   UNL     1      -0.179   1.534   0.037  0.00  0.00    +0.044 C 
ATOM     20  C   UNL     1      -0.136   0.027   0.025  0.00  0.00    -0.048 A 
ATOM     21  C   UNL     1      -0.125  -0.652  -1.186  0.00  0.00    +0.005 A 
ATOM     22  C   UNL     1      -0.086  -2.017  -1.219  0.00  0.00    +0.030 A 
ATOM     23  C   UNL     1      -0.057  -2.741  -0.025  0.00  0.00    +0.089 A 
ATOM     24  C   UNL     1      -0.068  -2.055   1.201  0.00  0.00    +0.067 A 
ATOM     25  C   UNL     1      -0.102  -0.667   1.215  0.00  0.00    +0.031 A 
ATOM     26  N   UNL     1      -0.033  -3.026   2.182  0.00  0.00    -0.340 N 
ATOM     27  H   UNL     1      -0.030  -2.875   3.140  0.00  0.00    +0.167 HD
ATOM     28  C   UNL     1      -0.003  -4.233   1.556  0.00  0.00    +0.128 A 
ATOM     29  N   UNL     1      -0.017  -4.067   0.265  0.00  0.00    -0.231 NA
ENDBRANCH  17  28
ENDBRANCH  13  17
ENDBRANCH   1  14
BRANCH   3  30
ATOM     30  C   UNL     1      -3.639 -11.835   1.419  0.00  0.00    +0.121 C 
BRANCH  30  31
ATOM     31  C   UNL     1      -5.095 -11.472   1.716  0.00  0.00    +0.026 C 
BRANCH  31  32
ATOM     32  C   UNL     1      -5.792 -12.659   2.382  0.00  0.00    +0.037 C 
BRANCH  32  33
ATOM     33  C   UNL     1      -7.226 -12.301   2.674  0.00  0.00    -0.047 A 
ATOM     34  C   UNL     1      -7.560 -11.717   3.882  0.00  0.00    +0.003 A 
ATOM     35  C   UNL     1      -8.876 -11.389   4.150  0.00  0.00    +0.000 A 
ATOM     36  C   UNL     1      -9.857 -11.643   3.211  0.00  0.00    +0.000 A 
ATOM     37  C   UNL     1      -9.523 -12.226   2.003  0.00  0.00    +0.000 A 
ATOM     38  C   UNL     1      -8.207 -12.551   1.733  0.00  0.00    +0.003 A 
ENDBRANCH  32  33
ENDBRANCH  31  32
ENDBRANCH  30  31
ENDBRANCH   3  30
TORSDOF 8
