REMARK  Name = ZINC32126543
REMARK  6 active torsions:
REMARK  status: ('A' for Active; 'I' for Inactive)
REMARK    1  A    between atoms: C_1  and  C_2
REMARK    2  A    between atoms: C_5  and  C_9
REMARK    3  A    between atoms: N_11  and  C_12
REMARK    4  A    between atoms: C_12  and  N_14
REMARK    5  A    between atoms: C_20  and  O_24
REMARK    6  A    between atoms: O_24  and  C_25
REMARK                            x       y       z     vdW  Elec       q    Type
REMARK                         _______ _______ _______ _____ _____    ______ ____
ROOT
ATOM      1  C   UNL     1      -4.857   3.845   0.070  0.00  0.00    +0.163 C 
ATOM      2  S   UNL     1      -4.874   5.557   0.080  0.00  0.00    -0.016 S 
ENDROOT
BRANCH   1   3
ATOM      3  N   UNL     1      -6.017   3.159   0.077  0.00  0.00    -0.169 NA
ATOM      4  C   UNL     1      -7.223   3.839   0.093  0.00  0.00    +0.163 A 
ATOM      5  N   UNL     1      -7.438   5.133   0.102  0.00  0.00    -0.335 N 
ATOM      6  C   UNL     1      -8.682   5.663   0.117  0.00  0.00    +0.057 A 
ATOM      7  C   UNL     1      -9.048   7.029   0.127  0.00  0.00    +0.050 A 
ATOM      8  C   UNL     1     -10.367   7.402   0.142  0.00  0.00    +0.085 A 
ATOM      9  C   UNL     1     -11.389   6.457   0.147  0.00  0.00    +0.140 A 
ATOM     10  C   UNL     1     -11.064   5.109   0.137  0.00  0.00    +0.064 A 
ATOM     11  C   UNL     1      -9.744   4.731   0.122  0.00  0.00    +0.042 A 
ATOM     12  S   UNL     1      -8.883   3.176   0.098  0.00  0.00    -0.052 S 
ATOM     13 CL   UNL     1     -10.772   9.090   0.155  0.00  0.00    -0.080 Cl
ATOM     14  H   UNL     1      -6.589   5.832   0.098  0.00  0.00    +0.168 HD
BRANCH   9  15
ATOM     15  O   UNL     1     -12.691   6.850   0.162  0.00  0.00    -0.494 OA
ATOM     16  C   UNL     1     -13.680   5.819   0.166  0.00  0.00    +0.277 C 
ENDBRANCH   9  15
ENDBRANCH   1   3
BRANCH   1  19
ATOM     17  C   UNL     1      -2.522   3.869   0.047  0.00  0.00    +0.250 C 
ATOM     18  O   UNL     1      -2.535   5.084   0.054  0.00  0.00    -0.270 OA
ATOM     19  N   UNL     1      -3.683   3.183   0.055  0.00  0.00    -0.262 N 
ATOM     20  H   UNL     1      -3.671   2.083   0.048  0.00  0.00    +0.157 HD
BRANCH  17  25
ATOM     21  C   UNL     1       2.489   1.041  -0.017  0.00  0.00    +0.045 C 
ATOM     22  C   UNL     1       1.177   1.782   0.000  0.00  0.00    -0.032 A 
ATOM     23  C   UNL     1      -0.013   1.076   0.008  0.00  0.00    +0.005 A 
ATOM     24  C   UNL     1      -1.217   1.747   0.017  0.00  0.00    +0.013 A 
ATOM     25  C   UNL     1      -1.235   3.144   0.031  0.00  0.00    +0.038 A 
ATOM     26  C   UNL     1      -0.032   3.851   0.023  0.00  0.00    +0.033 A 
ATOM     27  C   UNL     1       1.167   3.167   0.008  0.00  0.00    +0.045 A 
ATOM     28 CL   UNL     1       2.665   4.044  -0.001  0.00  0.00    -0.083 Cl
ENDBRANCH  17  25
ENDBRANCH   1  19
TORSDOF 4
