REMARK  Name = ZINC03108418
REMARK  2 active torsions:
REMARK  status: ('A' for Active; 'I' for Inactive)
REMARK    1  A    between atoms: C_3  and  N_8
REMARK    2  A    between atoms: C_10  and  C_21
REMARK                            x       y       z     vdW  Elec       q    Type
REMARK                         _______ _______ _______ _____ _____    ______ ____
ROOT
ATOM      1  N   UNL     1       0.371  -2.916   0.501  0.00  0.00    -0.212 NA
ATOM      2  C   UNL     1       1.348  -2.199  -0.012  0.00  0.00    +0.233 A 
ATOM      3  C   UNL     1       1.288  -0.724  -0.015  0.00  0.00    +0.099 A 
ATOM      4  C   UNL     1       2.497  -0.041  -0.017  0.00  0.00    +0.030 A 
ATOM      5  C   UNL     1       3.722  -0.844  -0.019  0.00  0.00    +0.021 A 
ATOM      6  C   UNL     1       4.965  -0.256   0.247  0.00  0.00    +0.031 A 
ATOM      7  C   UNL     1       6.102  -1.033   0.241  0.00  0.00    +0.043 A 
ATOM      8  C   UNL     1       6.021  -2.393  -0.027  0.00  0.00    +0.043 A 
ATOM      9  C   UNL     1       4.803  -2.987  -0.292  0.00  0.00    +0.085 A 
ATOM     10  C   UNL     1       3.645  -2.222  -0.293  0.00  0.00    +0.156 A 
ATOM     11  O   UNL     1       2.443  -2.790  -0.559  0.00  0.00    -0.435 OA
ATOM     12 CL   UNL     1       4.720  -4.689  -0.624  0.00  0.00    -0.080 Cl
ATOM     13 CL   UNL     1       7.645  -0.308   0.571  0.00  0.00    -0.083 Cl
ENDROOT
BRANCH   1  16
ATOM     14  C   UNL     1      -0.075  -6.280  -0.847  0.00  0.00    +0.005 A 
ATOM     15  C   UNL     1      -0.108  -4.905  -0.745  0.00  0.00    +0.028 A 
ATOM     16  C   UNL     1       0.397  -4.279   0.398  0.00  0.00    +0.070 A 
ATOM     17  C   UNL     1       0.921  -5.052   1.436  0.00  0.00    +0.066 A 
ATOM     18  C   UNL     1       0.943  -6.428   1.324  0.00  0.00    +0.125 A 
ATOM     19  C   UNL     1       0.446  -7.041   0.184  0.00  0.00    +0.038 A 
ATOM     20  F   UNL     1       1.450  -7.179   2.327  0.00  0.00    -0.205 F 
ENDBRANCH   1  16
BRANCH   3  21
ATOM     21  C   UNL     1       0.001  -0.007  -0.012  0.00  0.00    +0.247 C 
ATOM     22  O   UNL     1      -1.043  -0.631  -0.011  0.00  0.00    -0.270 OA
ATOM     23  N   UNL     1      -0.020   1.341  -0.010  0.00  0.00    -0.325 N 
ATOM     24  H   UNL     1       0.813   1.839  -0.011  0.00  0.00    +0.145 HD
ATOM     25  H   UNL     1      -0.867   1.813  -0.012  0.00  0.00    +0.145 HD
ENDBRANCH   3  21
TORSDOF 2
