REMARK  Name = ZINC49844152
REMARK  3 active torsions:
REMARK  status: ('A' for Active; 'I' for Inactive)
REMARK    1  A    between atoms: C_3  and  N_11
REMARK    2  A    between atoms: C_6  and  N_7
REMARK    3  A    between atoms: N_11  and  C_12
REMARK                            x       y       z     vdW  Elec       q    Type
REMARK                         _______ _______ _______ _____ _____    ______ ____
ROOT
ATOM      1  N   UNL     1       3.582   2.124  -0.021  0.00  0.00    -0.340 N 
ATOM      2  H   UNL     1       4.428   1.649  -0.032  0.00  0.00    +0.146 HD
ENDROOT
BRANCH   1   3
ATOM      3  C   UNL     1       3.564   3.589  -0.014  0.00  0.00    +0.067 C 
ATOM      4  C   UNL     1       3.450   4.092   1.428  0.00  0.00    +0.003 C 
ATOM      5  C   UNL     1       3.470   5.622   1.437  0.00  0.00    -0.080 C 
ATOM      6  N   UNL     1       4.744   6.103   0.887  0.00  0.00    +0.383 N 
ATOM      7  C   UNL     1       4.889   5.643  -0.496  0.00  0.00    -0.067 C 
ATOM      8  C   UNL     1       4.862   4.121  -0.630  0.00  0.00    +0.010 C 
ATOM      9  C   UNL     1       6.059   6.300  -1.242  0.00  0.00    -0.012 C 
ATOM     10  C   UNL     1       5.132   6.370  -2.467  0.00  0.00    -0.003 C 
ATOM     11  C   UNL     1       3.952   6.356  -1.480  0.00  0.00    -0.012 C 
ATOM     12  H   UNL     1       4.760   7.111   0.909  0.00  0.00    -0.085 HD
ATOM     13  H   UNL     1       5.506   5.743   1.442  0.00  0.00    -0.085 HD
ENDBRANCH   1   3
BRANCH   1  16
ATOM     14  C   UNL     1      -0.017   1.378   0.010  0.00  0.00    +0.034 A 
ATOM     15  C   UNL     1       1.169   2.087   0.002  0.00  0.00    +0.026 A 
ATOM     16  C   UNL     1       2.381   1.410  -0.013  0.00  0.00    +0.042 A 
ATOM     17  C   UNL     1       2.397   0.020  -0.021  0.00  0.00    +0.041 A 
ATOM     18  C   UNL     1       1.207  -0.682  -0.013  0.00  0.00    +0.049 A 
ATOM     19  C   UNL     1       0.002  -0.004   0.002  0.00  0.00    +0.127 A 
ATOM     20 BR   UNL     1       4.044  -0.908  -0.042  0.00  0.00    -0.048 Br
BRANCH  19  21
ATOM     21  N   UNL     1      -1.270  -0.760   0.010  0.00  0.00    +0.056 N 
ATOM     22  O   UNL     1      -2.325  -0.168   0.023  0.00  0.00    -0.126 OA
ATOM     23  O   UNL     1      -1.256  -1.969   0.003  0.00  0.00    -0.126 OA
ENDBRANCH  19  21
ENDBRANCH   1  16
TORSDOF 3
