REMARK  Name = ZINC38790428
REMARK  15 active torsions:
REMARK  status: ('A' for Active; 'I' for Inactive)
REMARK    1  A    between atoms: C_1  and  C_2
REMARK    2  A    between atoms: C_2  and  O_3
REMARK    3  A    between atoms: O_3  and  C_4
REMARK    4  A    between atoms: C_4  and  C_6
REMARK    5  A    between atoms: C_7  and  C_37
REMARK    6  A    between atoms: C_10  and  C_20
REMARK    7  A    between atoms: C_11  and  C_12
REMARK    8  A    between atoms: C_15  and  O_18
REMARK    9  A    between atoms: O_18  and  C_19
REMARK   10  A    between atoms: C_20  and  C_22
REMARK   11  A    between atoms: N_24  and  C_25
REMARK   12  A    between atoms: C_25  and  C_26
REMARK   13  A    between atoms: C_26  and  C_27
REMARK   14  A    between atoms: C_30  and  S_33
REMARK   15  A    between atoms: S_33  and  N_36
REMARK                            x       y       z     vdW  Elec       q    Type
REMARK                         _______ _______ _______ _____ _____    ______ ____
ROOT
ATOM      1  C   UNL     1       1.500  -2.372   2.472  0.00  0.00    +0.088 A 
ATOM      2  C   UNL     1       0.930  -2.706   3.687  0.00  0.00    +0.028 A 
ATOM      3  N   UNL     1       1.883  -3.186   4.502  0.00  0.00    -0.354 N 
ATOM      4  H   UNL     1       1.739  -3.490   5.412  0.00  0.00    +0.166 HD
ATOM      5  C   UNL     1       3.097  -3.179   3.847  0.00  0.00    +0.101 A 
ATOM      6  C   UNL     1       2.885  -2.677   2.561  0.00  0.00    +0.025 A 
ATOM      7  C   UNL     1      -0.527  -2.555   4.040  0.00  0.00    +0.064 C 
ENDROOT
BRANCH   6   8
ATOM      8  C   UNL     1       3.900  -2.494   1.504  0.00  0.00    -0.015 A 
ATOM      9  C   UNL     1       3.820  -3.233   0.320  0.00  0.00    +0.012 A 
ATOM     10  C   UNL     1       4.769  -3.059  -0.663  0.00  0.00    +0.046 A 
ATOM     11  C   UNL     1       5.805  -2.151  -0.479  0.00  0.00    +0.120 A 
ATOM     12  C   UNL     1       5.889  -1.415   0.696  0.00  0.00    +0.046 A 
ATOM     13  C   UNL     1       4.940  -1.578   1.682  0.00  0.00    +0.012 A 
BRANCH  11  14
ATOM     14  O   UNL     1       6.738  -1.984  -1.451  0.00  0.00    -0.495 OA
ATOM     15  C   UNL     1       7.776  -1.034  -1.197  0.00  0.00    +0.277 C 
ENDBRANCH  11  14
ENDBRANCH   6   8
BRANCH   1  16
ATOM     16  C   UNL     1       0.801  -1.813   1.304  0.00  0.00    +0.342 C 
ATOM     17  O   UNL     1       0.321  -2.556   0.470  0.00  0.00    -0.245 OA
BRANCH  16  18
ATOM     18  O   UNL     1       0.693  -0.477   1.160  0.00  0.00    -0.461 OA
BRANCH  18  20
ATOM     19  C   UNL     1      -0.019   1.526   0.010  0.00  0.00    +0.048 C 
ATOM     20  C   UNL     1       0.002  -0.004   0.002  0.00  0.00    +0.229 C 
ENDBRANCH  18  20
ENDBRANCH  16  18
ENDBRANCH   1  16
BRANCH   5  21
ATOM     21  C   UNL     1       4.331  -3.610   4.379  0.00  0.00    +0.264 C 
ATOM     22  O   UNL     1       5.339  -3.554   3.700  0.00  0.00    -0.280 OA
BRANCH  21  23
ATOM     23  C   UNL     1       4.400  -4.131   5.773  0.00  0.00    +0.286 C 
ATOM     24  O   UNL     1       3.394  -4.186   6.451  0.00  0.00    -0.267 OA
ATOM     25  N   UNL     1       5.578  -4.542   6.281  0.00  0.00    -0.308 N 
ATOM     26  H   UNL     1       6.382  -4.498   5.739  0.00  0.00    +0.149 HD
BRANCH  25  27
ATOM     27  C   UNL     1       5.646  -5.055   7.652  0.00  0.00    +0.109 C 
BRANCH  27  28
ATOM     28  C   UNL     1       7.088  -5.450   7.978  0.00  0.00    +0.054 C 
BRANCH  28  29
ATOM     29  C   UNL     1       7.158  -5.978   9.387  0.00  0.00    -0.046 A 
ATOM     30  C   UNL     1       7.396  -5.112  10.439  0.00  0.00    +0.005 A 
ATOM     31  C   UNL     1       7.460  -5.596  11.732  0.00  0.00    +0.029 A 
ATOM     32  C   UNL     1       7.285  -6.946  11.974  0.00  0.00    +0.105 A 
ATOM     33  C   UNL     1       7.046  -7.811  10.923  0.00  0.00    +0.029 A 
ATOM     34  C   UNL     1       6.978  -7.327   9.630  0.00  0.00    +0.005 A 
BRANCH  32  35
ATOM     35  S   UNL     1       7.368  -7.563  13.622  0.00  0.00    +0.056 S 
ATOM     36  O   UNL     1       7.714  -8.938  13.524  0.00  0.00    -0.153 OA
ATOM     37  O   UNL     1       8.144  -6.634  14.366  0.00  0.00    -0.153 OA
BRANCH  35  38
ATOM     38  N   UNL     1       5.835  -7.504  14.245  0.00  0.00    -0.204 NA
ATOM     39  H   UNL     1       5.104  -7.169  13.702  0.00  0.00    +0.144 HD
ATOM     40  H   UNL     1       5.668  -7.804  15.152  0.00  0.00    +0.144 HD
ENDBRANCH  35  38
ENDBRANCH  32  35
ENDBRANCH  28  29
ENDBRANCH  27  28
ENDBRANCH  25  27
ENDBRANCH  21  23
ENDBRANCH   5  21
TORSDOF 12
