REMARK  Name = ZINC63804034
REMARK  9 active torsions:
REMARK  status: ('A' for Active; 'I' for Inactive)
REMARK    1  A    between atoms: C_1  and  N_2
REMARK    2  A    between atoms: C_5  and  C_12
REMARK    3  A    between atoms: C_7  and  C_9
REMARK    4  A    between atoms: N_14  and  C_15
REMARK    5  A    between atoms: C_15  and  C_16
REMARK    6  A    between atoms: C_16  and  C_17
REMARK    7  A    between atoms: C_16  and  N_23
REMARK    8  A    between atoms: N_23  and  C_24
REMARK    9  A    between atoms: N_23  and  C_25
REMARK                            x       y       z     vdW  Elec       q    Type
REMARK                         _______ _______ _______ _____ _____    ______ ____
ROOT
ATOM      1  C   UNL     1      -1.051  -4.975   0.511  0.00  0.00    +0.245 C 
ATOM      2  O   UNL     1       0.088  -5.314   0.257  0.00  0.00    -0.270 OA
ATOM      3  N   UNL     1      -2.037  -5.893   0.537  0.00  0.00    -0.313 N 
ATOM      4  H   UNL     1      -2.946  -5.622   0.740  0.00  0.00    +0.149 HD
ENDROOT
BRANCH   1   9
ATOM      5  C   UNL     1       0.599   0.942   1.167  0.00  0.00    +0.172 C 
ATOM      6  N   UNL     1       0.494  -0.504   0.955  0.00  0.00    -0.269 N 
ATOM      7  C   UNL     1      -0.674  -1.238   1.042  0.00  0.00    +0.161 A 
ATOM      8  C   UNL     1      -0.345  -2.577   0.770  0.00  0.00    +0.096 A 
ATOM      9  C   UNL     1      -1.355  -3.552   0.792  0.00  0.00    +0.054 A 
ATOM     10  C   UNL     1      -2.656  -3.137   1.086  0.00  0.00    +0.037 A 
ATOM     11  C   UNL     1      -2.896  -1.798   1.341  0.00  0.00    +0.047 A 
ATOM     12  N   UNL     1      -1.927  -0.906   1.314  0.00  0.00    -0.232 NA
ATOM     13  C   UNL     1       1.104  -2.615   0.511  0.00  0.00    +0.275 A 
ATOM     14  O   UNL     1       1.765  -3.598   0.238  0.00  0.00    -0.266 OA
ATOM     15  N   UNL     1       1.558  -1.349   0.627  0.00  0.00    -0.262 N 
ATOM     16  H   UNL     1       2.479  -1.071   0.506  0.00  0.00    +0.190 HD
BRANCH  11  17
ATOM     17  C   UNL     1      -4.299  -1.350   1.659  0.00  0.00    +0.038 C 
ATOM     18  C   UNL     1      -5.441  -2.307   1.313  0.00  0.00    +0.010 C 
ATOM     19  C   UNL     1      -5.225  -1.041   0.481  0.00  0.00    +0.010 C 
ENDBRANCH  11  17
ENDBRANCH   1   9
BRANCH   3  20
ATOM     20  C   UNL     1      -1.736  -7.300   0.259  0.00  0.00    +0.089 C 
BRANCH  20  21
ATOM     21  C   UNL     1      -3.043  -8.088   0.145  0.00  0.00    -0.049 C 
BRANCH  21  22
ATOM     22  C   UNL     1      -2.729  -9.579   0.010  0.00  0.00    -0.023 C 
ATOM     23  C   UNL     1      -4.029 -10.356  -0.209  0.00  0.00    +0.002 C 
ATOM     24  C   UNL     1      -3.715 -11.847  -0.344  0.00  0.00    +0.000 C 
ATOM     25  C   UNL     1      -3.033 -12.343   0.933  0.00  0.00    +0.000 C 
ATOM     26  C   UNL     1      -1.734 -11.566   1.152  0.00  0.00    +0.000 C 
ATOM     27  C   UNL     1      -2.048 -10.074   1.287  0.00  0.00    +0.002 C 
ENDBRANCH  21  22
BRANCH  21  28
ATOM     28  N   UNL     1      -3.786  -7.634  -1.038  0.00  0.00    +0.379 N 
ATOM     29  C   UNL     1      -4.196  -6.236  -0.853  0.00  0.00    -0.096 C 
ATOM     30  C   UNL     1      -2.928  -7.740  -2.225  0.00  0.00    -0.096 C 
ATOM     31  H   UNL     1      -4.605  -8.211  -1.162  0.00  0.00    -0.082 HD
ENDBRANCH  21  28
ENDBRANCH  20  21
ENDBRANCH   3  20
TORSDOF 6
