REMARK  Name = ZINC08789929
REMARK  8 active torsions:
REMARK  status: ('A' for Active; 'I' for Inactive)
REMARK    1  A    between atoms: C_1  and  C_2
REMARK    2  A    between atoms: C_2  and  C_3
REMARK    3  A    between atoms: C_14  and  C_16
REMARK    4  A    between atoms: C_16  and  C_18
REMARK    5  A    between atoms: C_16  and  O_19
REMARK    6  A    between atoms: N_22  and  C_25
REMARK    7  A    between atoms: C_25  and  C_26
REMARK    8  A    between atoms: C_26  and  C_27
REMARK                            x       y       z     vdW  Elec       q    Type
REMARK                         _______ _______ _______ _____ _____    ______ ____
ROOT
ATOM      1  C   UNL     1       4.146   4.499   4.693  0.00  0.00    -0.047 A 
ATOM      2  C   UNL     1       5.188   3.727   5.175  0.00  0.00    +0.005 A 
ATOM      3  C   UNL     1       5.063   2.356   5.247  0.00  0.00    +0.024 A 
ATOM      4  C   UNL     1       3.886   1.736   4.835  0.00  0.00    +0.036 A 
ATOM      5  C   UNL     1       2.844   2.522   4.351  0.00  0.00    -0.027 A 
ATOM      6  C   UNL     1       2.973   3.891   4.280  0.00  0.00    +0.008 A 
ATOM      7  C   UNL     1       1.739   1.567   3.999  0.00  0.00    +0.050 C 
ATOM      8  C   UNL     1       0.458   1.874   4.784  0.00  0.00    +0.088 C 
ATOM      9  C   UNL     1      -0.695   1.559   3.790  0.00  0.00    +0.075 C 
ATOM     10  C   UNL     1       0.011   1.072   2.506  0.00  0.00    -0.028 C 
ATOM     11  C   UNL     1      -1.404   0.392   4.439  0.00  0.00    +0.224 C 
ATOM     12  O   UNL     1      -2.378  -0.173   3.990  0.00  0.00    -0.275 OA
ATOM     13  N   UNL     1      -0.789   0.079   5.585  0.00  0.00    -0.241 N 
ATOM     14  C   UNL     1       0.268   0.846   5.875  0.00  0.00    +0.225 C 
ATOM     15  O   UNL     1       0.965   0.734   6.861  0.00  0.00    -0.275 OA
ATOM     16  C   UNL     1       2.277   0.204   4.336  0.00  0.00    +0.211 C 
ATOM     17  O   UNL     1       1.701  -0.855   4.204  0.00  0.00    -0.277 OA
ATOM     18  N   UNL     1       3.524   0.387   4.813  0.00  0.00    -0.286 N 
ATOM     19  H   UNL     1       4.102  -0.334   5.107  0.00  0.00    +0.155 HD
ATOM     20  N   UNL     1       1.354   1.650   2.601  0.00  0.00    +0.396 N 
ATOM     21  H   UNL     1       2.011   1.117   2.019  0.00  0.00    -0.083 HD
ATOM     22  H   UNL     1       1.341   2.630   2.293  0.00  0.00    -0.083 HD
ENDROOT
BRANCH   1  24
ATOM     23  C   UNL     1       4.866   6.385   3.254  0.00  0.00    +0.009 C 
ATOM     24  C   UNL     1       4.288   5.997   4.616  0.00  0.00    +0.032 C 
ENDBRANCH   1  24
BRANCH  10  25
ATOM     25  C   UNL     1      -0.729   1.579   1.267  0.00  0.00    +0.098 C 
ATOM     26  C   UNL     1      -0.013   1.086   0.008  0.00  0.00    +0.036 C 
BRANCH  25  27
ATOM     27  O   UNL     1      -2.070   1.085   1.277  0.00  0.00    -0.394 OA
ATOM     28  H   UNL     1      -2.133   0.120   1.272  0.00  0.00    +0.210 HD
ENDBRANCH  25  27
ENDBRANCH  10  25
BRANCH  13  29
ATOM     29  C   UNL     1      -1.237  -1.014   6.452  0.00  0.00    +0.121 C 
BRANCH  29  30
ATOM     30  C   UNL     1      -0.534  -2.310   6.042  0.00  0.00    +0.054 C 
BRANCH  30  31
ATOM     31  C   UNL     1      -0.994  -3.434   6.934  0.00  0.00    -0.046 A 
ATOM     32  C   UNL     1      -0.312  -3.712   8.104  0.00  0.00    +0.004 A 
ATOM     33  C   UNL     1      -0.737  -4.741   8.924  0.00  0.00    +0.000 A 
ATOM     34  C   UNL     1      -1.838  -5.498   8.569  0.00  0.00    +0.000 A 
ATOM     35  C   UNL     1      -2.517  -5.223   7.396  0.00  0.00    +0.000 A 
ATOM     36  C   UNL     1      -2.095  -4.192   6.579  0.00  0.00    +0.004 A 
ENDBRANCH  30  31
ENDBRANCH  29  30
ENDBRANCH  13  29
TORSDOF 6
