REMARK  Name = ZINC21811281
REMARK  8 active torsions:
REMARK  status: ('A' for Active; 'I' for Inactive)
REMARK    1  A    between atoms: C_1  and  C_2
REMARK    2  A    between atoms: C_8  and  N_10
REMARK    3  A    between atoms: C_11  and  C_13
REMARK    4  A    between atoms: C_13  and  C_35
REMARK    5  A    between atoms: N_25  and  C_26
REMARK    6  A    between atoms: C_26  and  C_27
REMARK    7  A    between atoms: C_32  and  O_33
REMARK    8  A    between atoms: O_33  and  C_34
REMARK                            x       y       z     vdW  Elec       q    Type
REMARK                         _______ _______ _______ _____ _____    ______ ____
ROOT
ATOM      1  C   UNL     1       4.408   1.352  -0.965  0.00  0.00    +0.129 C 
ATOM      2  C   UNL     1       3.325   0.853  -0.009  0.00  0.00    +0.157 C 
ATOM      3  N   UNL     1       2.430   1.965   0.327  0.00  0.00    -0.331 N 
ATOM      4  C   UNL     1       1.111   1.955   0.665  0.00  0.00    +0.088 A 
ATOM      5  C   UNL     1      -0.042   1.160   0.872  0.00  0.00    +0.067 A 
ATOM      6  C   UNL     1      -1.040   1.988   1.227  0.00  0.00    +0.198 A 
ATOM      7  O   UNL     1      -0.582   3.250   1.265  0.00  0.00    -0.461 OA
ATOM      8  C   UNL     1       0.724   3.270   0.922  0.00  0.00    +0.153 A 
ATOM      9  C   UNL     1       1.845   4.090   0.721  0.00  0.00    +0.079 A 
ATOM     10  C   UNL     1       2.880   3.283   0.350  0.00  0.00    +0.109 A 
ATOM     11  C   UNL     1       4.268   3.609   0.001  0.00  0.00    +0.264 C 
ATOM     12  O   UNL     1       4.728   4.722   0.176  0.00  0.00    -0.268 OA
ATOM     13  N   UNL     1       5.008   2.607  -0.527  0.00  0.00    -0.276 N 
ATOM     14  C   UNL     1       5.504   0.289  -1.067  0.00  0.00    +0.043 C 
ENDROOT
BRANCH   1  16
ATOM     15  N   UNL     1       3.117   2.682  -2.602  0.00  0.00    -0.310 N 
ATOM     16  C   UNL     1       3.799   1.552  -2.328  0.00  0.00    +0.238 C 
ATOM     17  O   UNL     1       3.923   0.698  -3.180  0.00  0.00    -0.273 OA
ATOM     18  H   UNL     1       2.948   3.428  -1.811  0.00  0.00    +0.149 HD
BRANCH  15  25
ATOM     19  C   UNL     1       3.790   5.113  -4.026  0.00  0.00    +0.009 C 
ATOM     20  C   UNL     1       2.435   4.421  -4.181  0.00  0.00    +0.006 C 
ATOM     21  C   UNL     1       1.895   4.666  -5.591  0.00  0.00    +0.005 C 
ATOM     22  C   UNL     1       0.540   3.974  -5.747  0.00  0.00    +0.000 C 
ATOM     23  C   UNL     1       0.706   2.470  -5.518  0.00  0.00    +0.002 C 
ATOM     24  C   UNL     1       1.245   2.225  -4.108  0.00  0.00    +0.022 C 
ATOM     25  C   UNL     1       2.600   2.917  -3.953  0.00  0.00    +0.076 C 
ENDBRANCH  15  25
ENDBRANCH   1  16
BRANCH  13  26
ATOM     26  C   UNL     1       6.456   2.787  -0.662  0.00  0.00    +0.148 C 
BRANCH  26  27
ATOM     27  C   UNL     1       6.771   3.295  -2.046  0.00  0.00    +0.012 A 
ATOM     28  C   UNL     1       7.131   2.409  -3.043  0.00  0.00    +0.009 A 
ATOM     29  C   UNL     1       7.419   2.874  -4.312  0.00  0.00    +0.001 A 
ATOM     30  C   UNL     1       7.350   4.227  -4.587  0.00  0.00    +0.004 A 
ATOM     31  C   UNL     1       6.992   5.118  -3.594  0.00  0.00    +0.046 A 
ATOM     32  C   UNL     1       6.696   4.653  -2.321  0.00  0.00    +0.125 A 
BRANCH  32  33
ATOM     33  O   UNL     1       6.337   5.526  -1.343  0.00  0.00    -0.495 OA
ATOM     34  C   UNL     1       6.281   6.909  -1.698  0.00  0.00    +0.277 C 
ENDBRANCH  32  33
ENDBRANCH  26  27
ENDBRANCH  13  26
TORSDOF 5
