REMARK  Name = ZINC15890472
REMARK  9 active torsions:
REMARK  status: ('A' for Active; 'I' for Inactive)
REMARK    1  A    between atoms: C_1  and  C_2
REMARK    2  A    between atoms: C_5  and  N_9
REMARK    3  A    between atoms: C_12  and  C_31
REMARK    4  A    between atoms: C_17  and  S_18
REMARK    5  A    between atoms: S_18  and  C_19
REMARK    6  A    between atoms: C_19  and  C_20
REMARK    7  A    between atoms: N_22  and  C_23
REMARK    8  A    between atoms: C_23  and  C_24
REMARK    9  A    between atoms: C_24  and  C_25
REMARK                            x       y       z     vdW  Elec       q    Type
REMARK                         _______ _______ _______ _____ _____    ______ ____
ROOT
ATOM      1  N   UNL     1       0.057  -4.172  -0.022  0.00  0.00    -0.273 N 
ATOM      2  C   UNL     1       0.172  -4.881   1.182  0.00  0.00    +0.145 A 
ATOM      3  C   UNL     1       0.862  -6.178   1.011  0.00  0.00    +0.083 A 
ATOM      4  C   UNL     1       1.476  -7.044   1.851  0.00  0.00    +0.046 A 
ATOM      5  N   UNL     1       1.935  -8.074   1.111  0.00  0.00    -0.279 N 
ATOM      6  N   UNL     1       1.608  -7.870  -0.240  0.00  0.00    -0.153 NA
ATOM      7  C   UNL     1       0.962  -6.749  -0.354  0.00  0.00    +0.187 A 
ATOM      8  N   UNL     1       0.408  -6.077  -1.405  0.00  0.00    -0.201 NA
ATOM      9  C   UNL     1      -0.044  -4.854  -1.210  0.00  0.00    +0.178 A 
ATOM     10  C   UNL     1       1.620  -6.886   3.343  0.00  0.00    +0.066 C 
ATOM     11  N   UNL     1      -0.279  -4.444   2.328  0.00  0.00    -0.282 NA
ATOM     12  H   UNL     1      -0.169  -4.980   3.129  0.00  0.00    +0.188 HD
ATOM     13  H   UNL     1       2.417  -8.839   1.459  0.00  0.00    +0.189 HD
ENDROOT
BRANCH   1  18
ATOM     14  C   UNL     1      -0.018   1.503   0.016  0.00  0.00    +0.045 C 
ATOM     15  C   UNL     1       0.002  -0.004   0.005  0.00  0.00    -0.032 A 
ATOM     16  C   UNL     1      -1.168  -0.712   0.213  0.00  0.00    +0.007 A 
ATOM     17  C   UNL     1      -1.153  -2.092   0.205  0.00  0.00    +0.026 A 
ATOM     18  C   UNL     1       0.039  -2.772  -0.013  0.00  0.00    +0.052 A 
ATOM     19  C   UNL     1       1.212  -2.059  -0.223  0.00  0.00    +0.046 A 
ATOM     20  C   UNL     1       1.190  -0.677  -0.218  0.00  0.00    +0.046 A 
ATOM     21 CL   UNL     1       2.655   0.215  -0.487  0.00  0.00    -0.083 Cl
ENDBRANCH   1  18
BRANCH   9  22
ATOM     22  S   UNL     1      -0.823  -4.037  -2.562  0.00  0.00    -0.078 S 
BRANCH  22  23
ATOM     23  C   UNL     1      -0.753  -5.252  -3.908  0.00  0.00    +0.173 C 
BRANCH  23  24
ATOM     24  C   UNL     1      -1.396  -4.672  -5.141  0.00  0.00    +0.223 C 
ATOM     25  O   UNL     1      -1.855  -3.550  -5.115  0.00  0.00    -0.275 OA
ATOM     26  N   UNL     1      -1.460  -5.400  -6.274  0.00  0.00    -0.314 N 
ATOM     27  H   UNL     1      -1.092  -6.297  -6.294  0.00  0.00    +0.149 HD
BRANCH  26  28
ATOM     28  C   UNL     1      -2.084  -4.836  -7.473  0.00  0.00    +0.108 C 
BRANCH  28  29
ATOM     29  C   UNL     1      -2.025  -5.861  -8.608  0.00  0.00    +0.049 C 
BRANCH  29  30
ATOM     30  C   UNL     1      -2.667  -5.281  -9.842  0.00  0.00    -0.072 C 
ATOM     31  C   UNL     1      -1.899  -4.716 -10.718  0.00  0.00    -0.028 C 
ATOM     32  C   UNL     1      -2.393  -4.086 -11.987  0.00  0.00    +0.027 C 
ATOM     33  C   UNL     1      -3.811  -4.569 -12.298  0.00  0.00    +0.004 C 
ATOM     34  C   UNL     1      -4.666  -4.409 -11.034  0.00  0.00    +0.005 C 
ATOM     35  C   UNL     1      -4.157  -5.399  -9.982  0.00  0.00    +0.030 C 
ENDBRANCH  29  30
ENDBRANCH  28  29
ENDBRANCH  26  28
ENDBRANCH  23  24
ENDBRANCH  22  23
ENDBRANCH   9  22
TORSDOF 7
