REMARK  Name = ZINC40150572
REMARK  5 active torsions:
REMARK  status: ('A' for Active; 'I' for Inactive)
REMARK    1  A    between atoms: C_4  and  N_27
REMARK    2  A    between atoms: C_5  and  N_7
REMARK    3  A    between atoms: C_13  and  C_16
REMARK    4  A    between atoms: N_18  and  C_19
REMARK    5  A    between atoms: C_24  and  O_25
REMARK                            x       y       z     vdW  Elec       q    Type
REMARK                         _______ _______ _______ _____ _____    ______ ____
ROOT
ATOM      1  N   UNL     1       1.526  -2.208   0.101  0.00  0.00    -0.268 N 
ATOM      2  C   UNL     1       0.332  -2.831   0.141  0.00  0.00    +0.306 C 
ATOM      3  O   UNL     1      -0.695  -2.181   0.095  0.00  0.00    -0.252 OA
ATOM      4  N   UNL     1       0.276  -4.174   0.233  0.00  0.00    -0.285 N 
ATOM      5  C   UNL     1       1.503  -4.965   0.399  0.00  0.00    +0.110 C 
ATOM      6  C   UNL     1       1.550  -6.037  -0.695  0.00  0.00    +0.032 C 
ATOM      7  C   UNL     1       0.261  -6.861  -0.652  0.00  0.00    +0.078 C 
ATOM      8  C   UNL     1      -0.938  -5.949  -0.921  0.00  0.00    +0.032 C 
ATOM      9  C   UNL     1      -1.014  -4.875   0.175  0.00  0.00    +0.110 C 
ATOM     10  H   UNL     1       2.345  -2.728   0.106  0.00  0.00    +0.156 HD
ENDROOT
BRANCH   1  15
ATOM     11  C   UNL     1       0.572   1.296  -0.494  0.00  0.00    +0.002 A 
ATOM     12  C   UNL     1       1.701   1.959  -0.050  0.00  0.00    +0.002 A 
ATOM     13  C   UNL     1       2.776   1.246   0.446  0.00  0.00    +0.025 A 
ATOM     14  C   UNL     1       2.724  -0.139   0.499  0.00  0.00    +0.051 A 
ATOM     15  C   UNL     1       1.585  -0.808   0.051  0.00  0.00    +0.056 A 
ATOM     16  C   UNL     1       0.512  -0.084  -0.446  0.00  0.00    +0.025 A 
BRANCH  14  17
ATOM     17  N   UNL     1       3.811  -0.863   1.000  0.00  0.00    -0.328 N 
ATOM     18  C   UNL     1       4.947  -1.361   0.210  0.00  0.00    +0.105 C 
ATOM     19  C   UNL     1       5.880  -2.119   1.177  0.00  0.00    +0.020 C 
ATOM     20  C   UNL     1       4.936  -2.492   2.351  0.00  0.00    +0.020 C 
ATOM     21  C   UNL     1       4.011  -1.249   2.409  0.00  0.00    +0.105 C 
ENDBRANCH  14  17
ENDBRANCH   1  15
BRANCH   7  22
ATOM     22  C   UNL     1       0.319  -7.938  -1.704  0.00  0.00    +0.220 C 
ATOM     23  O   UNL     1       1.294  -8.038  -2.418  0.00  0.00    -0.275 OA
ATOM     24  N   UNL     1      -0.714  -8.791  -1.852  0.00  0.00    -0.282 N 
ATOM     25  H   UNL     1      -1.462  -8.758  -1.236  0.00  0.00    +0.155 HD
BRANCH  24  26
ATOM     26  C   UNL     1      -0.707  -9.726  -2.897  0.00  0.00    +0.077 A 
ATOM     27  C   UNL     1       0.495 -10.233  -3.367  0.00  0.00    +0.047 A 
ATOM     28  C   UNL     1       0.500 -11.155  -4.398  0.00  0.00    +0.043 A 
ATOM     29  C   UNL     1      -0.693 -11.573  -4.961  0.00  0.00    +0.023 A 
ATOM     30  C   UNL     1      -1.894 -11.071  -4.497  0.00  0.00    +0.049 A 
ATOM     31  C   UNL     1      -1.907 -10.151  -3.461  0.00  0.00    +0.138 A 
ATOM     32 CL   UNL     1       2.005 -11.789  -4.986  0.00  0.00    -0.083 Cl
BRANCH  31  33
ATOM     33  O   UNL     1      -3.089  -9.661  -2.999  0.00  0.00    -0.505 OA
ATOM     34  H   UNL     1      -3.388  -8.862  -3.454  0.00  0.00    +0.292 HD
ENDBRANCH  31  33
ENDBRANCH  24  26
ENDBRANCH   7  22
TORSDOF 5
