REMARK  Name = ZINC20710003
REMARK  7 active torsions:
REMARK  status: ('A' for Active; 'I' for Inactive)
REMARK    1  A    between atoms: C_3  and  O_35
REMARK    2  A    between atoms: C_4  and  C_10
REMARK    3  A    between atoms: C_6  and  N_7
REMARK    4  A    between atoms: C_21  and  O_26
REMARK    5  A    between atoms: O_26  and  C_27
REMARK    6  A    between atoms: C_27  and  C_28
REMARK    7  A    between atoms: C_28  and  C_29
REMARK                            x       y       z     vdW  Elec       q    Type
REMARK                         _______ _______ _______ _____ _____    ______ ____
ROOT
ATOM      1  C   UNL     1       1.683   4.355  -0.333  0.00  0.00    +0.108 C 
ATOM      2  C   UNL     1       0.686   3.272  -0.709  0.00  0.00    +0.029 C 
ATOM      3  C   UNL     1      -0.690   3.322  -0.032  0.00  0.00    +0.033 C 
ATOM      4  C   UNL     1      -1.078   1.843  -0.019  0.00  0.00    -0.030 C 
ATOM      5  C   UNL     1       0.013   1.087  -0.027  0.00  0.00    -0.023 C 
ATOM      6  C   UNL     1       1.205   1.974  -0.021  0.00  0.00    +0.049 C 
ATOM      7  C   UNL     1       2.471   1.586  -0.680  0.00  0.00    -0.016 A 
ATOM      8  C   UNL     1       2.836   0.269  -0.861  0.00  0.00    +0.051 A 
ATOM      9  C   UNL     1       4.040  -0.044  -1.474  0.00  0.00    +0.121 A 
ATOM     10  C   UNL     1       4.880   0.972  -1.905  0.00  0.00    +0.047 A 
ATOM     11  C   UNL     1       4.518   2.291  -1.730  0.00  0.00    +0.027 A 
ATOM     12  C   UNL     1       3.310   2.614  -1.123  0.00  0.00    +0.032 A 
ATOM     13  N   UNL     1       2.956   3.963  -0.976  0.00  0.00    -0.336 N 
ATOM     14  H   UNL     1       3.644   4.736  -1.349  0.00  0.00    +0.147 HD
ENDROOT
BRANCH   1  18
ATOM     15  C   UNL     1       2.160   4.514   3.912  0.00  0.00    +0.036 A 
ATOM     16  C   UNL     1       1.171   5.262   3.304  0.00  0.00    +0.048 A 
ATOM     17  C   UNL     1       1.014   5.212   1.927  0.00  0.00    +0.122 A 
ATOM     18  C   UNL     1       1.851   4.411   1.163  0.00  0.00    +0.017 A 
ATOM     19  C   UNL     1       2.834   3.660   1.777  0.00  0.00    +0.041 A 
ATOM     20  C   UNL     1       2.993   3.716   3.150  0.00  0.00    +0.127 A 
BRANCH  20  21
ATOM     21  N   UNL     1       4.052   2.916   3.804  0.00  0.00    +0.056 N 
ATOM     22  O   UNL     1       4.189   2.960   5.014  0.00  0.00    -0.126 OA
ATOM     23  O   UNL     1       4.787   2.213   3.134  0.00  0.00    -0.126 OA
ENDBRANCH  20  21
BRANCH  17  24
ATOM     24  O   UNL     1       0.041   5.947   1.325  0.00  0.00    -0.506 OA
ATOM     25  H   UNL     1      -0.083   5.907   0.233  0.00  0.00    +0.292 HD
ENDBRANCH  17  24
ENDBRANCH   1  18
BRANCH   9  26
ATOM     26  O   UNL     1       4.395  -1.345  -1.653  0.00  0.00    -0.492 OA
BRANCH  26  27
ATOM     27  C   UNL     1       5.649  -1.593  -2.292  0.00  0.00    +0.229 C 
BRANCH  27  28
ATOM     28  C   UNL     1       5.874  -3.102  -2.405  0.00  0.00    +0.044 C 
BRANCH  28  29
ATOM     29  C   UNL     1       7.217  -3.368  -3.089  0.00  0.00    -0.008 C 
ATOM     30  C   UNL     1       7.164  -2.858  -4.530  0.00  0.00    +0.003 C 
ATOM     31  C   UNL     1       8.506  -3.123  -5.215  0.00  0.00    +0.000 C 
ATOM     32  C   UNL     1       8.790  -4.627  -5.216  0.00  0.00    +0.000 C 
ATOM     33  C   UNL     1       8.843  -5.136  -3.774  0.00  0.00    +0.000 C 
ATOM     34  C   UNL     1       7.500  -4.871  -3.090  0.00  0.00    +0.003 C 
ENDBRANCH  28  29
ENDBRANCH  27  28
ENDBRANCH  26  27
ENDBRANCH   9  26
TORSDOF 7
