REMARK  Name = ZINC35499262
REMARK  7 active torsions:
REMARK  status: ('A' for Active; 'I' for Inactive)
REMARK    1  A    between atoms: C_1  and  C_2
REMARK    2  A    between atoms: N_11  and  C_15
REMARK    3  A    between atoms: C_15  and  C_16
REMARK    4  A    between atoms: C_19  and  C_30
REMARK    5  A    between atoms: C_22  and  C_24
REMARK    6  A    between atoms: C_33  and  O_36
REMARK    7  A    between atoms: O_36  and  C_37
REMARK                            x       y       z     vdW  Elec       q    Type
REMARK                         _______ _______ _______ _____ _____    ______ ____
ROOT
ATOM      1  C   UNL     1       1.267   0.606   5.501  0.00  0.00    +0.253 C 
ATOM      2  O   UNL     1       1.635  -0.531   5.291  0.00  0.00    -0.272 OA
ATOM      3  N   UNL     1       1.182   1.065   6.765  0.00  0.00    -0.184 N 
ATOM      4  C   UNL     1       1.510   0.298   7.978  0.00  0.00    +0.137 C 
ATOM      5  C   UNL     1       1.237   1.296   9.121  0.00  0.00    +0.087 C 
ATOM      6  C   UNL     1       0.773   2.547   8.409  0.00  0.00    +0.069 C 
ATOM      7  N   UNL     1       0.776   2.345   7.137  0.00  0.00    -0.181 NA
ENDROOT
BRANCH   6   8
ATOM      8  C   UNL     1       0.383   3.807   9.070  0.00  0.00    -0.002 A 
ATOM      9  C   UNL     1       0.431   3.913  10.462  0.00  0.00    +0.010 A 
ATOM     10  C   UNL     1       0.065   5.094  11.073  0.00  0.00    +0.001 A 
ATOM     11  C   UNL     1      -0.349   6.172  10.311  0.00  0.00    +0.000 A 
ATOM     12  C   UNL     1      -0.399   6.074   8.931  0.00  0.00    +0.001 A 
ATOM     13  C   UNL     1      -0.030   4.901   8.306  0.00  0.00    +0.010 A 
ENDBRANCH   6   8
BRANCH   4  14
ATOM     14  C   UNL     1       0.617  -0.910   8.099  0.00  0.00    -0.024 A 
ATOM     15  C   UNL     1      -0.715  -0.822   7.741  0.00  0.00    +0.009 A 
ATOM     16  C   UNL     1      -1.536  -1.927   7.852  0.00  0.00    +0.046 A 
ATOM     17  C   UNL     1      -1.022  -3.127   8.322  0.00  0.00    +0.120 A 
ATOM     18  C   UNL     1       0.316  -3.213   8.680  0.00  0.00    +0.046 A 
ATOM     19  C   UNL     1       1.134  -2.106   8.562  0.00  0.00    +0.009 A 
BRANCH  17  20
ATOM     20  O   UNL     1      -1.827  -4.216   8.432  0.00  0.00    -0.495 OA
ATOM     21  C   UNL     1      -1.229  -5.418   8.923  0.00  0.00    +0.277 C 
ENDBRANCH  17  20
ENDBRANCH   4  14
BRANCH   1  22
ATOM     22  C   UNL     1       0.904   1.505   4.347  0.00  0.00    +0.215 C 
BRANCH  22  32
ATOM     23  C   UNL     1      -0.019   1.526   0.010  0.00  0.00    +0.010 C 
ATOM     24  C   UNL     1       0.002  -0.004   0.002  0.00  0.00    +0.018 C 
ATOM     25  C   UNL     1      -1.434  -0.533   0.012  0.00  0.00    +0.006 C 
ATOM     26  C   UNL     1      -1.413  -2.063   0.024  0.00  0.00    +0.000 C 
ATOM     27  C   UNL     1      -0.690  -2.554   1.280  0.00  0.00    +0.003 C 
ATOM     28  C   UNL     1       0.749  -2.033   1.276  0.00  0.00    +0.035 C 
ATOM     29  C   UNL     1       0.741  -0.509   1.237  0.00  0.00    +0.115 C 
ATOM     30  C   UNL     1       0.111   0.049   2.493  0.00  0.00    +0.247 C 
ATOM     31  O   UNL     1      -1.023  -0.123   2.884  0.00  0.00    -0.273 OA
ATOM     32  N   UNL     1       1.078   0.778   3.087  0.00  0.00    -0.215 N 
ATOM     33  C   UNL     1       2.217   0.755   2.383  0.00  0.00    +0.310 C 
ATOM     34  O   UNL     1       3.230   1.337   2.717  0.00  0.00    -0.252 OA
ATOM     35  N   UNL     1       2.113   0.013   1.264  0.00  0.00    -0.285 N 
ATOM     36  H   UNL     1       2.808  -0.145   0.606  0.00  0.00    +0.151 HD
ENDBRANCH  22  32
ENDBRANCH   1  22
TORSDOF 5
