REMARK  Name = ZINC59330339
REMARK  6 active torsions:
REMARK  status: ('A' for Active; 'I' for Inactive)
REMARK    1  A    between atoms: C_1  and  C_2
REMARK    2  A    between atoms: N_7  and  S_9
REMARK    3  A    between atoms: S_9  and  C_12
REMARK    4  A    between atoms: C_15  and  N_18
REMARK    5  A    between atoms: C_19  and  C_21
REMARK    6  A    between atoms: N_26  and  C_28
REMARK                            x       y       z     vdW  Elec       q    Type
REMARK                         _______ _______ _______ _____ _____    ______ ____
ROOT
ATOM      1  C   UNL     1       1.724  -3.150   3.476  0.00  0.00    +0.106 A 
ATOM      2  C   UNL     1       2.410  -2.050   3.956  0.00  0.00    +0.030 A 
ATOM      3  C   UNL     1       3.474  -2.220   4.820  0.00  0.00    +0.025 A 
ATOM      4  C   UNL     1       3.854  -3.498   5.207  0.00  0.00    +0.034 A 
ATOM      5  C   UNL     1       3.163  -4.601   4.723  0.00  0.00    +0.025 A 
ATOM      6  C   UNL     1       2.097  -4.424   3.863  0.00  0.00    +0.030 A 
ENDROOT
BRANCH   4   7
ATOM      7  N   UNL     1       4.932  -3.675   6.082  0.00  0.00    -0.285 N 
ATOM      8  C   UNL     1       5.177  -2.761   7.041  0.00  0.00    +0.222 C 
ATOM      9  O   UNL     1       4.410  -1.836   7.209  0.00  0.00    -0.275 OA
ATOM     10  H   UNL     1       5.502  -4.454   5.997  0.00  0.00    +0.155 HD
BRANCH   8  11
ATOM     11  C   UNL     1       6.404  -2.887   7.906  0.00  0.00    +0.101 C 
ATOM     12  C   UNL     1       6.341  -4.166   8.773  0.00  0.00    +0.110 C 
ATOM     13  C   UNL     1       6.960  -3.753  10.090  0.00  0.00    +0.217 C 
ATOM     14  O   UNL     1       7.356  -4.520  10.942  0.00  0.00    -0.276 OA
ATOM     15  N   UNL     1       7.007  -2.413  10.178  0.00  0.00    -0.298 N 
ATOM     16  C   UNL     1       6.440  -1.779   8.982  0.00  0.00    +0.121 C 
BRANCH  15  17
ATOM     17  C   UNL     1       7.555  -1.678  11.321  0.00  0.00    +0.076 C 
ATOM     18  C   UNL     1       9.028  -2.051  11.508  0.00  0.00    +0.022 C 
ATOM     19  C   UNL     1       9.600  -1.284  12.702  0.00  0.00    +0.002 C 
ATOM     20  C   UNL     1       8.818  -1.648  13.965  0.00  0.00    +0.000 C 
ATOM     21  C   UNL     1       7.345  -1.276  13.778  0.00  0.00    +0.002 C 
ATOM     22  C   UNL     1       6.773  -2.043  12.584  0.00  0.00    +0.022 C 
ENDBRANCH  15  17
ENDBRANCH   8  11
ENDBRANCH   4   7
BRANCH   1  23
ATOM     23  S   UNL     1       0.367  -2.928   2.374  0.00  0.00    +0.061 S 
ATOM     24  O   UNL     1       0.233  -4.141   1.645  0.00  0.00    -0.153 OA
ATOM     25  O   UNL     1       0.562  -1.673   1.736  0.00  0.00    -0.153 OA
BRANCH  23  31
ATOM     26  C   UNL     1      -4.096  -4.907   3.762  0.00  0.00    +0.009 C 
ATOM     27  C   UNL     1      -3.240  -3.742   3.262  0.00  0.00    +0.002 C 
ATOM     28  C   UNL     1      -3.745  -2.436   3.878  0.00  0.00    +0.006 C 
ATOM     29  C   UNL     1      -2.910  -1.266   3.353  0.00  0.00    +0.017 C 
ATOM     30  C   UNL     1      -1.447  -1.462   3.766  0.00  0.00    +0.109 C 
ATOM     31  N   UNL     1      -0.998  -2.781   3.300  0.00  0.00    -0.176 NA
ATOM     32  C   UNL     1      -1.781  -3.967   3.672  0.00  0.00    +0.112 C 
ENDBRANCH  23  31
ENDBRANCH   1  23
TORSDOF 5
