REMARK  Name = ZINC09211663
REMARK  7 active torsions:
REMARK  status: ('A' for Active; 'I' for Inactive)
REMARK    1  A    between atoms: C_1  and  C_2
REMARK    2  A    between atoms: C_3  and  N_9
REMARK    3  A    between atoms: C_10  and  C_12
REMARK    4  A    between atoms: N_15  and  S_18
REMARK    5  A    between atoms: S_18  and  C_21
REMARK    6  A    between atoms: C_28  and  C_36
REMARK    7  A    between atoms: C_31  and  C_33
REMARK                            x       y       z     vdW  Elec       q    Type
REMARK                         _______ _______ _______ _____ _____    ______ ____
ROOT
ATOM      1  C   UNL     1       4.998  -2.747   0.159  0.00  0.00    +0.078 C 
ATOM      2  C   UNL     1       5.834  -2.448  -1.087  0.00  0.00    +0.030 C 
ATOM      3  C   UNL     1       7.183  -3.165  -0.975  0.00  0.00    +0.110 C 
ATOM      4  N   UNL     1       6.941  -4.595  -0.740  0.00  0.00    -0.177 NA
ATOM      5  C   UNL     1       6.075  -4.990   0.379  0.00  0.00    +0.110 C 
ATOM      6  C   UNL     1       4.738  -4.253   0.252  0.00  0.00    +0.030 C 
ENDROOT
BRANCH   1   8
ATOM      7  N   UNL     1       3.664  -0.671  -0.022  0.00  0.00    -0.285 N 
ATOM      8  C   UNL     1       3.683  -2.016   0.069  0.00  0.00    +0.220 C 
ATOM      9  O   UNL     1       2.642  -2.638   0.078  0.00  0.00    -0.275 OA
ATOM     10  H   UNL     1       4.497  -0.179  -0.095  0.00  0.00    +0.155 HD
BRANCH   7  13
ATOM     11  C   UNL     1       3.566   1.875   1.244  0.00  0.00    +0.047 C 
ATOM     12  C   UNL     1       2.352   1.259   0.597  0.00  0.00    -0.011 A 
ATOM     13  C   UNL     1       2.445   0.014  -0.010  0.00  0.00    +0.038 A 
ATOM     14  C   UNL     1       1.324  -0.550  -0.605  0.00  0.00    +0.023 A 
ATOM     15  C   UNL     1       0.121   0.128  -0.592  0.00  0.00    +0.003 A 
ATOM     16  C   UNL     1       0.031   1.368   0.013  0.00  0.00    +0.020 A 
ATOM     17  C   UNL     1       1.146   1.933   0.607  0.00  0.00    +0.046 A 
ATOM     18 CL   UNL     1       1.029   3.491   1.364  0.00  0.00    -0.083 Cl
ENDBRANCH   7  13
ENDBRANCH   1   8
BRANCH   4  19
ATOM     19  S   UNL     1       7.630  -5.739  -1.719  0.00  0.00    +0.061 S 
ATOM     20  O   UNL     1       8.784  -5.141  -2.293  0.00  0.00    -0.153 OA
ATOM     21  O   UNL     1       7.692  -6.939  -0.960  0.00  0.00    -0.153 OA
BRANCH  19  22
ATOM     22  C   UNL     1       6.507  -6.038  -3.043  0.00  0.00    +0.106 A 
ATOM     23  C   UNL     1       5.543  -7.024  -2.925  0.00  0.00    +0.030 A 
ATOM     24  C   UNL     1       4.660  -7.257  -3.957  0.00  0.00    +0.026 A 
ATOM     25  C   UNL     1       4.737  -6.508  -5.133  0.00  0.00    +0.040 A 
ATOM     26  C   UNL     1       5.709  -5.526  -5.243  0.00  0.00    -0.022 A 
ATOM     27  C   UNL     1       6.589  -5.292  -4.204  0.00  0.00    +0.034 A 
ATOM     28  C   UNL     1       5.578  -4.869  -6.598  0.00  0.00    +0.059 C 
ATOM     29  C   UNL     1       4.401  -5.596  -7.269  0.00  0.00    +0.083 C 
ATOM     30  N   UNL     1       3.951  -6.586  -6.287  0.00  0.00    -0.268 N 
ATOM     31  C   UNL     1       2.929  -7.446  -6.469  0.00  0.00    +0.223 C 
ATOM     32  O   UNL     1       2.570  -8.162  -5.559  0.00  0.00    -0.275 OA
ATOM     33  C   UNL     1       3.275  -4.607  -7.580  0.00  0.00    +0.029 C 
BRANCH  31  34
ATOM     34  C   UNL     1       2.232  -7.516  -7.803  0.00  0.00    +0.076 C 
ATOM     35  C   UNL     1       0.753  -7.128  -7.849  0.00  0.00    +0.013 C 
ATOM     36  C   UNL     1       1.163  -8.595  -7.986  0.00  0.00    +0.013 C 
ENDBRANCH  31  34
ENDBRANCH  19  22
ENDBRANCH   4  19
TORSDOF 5
