REMARK  Name = ZINC04045393
REMARK  6 active torsions:
REMARK  status: ('A' for Active; 'I' for Inactive)
REMARK    1  A    between atoms: C_1  and  C_2
REMARK    2  A    between atoms: C_3  and  C_12
REMARK    3  A    between atoms: N_10  and  C_11
REMARK    4  A    between atoms: N_13  and  N_14
REMARK    5  A    between atoms: C_15  and  C_17
REMARK    6  A    between atoms: C_21  and  C_22
REMARK                            x       y       z     vdW  Elec       q    Type
REMARK                         _______ _______ _______ _____ _____    ______ ____
ROOT
ATOM      1  C   UNL     1       0.526   6.416   0.030  0.00  0.00    +0.140 C 
ATOM      2  N   UNL     1       1.810   6.215   0.017  0.00  0.00    -0.187 NA
ENDROOT
BRANCH   1   5
ATOM      3  C   UNL     1      -2.577   6.587   0.060  0.00  0.00    +0.064 C 
ATOM      4  C   UNL     1      -1.757   5.323   0.046  0.00  0.00    +0.025 A 
ATOM      5  C   UNL     1      -0.398   5.271   0.033  0.00  0.00    +0.023 A 
ATOM      6  C   UNL     1      -0.032   3.843   0.022  0.00  0.00    +0.009 A 
ATOM      7  C   UNL     1       1.181   3.156   0.007  0.00  0.00    +0.010 A 
ATOM      8  C   UNL     1       1.184   1.779   0.000  0.00  0.00    +0.001 A 
ATOM      9  C   UNL     1      -0.013   1.076   0.008  0.00  0.00    +0.002 A 
ATOM     10  C   UNL     1      -1.218   1.742   0.017  0.00  0.00    +0.026 A 
ATOM     11  C   UNL     1      -1.243   3.133   0.030  0.00  0.00    +0.050 A 
ATOM     12  N   UNL     1      -2.265   4.058   0.044  0.00  0.00    -0.346 N 
ATOM     13  C   UNL     1      -3.693   3.729   0.055  0.00  0.00    +0.149 C 
ENDBRANCH   1   5
BRANCH   2  14
ATOM     14  N   UNL     1       2.689   7.306   0.015  0.00  0.00    -0.203 N 
ATOM     15  C   UNL     1       4.021   7.097   0.002  0.00  0.00    +0.267 C 
ATOM     16  O   UNL     1       4.459   5.962  -0.008  0.00  0.00    -0.268 OA
ATOM     17  H   UNL     1       2.340   8.210   0.022  0.00  0.00    +0.178 HD
BRANCH  15  18
ATOM     18  C   UNL     1       4.946   8.244  -0.001  0.00  0.00    +0.079 A 
ATOM     19  C   UNL     1       4.593   9.671   0.002  0.00  0.00    +0.054 A 
ATOM     20  C   UNL     1       5.757  10.339   0.000  0.00  0.00    +0.196 A 
ATOM     21  O   UNL     1       6.769   9.459  -0.013  0.00  0.00    -0.467 OA
ATOM     22  C   UNL     1       6.310   8.203  -0.014  0.00  0.00    +0.114 A 
ATOM     23  C   UNL     1       7.155   6.955  -0.027  0.00  0.00    +0.087 C 
ENDBRANCH  15  18
ENDBRANCH   2  14
TORSDOF 3
