REMARK  Name = ZINC13008031
REMARK  5 active torsions:
REMARK  status: ('A' for Active; 'I' for Inactive)
REMARK    1  A    between atoms: C_1  and  C_2
REMARK    2  A    between atoms: C_3  and  C_12
REMARK    3  A    between atoms: C_12  and  C_14
REMARK    4  A    between atoms: C_14  and  S_15
REMARK    5  A    between atoms: S_15  and  C_16
REMARK                            x       y       z     vdW  Elec       q    Type
REMARK                         _______ _______ _______ _____ _____    ______ ____
ROOT
ATOM      1  C   UNL     1      -2.038  -3.554   0.004  0.00  0.00    +0.176 C 
ATOM      2  O   UNL     1      -3.173  -3.135   0.105  0.00  0.00    -0.291 OA
ENDROOT
BRANCH   1   5
ATOM      3  C   UNL     1      -1.711  -5.088  -2.670  0.00  0.00    +0.064 C 
ATOM      4  C   UNL     1      -1.655  -5.667  -1.280  0.00  0.00    +0.024 A 
ATOM      5  C   UNL     1      -1.806  -4.948  -0.113  0.00  0.00    +0.046 A 
ATOM      6  C   UNL     1      -1.683  -5.922   0.989  0.00  0.00    +0.010 A 
ATOM      7  C   UNL     1      -1.745  -5.825   2.376  0.00  0.00    +0.011 A 
ATOM      8  C   UNL     1      -1.586  -6.956   3.147  0.00  0.00    +0.001 A 
ATOM      9  C   UNL     1      -1.365  -8.186   2.546  0.00  0.00    +0.002 A 
ATOM     10  C   UNL     1      -1.301  -8.296   1.174  0.00  0.00    +0.026 A 
ATOM     11  C   UNL     1      -1.459  -7.165   0.379  0.00  0.00    +0.047 A 
ATOM     12  N   UNL     1      -1.446  -6.965  -0.987  0.00  0.00    -0.358 N 
ATOM     13  H   UNL     1      -1.310  -7.663  -1.646  0.00  0.00    +0.166 HD
ENDBRANCH   1   5
BRANCH   1  14
ATOM     14  C   UNL     1      -0.877  -2.594   0.003  0.00  0.00    +0.157 C 
BRANCH  14  15
ATOM     15  S   UNL     1      -1.500  -0.895   0.007  0.00  0.00    -0.080 S 
BRANCH  15  16
ATOM     16  C   UNL     1       0.025  -0.010   0.005  0.00  0.00    +0.170 A 
ATOM     17  N   UNL     1       0.011   1.354   0.008  0.00  0.00    -0.301 N 
ATOM     18  H   UNL     1      -0.839   1.822   0.006  0.00  0.00    +0.171 HD
ATOM     19  C   UNL     1       1.155   2.064   0.007  0.00  0.00    +0.260 A 
ATOM     20  O   UNL     1       1.125   3.282   0.009  0.00  0.00    -0.267 OA
ATOM     21  C   UNL     1       2.405   1.369   0.003  0.00  0.00    +0.072 A 
ATOM     22  C   UNL     1       3.755   1.906   0.002  0.00  0.00    +0.023 A 
ATOM     23  C   UNL     1       4.796   1.060  -0.001  0.00  0.00    +0.048 A 
ATOM     24  S   UNL     1       4.025  -0.547  -0.003  0.00  0.00    -0.077 S 
ATOM     25  C   UNL     1       2.325  -0.036   0.001  0.00  0.00    +0.116 A 
ATOM     26  N   UNL     1       1.162  -0.676   0.002  0.00  0.00    -0.216 NA
ENDBRANCH  15  16
ENDBRANCH  14  15
ENDBRANCH   1  14
TORSDOF 4
