REMARK  Name = ZINC03034143
REMARK  10 active torsions:
REMARK  status: ('A' for Active; 'I' for Inactive)
REMARK    1  A    between atoms: C_1  and  C_2
REMARK    2  A    between atoms: C_2  and  C_3
REMARK    3  A    between atoms: C_3  and  C_5
REMARK    4  A    between atoms: C_3  and  N_6
REMARK    5  A    between atoms: C_7  and  C_9
REMARK    6  A    between atoms: C_9  and  S_10
REMARK    7  A    between atoms: S_10  and  C_11
REMARK    8  A    between atoms: N_17  and  C_18
REMARK    9  A    between atoms: N_28  and  C_29
REMARK   10  A    between atoms: C_34  and  C_35
REMARK                            x       y       z     vdW  Elec       q    Type
REMARK                         _______ _______ _______ _____ _____    ______ ____
ROOT
ATOM      1  C   UNL     1      -0.988   3.490   0.030  0.00  0.00    +0.179 A 
ATOM      2  N   UNL     1      -1.099   2.185   0.030  0.00  0.00    -0.204 NA
ATOM      3  C   UNL     1      -0.017   1.369   0.010  0.00  0.00    +0.161 A 
ATOM      4  C   UNL     1       1.229   2.000   0.001  0.00  0.00    +0.122 A 
ATOM      5  C   UNL     1       1.352   3.382   0.007  0.00  0.00    +0.275 A 
ATOM      6  O   UNL     1       2.451   3.914   0.000  0.00  0.00    -0.266 OA
ATOM      7  N   UNL     1       0.220   4.126   0.022  0.00  0.00    -0.252 N 
ATOM      8  S   UNL     1       2.372   0.641  -0.017  0.00  0.00    -0.055 S 
ATOM      9  C   UNL     1       1.169  -0.680  -0.013  0.00  0.00    +0.132 A 
ATOM     10  S   UNL     1       1.431  -2.372  -0.024  0.00  0.00    -0.024 S 
ATOM     11  N   UNL     1       0.002  -0.004   0.002  0.00  0.00    -0.281 N 
ENDROOT
BRANCH   7  12
ATOM     12  C   UNL     1       0.287   5.527   0.029  0.00  0.00    +0.087 A 
ATOM     13  C   UNL     1       0.315   6.227  -1.169  0.00  0.00    +0.029 A 
ATOM     14  C   UNL     1       0.376   7.607  -1.160  0.00  0.00    +0.002 A 
ATOM     15  C   UNL     1       0.421   8.292   0.041  0.00  0.00    +0.003 A 
ATOM     16  C   UNL     1       0.399   7.598   1.237  0.00  0.00    +0.040 A 
ATOM     17  C   UNL     1       0.332   6.216   1.235  0.00  0.00    +0.147 A 
ATOM     18  F   UNL     1       0.312   5.538   2.403  0.00  0.00    -0.203 F 
ENDBRANCH   7  12
BRANCH  11  19
ATOM     19  C   UNL     1      -1.207  -0.712   0.010  0.00  0.00    +0.052 A 
ATOM     20  C   UNL     1      -1.819  -1.057  -1.188  0.00  0.00    +0.026 A 
ATOM     21  C   UNL     1      -3.011  -1.755  -1.176  0.00  0.00    +0.002 A 
ATOM     22  C   UNL     1      -3.595  -2.110   0.026  0.00  0.00    +0.000 A 
ATOM     23  C   UNL     1      -2.987  -1.768   1.220  0.00  0.00    +0.005 A 
ATOM     24  C   UNL     1      -1.792  -1.075   1.216  0.00  0.00    -0.027 A 
ATOM     25  C   UNL     1      -1.128  -0.708   2.518  0.00  0.00    +0.046 C 
ENDBRANCH  11  19
BRANCH   1  26
ATOM     26  S   UNL     1      -2.456   4.463   0.050  0.00  0.00    -0.078 S 
BRANCH  26  27
ATOM     27  C   UNL     1      -3.703   3.151   0.054  0.00  0.00    +0.173 C 
BRANCH  27  29
ATOM     28  N   UNL     1      -6.170   2.974   0.077  0.00  0.00    -0.312 N 
ATOM     29  C   UNL     1      -5.079   3.765   0.071  0.00  0.00    +0.224 C 
ATOM     30  O   UNL     1      -5.205   4.972   0.078  0.00  0.00    -0.275 OA
ATOM     31  H   UNL     1      -6.070   2.010   0.071  0.00  0.00    +0.149 HD
BRANCH  28  32
ATOM     32  C   UNL     1      -7.508   3.572   0.093  0.00  0.00    +0.070 C 
ATOM     33  C   UNL     1      -7.936   3.902  -1.338  0.00  0.00    +0.028 C 
BRANCH  32  35
ATOM     34  C   UNL     1      -8.145   2.348   2.176  0.00  0.00    +0.005 C 
ATOM     35  C   UNL     1      -8.501   2.583   0.707  0.00  0.00    +0.018 C 
ENDBRANCH  32  35
ENDBRANCH  28  32
ENDBRANCH  27  29
ENDBRANCH  26  27
ENDBRANCH   1  26
TORSDOF 7
