REMARK  Name = ZINC13282106
REMARK  4 active torsions:
REMARK  status: ('A' for Active; 'I' for Inactive)
REMARK    1  A    between atoms: C_4  and  N_17
REMARK    2  A    between atoms: C_5  and  C_7
REMARK    3  A    between atoms: C_18  and  C_20
REMARK    4  A    between atoms: C_21  and  C_22
REMARK                            x       y       z     vdW  Elec       q    Type
REMARK                         _______ _______ _______ _____ _____    ______ ____
ROOT
ATOM      1  C   UNL     1       5.687  -0.257   0.030  0.00  0.00    +0.001 A 
ATOM      2  C   UNL     1       6.317   0.953  -0.212  0.00  0.00    +0.002 A 
ATOM      3  C   UNL     1       5.581   2.119  -0.297  0.00  0.00    +0.024 A 
ATOM      4  C   UNL     1       4.202   2.083  -0.145  0.00  0.00    +0.044 A 
ATOM      5  C   UNL     1       3.562   0.861   0.106  0.00  0.00    +0.038 A 
ATOM      6  C   UNL     1       4.318  -0.309   0.190  0.00  0.00    +0.013 A 
ENDROOT
BRANCH   5   7
ATOM      7  C   UNL     1       2.096   0.811   0.275  0.00  0.00    +0.141 A 
ATOM      8  N   UNL     1       1.356  -0.334   0.406  0.00  0.00    -0.338 N 
ATOM      9  H   UNL     1       1.707  -1.270   0.403  0.00  0.00    +0.167 HD
ATOM     10  C   UNL     1       0.035   0.047   0.542  0.00  0.00    +0.066 A 
ATOM     11  C   UNL     1      -1.155  -0.648   0.706  0.00  0.00    +0.028 A 
ATOM     12  C   UNL     1      -2.342   0.046   0.815  0.00  0.00    +0.002 A 
ATOM     13  C   UNL     1      -2.354   1.433   0.760  0.00  0.00    +0.002 A 
ATOM     14  C   UNL     1      -1.192   2.134   0.604  0.00  0.00    +0.030 A 
ATOM     15  C   UNL     1       0.023   1.452   0.487  0.00  0.00    +0.089 A 
ATOM     16  N   UNL     1       1.306   1.857   0.324  0.00  0.00    -0.228 NA
ENDBRANCH   5   7
BRANCH   4  17
ATOM     17  N   UNL     1       3.457   3.258  -0.236  0.00  0.00    -0.281 N 
ATOM     18  C   UNL     1       3.994   4.429   0.158  0.00  0.00    +0.241 C 
ATOM     19  O   UNL     1       5.157   4.476   0.515  0.00  0.00    -0.270 OA
ATOM     20  H   UNL     1       2.551   3.232  -0.584  0.00  0.00    +0.155 HD
BRANCH  18  21
ATOM     21  C   UNL     1       3.207   5.604   0.158  0.00  0.00    +0.071 C 
ATOM     22  C   UNL     1       3.747   6.783   0.555  0.00  0.00    +0.051 C 
BRANCH  22  23
ATOM     23  C   UNL     1       2.959   7.960   0.554  0.00  0.00    +0.128 A 
ATOM     24  C   UNL     1       3.377   9.218   0.936  0.00  0.00    +0.049 A 
ATOM     25  C   UNL     1       2.275  10.071   0.771  0.00  0.00    +0.042 A 
ATOM     26  C   UNL     1       1.250   9.317   0.315  0.00  0.00    +0.195 A 
ATOM     27  O   UNL     1       1.664   8.049   0.185  0.00  0.00    -0.464 OA
ENDBRANCH  22  23
ENDBRANCH  18  21
ENDBRANCH   4  17
TORSDOF 4
