REMARK  Name = ZINC45528629
REMARK  3 active torsions:
REMARK  status: ('A' for Active; 'I' for Inactive)
REMARK    1  A    between atoms: N_3  and  C_10
REMARK    2  A    between atoms: C_10  and  C_11
REMARK    3  A    between atoms: N_13  and  C_14
REMARK                            x       y       z     vdW  Elec       q    Type
REMARK                         _______ _______ _______ _____ _____    ______ ____
ROOT
ATOM      1  C   UNL     1       4.053   2.364   1.397  0.00  0.00    +0.233 C 
ATOM      2  O   UNL     1       3.378   1.967   2.323  0.00  0.00    -0.274 OA
ATOM      3  N   UNL     1       5.204   3.023   1.636  0.00  0.00    -0.308 N 
ATOM      4  H   UNL     1       5.743   3.341   0.895  0.00  0.00    +0.149 HD
ENDROOT
BRANCH   3   5
ATOM      5  C   UNL     1       5.640   3.259   3.014  0.00  0.00    +0.035 C 
ATOM      6  C   UNL     1       4.582   4.084   3.750  0.00  0.00    +0.029 C 
ATOM      7  C   UNL     1       5.038   4.331   5.190  0.00  0.00    -0.008 C 
ATOM      8  C   UNL     1       6.365   5.093   5.181  0.00  0.00    +0.007 C 
ATOM      9  C   UNL     1       7.423   4.268   4.445  0.00  0.00    -0.008 C 
ATOM     10  C   UNL     1       6.967   4.022   3.006  0.00  0.00    +0.029 C 
ATOM     11  C   UNL     1       7.610   2.927   5.157  0.00  0.00    +0.007 C 
ATOM     12  C   UNL     1       6.283   2.165   5.166  0.00  0.00    -0.008 C 
ATOM     13  C   UNL     1       5.226   2.990   5.902  0.00  0.00    +0.007 C 
ATOM     14  C   UNL     1       5.827   1.918   3.727  0.00  0.00    +0.029 C 
ENDBRANCH   3   5
BRANCH   1  15
ATOM     15  C   UNL     1       3.603   2.122  -0.021  0.00  0.00    +0.221 C 
BRANCH  15  18
ATOM     16  C   UNL     1      -0.017   1.411   0.010  0.00  0.00    +0.088 A 
ATOM     17  C   UNL     1       1.153   2.084   0.002  0.00  0.00    +0.096 A 
ATOM     18  N   UNL     1       2.333   1.392  -0.013  0.00  0.00    -0.292 N 
ATOM     19  C   UNL     1       2.338   0.046  -0.021  0.00  0.00    +0.330 A 
ATOM     20  O   UNL     1       3.398  -0.549  -0.034  0.00  0.00    -0.246 OA
ATOM     21  N   UNL     1       1.186  -0.650  -0.013  0.00  0.00    -0.275 N 
ATOM     22  H   UNL     1       1.207  -1.619  -0.018  0.00  0.00    +0.173 HD
ATOM     23  C   UNL     1       0.002  -0.004   0.002  0.00  0.00    +0.254 A 
ATOM     24  O   UNL     1      -1.041  -0.633   0.009  0.00  0.00    -0.268 OA
ENDBRANCH  15  18
ENDBRANCH   1  15
TORSDOF 3
