REMARK  Name = ZINC40825223
REMARK  9 active torsions:
REMARK  status: ('A' for Active; 'I' for Inactive)
REMARK    1  A    between atoms: C_1  and  C_2
REMARK    2  A    between atoms: C_6  and  C_7
REMARK    3  A    between atoms: N_9  and  N_10
REMARK    4  A    between atoms: N_10  and  C_11
REMARK    5  A    between atoms: N_10  and  C_17
REMARK    6  A    between atoms: N_27  and  N_28
REMARK    7  A    between atoms: N_28  and  C_29
REMARK    8  A    between atoms: C_29  and  N_31
REMARK    9  A    between atoms: N_31  and  C_32
REMARK                            x       y       z     vdW  Elec       q    Type
REMARK                         _______ _______ _______ _____ _____    ______ ____
ROOT
ATOM      1  C   UNL     1      -0.228  -0.671  -0.378  0.00  0.00    +0.048 C 
ATOM      2  C   UNL     1      -0.274  -2.062   0.200  0.00  0.00    +0.009 A 
ATOM      3  C   UNL     1      -0.719  -3.224  -0.441  0.00  0.00    +0.042 A 
ATOM      4  C   UNL     1      -0.589  -4.263   0.450  0.00  0.00    +0.115 A 
ATOM      5  O   UNL     1      -0.087  -3.773   1.582  0.00  0.00    -0.454 OA
ATOM      6  C   UNL     1       0.116  -2.442   1.454  0.00  0.00    +0.194 A 
ATOM      7  C   UNL     1      -0.975  -5.682   0.118  0.00  0.00    +0.075 C 
ATOM      8  C   UNL     1      -1.953  -5.680  -1.059  0.00  0.00    +0.014 C 
ATOM      9  C   UNL     1      -1.381  -4.884  -2.236  0.00  0.00    +0.058 C 
ATOM     10  C   UNL     1      -1.247  -3.430  -1.808  0.00  0.00    +0.070 C 
ATOM     11  N   UNL     1      -1.572  -2.443  -2.584  0.00  0.00    -0.185 NA
ENDROOT
BRANCH   6  12
ATOM     12  C   UNL     1       0.661  -1.556   2.488  0.00  0.00    +0.296 C 
ATOM     13  O   UNL     1       0.799  -0.368   2.261  0.00  0.00    -0.265 OA
ATOM     14  N   UNL     1       1.010  -2.056   3.690  0.00  0.00    -0.223 N 
ATOM     15  H   UNL     1       0.900  -3.003   3.871  0.00  0.00    +0.174 HD
BRANCH  14  16
ATOM     16  N   UNL     1       1.530  -1.209   4.677  0.00  0.00    -0.219 N 
BRANCH  16  17
ATOM     17  C   UNL     1       0.683  -0.343   5.372  0.00  0.00    +0.053 A 
ATOM     18  C   UNL     1       1.215   0.629   6.210  0.00  0.00    +0.025 A 
ATOM     19  C   UNL     1       0.375   1.484   6.895  0.00  0.00    +0.002 A 
ATOM     20  C   UNL     1      -0.996   1.375   6.747  0.00  0.00    +0.000 A 
ATOM     21  C   UNL     1      -1.530   0.409   5.913  0.00  0.00    +0.002 A 
ATOM     22  C   UNL     1      -0.695  -0.446   5.221  0.00  0.00    +0.025 A 
ENDBRANCH  16  17
BRANCH  16  23
ATOM     23  C   UNL     1       2.897  -1.232   4.968  0.00  0.00    +0.053 A 
ATOM     24  C   UNL     1       3.828  -1.136   3.941  0.00  0.00    +0.025 A 
ATOM     25  C   UNL     1       5.178  -1.158   4.232  0.00  0.00    +0.002 A 
ATOM     26  C   UNL     1       5.603  -1.275   5.543  0.00  0.00    +0.000 A 
ATOM     27  C   UNL     1       4.679  -1.371   6.567  0.00  0.00    +0.002 A 
ATOM     28  C   UNL     1       3.327  -1.344   6.284  0.00  0.00    +0.025 A 
ENDBRANCH  16  23
ENDBRANCH  14  16
ENDBRANCH   6  12
BRANCH  11  29
ATOM     29  N   UNL     1      -2.068  -2.697  -3.870  0.00  0.00    -0.218 N 
ATOM     30  H   UNL     1      -2.167  -3.611  -4.180  0.00  0.00    +0.176 HD
BRANCH  29  31
ATOM     31  C   UNL     1      -2.406  -1.672  -4.677  0.00  0.00    +0.154 C 
ATOM     32  S   UNL     1      -3.011  -1.982  -6.248  0.00  0.00    -0.017 S 
BRANCH  31  33
ATOM     33  N   UNL     1      -2.267  -0.402  -4.247  0.00  0.00    -0.296 N 
ATOM     34  H   UNL     1      -1.854  -0.223  -3.387  0.00  0.00    +0.154 HD
BRANCH  33  35
ATOM     35  C   UNL     1      -2.720   0.658  -5.039  0.00  0.00    +0.033 A 
ATOM     36  C   UNL     1      -3.950   0.574  -5.678  0.00  0.00    +0.023 A 
ATOM     37  C   UNL     1      -4.394   1.623  -6.459  0.00  0.00    +0.002 A 
ATOM     38  C   UNL     1      -3.615   2.756  -6.606  0.00  0.00    +0.000 A 
ATOM     39  C   UNL     1      -2.389   2.842  -5.972  0.00  0.00    +0.002 A 
ATOM     40  C   UNL     1      -1.942   1.800  -5.184  0.00  0.00    +0.023 A 
ENDBRANCH  33  35
ENDBRANCH  31  33
ENDBRANCH  29  31
ENDBRANCH  11  29
TORSDOF 8
