REMARK  Name = ZINC39037535
REMARK  7 active torsions:
REMARK  status: ('A' for Active; 'I' for Inactive)
REMARK    1  A    between atoms: C_1  and  C_2
REMARK    2  A    between atoms: C_5  and  C_9
REMARK    3  A    between atoms: C_7  and  C_8
REMARK    4  A    between atoms: N_11  and  C_12
REMARK    5  A    between atoms: C_12  and  C_14
REMARK    6  A    between atoms: C_12  and  C_21
REMARK    7  A    between atoms: C_14  and  C_15
REMARK                            x       y       z     vdW  Elec       q    Type
REMARK                         _______ _______ _______ _____ _____    ______ ____
ROOT
ATOM      1  C   UNL     1       0.045  -6.449  -1.182  0.00  0.00    +0.164 C 
ENDROOT
BRANCH   1   2
ATOM      2  C   UNL     1      -0.549  -7.019  -2.444  0.00  0.00    +0.236 C 
ATOM      3  O   UNL     1      -0.405  -6.438  -3.499  0.00  0.00    -0.274 OA
ATOM      4  N   UNL     1      -1.241  -8.175  -2.400  0.00  0.00    -0.300 N 
ATOM      5  C   UNL     1      -1.518  -8.834  -1.116  0.00  0.00    +0.106 C 
ATOM      6  C   UNL     1      -1.029 -10.284  -1.191  0.00  0.00    +0.009 C 
ATOM      7  C   UNL     1      -1.662 -10.971  -2.401  0.00  0.00    -0.037 C 
ATOM      8  C   UNL     1      -1.242 -10.251  -3.683  0.00  0.00    +0.009 C 
ATOM      9  C   UNL     1      -1.738  -8.797  -3.635  0.00  0.00    +0.106 C 
ATOM     10  C   UNL     1      -1.210 -12.431  -2.459  0.00  0.00    +0.140 C 
ATOM     11  C   UNL     1      -1.996 -13.062  -3.605  0.00  0.00    +0.042 C 
ATOM     12  N   UNL     1      -1.129 -13.555  -4.399  0.00  0.00    -0.243 NA
ATOM     13  C   UNL     1       0.136 -13.267  -4.003  0.00  0.00    +0.216 C 
ATOM     14  N   UNL     1       0.184 -12.584  -2.879  0.00  0.00    -0.264 NA
ATOM     15  C   UNL     1      -3.494 -12.923  -3.700  0.00  0.00    +0.034 C 
ATOM     16  C   UNL     1      -3.795 -11.428  -3.484  0.00  0.00    -0.076 C 
ATOM     17  N   UNL     1      -3.126 -10.942  -2.276  0.00  0.00    +0.385 N 
ATOM     18  H   UNL     1      -3.399 -11.520  -1.495  0.00  0.00    -0.085 HD
ATOM     19  H   UNL     1      -3.421  -9.993  -2.097  0.00  0.00    -0.085 HD
ENDBRANCH   1   2
BRANCH   1  22
ATOM     20  C   UNL     1       0.259  -4.205  -0.254  0.00  0.00    +0.245 C 
ATOM     21  O   UNL     1       0.129  -4.684   0.856  0.00  0.00    -0.270 OA
ATOM     22  N   UNL     1       0.231  -5.004  -1.340  0.00  0.00    -0.300 N 
ATOM     23  H   UNL     1       0.335  -4.622  -2.225  0.00  0.00    +0.150 HD
BRANCH  20  28
ATOM     24  C   UNL     1       0.990   1.469  -0.874  0.00  0.00    +0.044 C 
ATOM     25  C   UNL     1       0.798  -0.017  -0.712  0.00  0.00    -0.047 A 
ATOM     26  C   UNL     1       0.771  -0.834  -1.829  0.00  0.00    +0.004 A 
ATOM     27  C   UNL     1       0.596  -2.195  -1.687  0.00  0.00    +0.013 A 
ATOM     28  C   UNL     1       0.447  -2.748  -0.414  0.00  0.00    +0.037 A 
ATOM     29  C   UNL     1       0.475  -1.918   0.708  0.00  0.00    +0.016 A 
ATOM     30  C   UNL     1       0.655  -0.559   0.553  0.00  0.00    -0.047 A 
ATOM     31  C   UNL     1       0.692   0.338   1.763  0.00  0.00    +0.044 C 
ENDBRANCH  20  28
ENDBRANCH   1  22
BRANCH   1  32
ATOM     32  C   UNL     1       1.397  -7.111  -0.910  0.00  0.00    +0.067 C 
BRANCH  32  33
ATOM     33  C   UNL     1       1.923  -6.649   0.424  0.00  0.00    -0.045 A 
ATOM     34  C   UNL     1       2.716  -5.519   0.502  0.00  0.00    +0.004 A 
ATOM     35  C   UNL     1       3.198  -5.096   1.726  0.00  0.00    +0.000 A 
ATOM     36  C   UNL     1       2.888  -5.802   2.873  0.00  0.00    +0.000 A 
ATOM     37  C   UNL     1       2.095  -6.932   2.796  0.00  0.00    +0.000 A 
ATOM     38  C   UNL     1       1.609  -7.353   1.572  0.00  0.00    +0.004 A 
ENDBRANCH  32  33
ENDBRANCH   1  32
TORSDOF 5
