REMARK  Name = ZINC29222842
REMARK  5 active torsions:
REMARK  status: ('A' for Active; 'I' for Inactive)
REMARK    1  A    between atoms: C_4  and  C_7
REMARK    2  A    between atoms: N_10  and  S_29
REMARK    3  A    between atoms: C_12  and  C_14
REMARK    4  A    between atoms: C_14  and  N_15
REMARK    5  A    between atoms: S_29  and  C_32
REMARK                            x       y       z     vdW  Elec       q    Type
REMARK                         _______ _______ _______ _____ _____    ______ ____
ROOT
ATOM      1  C   UNL     1       1.886  -3.554  -3.915  0.00  0.00    +0.037 C 
ATOM      2  C   UNL     1       2.513  -3.245  -2.539  0.00  0.00    +0.118 C 
ATOM      3  N   UNL     1       1.407  -3.002  -1.601  0.00  0.00    -0.176 NA
ATOM      4  C   UNL     1       0.131  -3.174  -2.319  0.00  0.00    +0.111 C 
ATOM      5  C   UNL     1       0.478  -2.911  -3.808  0.00  0.00    -0.003 C 
ENDROOT
BRANCH   1   9
ATOM      6  C   UNL     1       4.145  -1.728  -7.048  0.00  0.00    +0.000 A 
ATOM      7  C   UNL     1       3.928  -1.047  -5.865  0.00  0.00    +0.000 A 
ATOM      8  C   UNL     1       3.196  -1.637  -4.851  0.00  0.00    +0.004 A 
ATOM      9  C   UNL     1       2.683  -2.910  -5.021  0.00  0.00    -0.043 A 
ATOM     10  C   UNL     1       2.905  -3.593  -6.201  0.00  0.00    +0.004 A 
ATOM     11  C   UNL     1       3.631  -3.000  -7.217  0.00  0.00    +0.000 A 
ENDBRANCH   1   9
BRANCH   3  12
ATOM     12  S   UNL     1       1.569  -2.606  -0.001  0.00  0.00    +0.061 S 
ATOM     13  O   UNL     1       2.843  -3.084   0.409  0.00  0.00    -0.153 OA
ATOM     14  O   UNL     1       0.364  -3.004   0.639  0.00  0.00    -0.153 OA
BRANCH  12  15
ATOM     15  C   UNL     1       1.635  -0.848   0.097  0.00  0.00    +0.105 A 
ATOM     16  C   UNL     1       0.469  -0.120   0.246  0.00  0.00    +0.028 A 
ATOM     17  C   UNL     1       0.521   1.259   0.324  0.00  0.00    +0.002 A 
ATOM     18  C   UNL     1       1.738   1.910   0.253  0.00  0.00    +0.000 A 
ATOM     19  C   UNL     1       2.904   1.182   0.102  0.00  0.00    +0.002 A 
ATOM     20  C   UNL     1       2.852  -0.197   0.025  0.00  0.00    +0.028 A 
ENDBRANCH  12  15
ENDBRANCH   3  12
BRANCH   5  21
ATOM     21  C   UNL     1       0.535  -1.412  -4.106  0.00  0.00    -0.073 C 
BRANCH  21  22
ATOM     22  N   UNL     1      -0.820  -0.848  -4.042  0.00  0.00    +0.380 N 
ATOM     23  C   UNL     1      -1.667  -1.391  -5.112  0.00  0.00    -0.078 C 
ATOM     24  C   UNL     1      -3.103  -0.897  -4.928  0.00  0.00    -0.006 C 
ATOM     25  C   UNL     1      -3.118   0.635  -4.967  0.00  0.00    +0.003 C 
ATOM     26  C   UNL     1      -2.192   1.175  -3.872  0.00  0.00    -0.006 C 
ATOM     27  C   UNL     1      -0.782   0.619  -4.087  0.00  0.00    -0.078 C 
ATOM     28  C   UNL     1      -2.581   1.099  -6.341  0.00  0.00    +0.086 C 
ATOM     29  S   UNL     1      -3.581   2.629  -6.559  0.00  0.00    -0.124 S 
ATOM     30  C   UNL     1      -4.934   2.224  -5.477  0.00  0.00    +0.012 A 
ATOM     31  C   UNL     1      -4.524   1.129  -4.722  0.00  0.00    -0.027 A 
ATOM     32  C   UNL     1      -5.446   0.598  -3.817  0.00  0.00    +0.005 A 
ATOM     33  C   UNL     1      -6.699   1.151  -3.671  0.00  0.00    +0.000 A 
ATOM     34  C   UNL     1      -7.081   2.249  -4.420  0.00  0.00    +0.001 A 
ATOM     35  C   UNL     1      -6.188   2.787  -5.328  0.00  0.00    +0.015 A 
ATOM     36  H   UNL     1      -1.266  -1.142  -3.081  0.00  0.00    -0.082 HD
ENDBRANCH  21  22
ENDBRANCH   5  21
TORSDOF 5
