REMARK  Name = ZINC63617114
REMARK  11 active torsions:
REMARK  status: ('A' for Active; 'I' for Inactive)
REMARK    1  A    between atoms: C_1  and  C_2
REMARK    2  A    between atoms: C_5  and  C_8
REMARK    3  A    between atoms: C_8  and  C_10
REMARK    4  A    between atoms: C_8  and  N_22
REMARK    5  A    between atoms: N_12  and  C_13
REMARK    6  A    between atoms: C_16  and  C_19
REMARK    7  A    between atoms: C_19  and  C_20
REMARK    8  A    between atoms: C_19  and  C_21
REMARK    9  A    between atoms: N_22  and  C_23
REMARK   10  A    between atoms: C_24  and  C_26
REMARK   11  A    between atoms: C_26  and  C_27
REMARK                            x       y       z     vdW  Elec       q    Type
REMARK                         _______ _______ _______ _____ _____    ______ ____
ROOT
ATOM      1  C   UNL     1      -0.057  -3.990  -0.014  0.00  0.00    +0.192 C 
ENDROOT
BRANCH   1   6
ATOM      2  C   UNL     1      -0.365   1.671  -1.134  0.00  0.00    +0.044 C 
ATOM      3  C   UNL     1      -0.284   0.195  -0.842  0.00  0.00    -0.050 A 
ATOM      4  C   UNL     1      -0.535  -0.723  -1.845  0.00  0.00    +0.004 A 
ATOM      5  C   UNL     1      -0.461  -2.077  -1.577  0.00  0.00    +0.006 A 
ATOM      6  C   UNL     1      -0.136  -2.514  -0.306  0.00  0.00    -0.018 A 
ATOM      7  C   UNL     1       0.115  -1.596   0.697  0.00  0.00    +0.006 A 
ATOM      8  C   UNL     1       0.046  -0.242   0.428  0.00  0.00    +0.004 A 
ENDBRANCH   1   6
BRANCH   1   9
ATOM      9  C   UNL     1       1.371  -4.365   0.291  0.00  0.00    +0.242 C 
ATOM     10  O   UNL     1       1.653  -4.849   1.367  0.00  0.00    -0.273 OA
ATOM     11  N   UNL     1       2.332  -4.164  -0.631  0.00  0.00    -0.284 N 
ATOM     12  H   UNL     1       2.120  -3.711  -1.462  0.00  0.00    +0.155 HD
BRANCH  11  13
ATOM     13  C   UNL     1       3.637  -4.608  -0.390  0.00  0.00    +0.033 A 
ATOM     14  C   UNL     1       4.719  -3.891  -0.883  0.00  0.00    +0.023 A 
ATOM     15  C   UNL     1       6.005  -4.332  -0.643  0.00  0.00    +0.006 A 
ATOM     16  C   UNL     1       6.217  -5.486   0.088  0.00  0.00    -0.045 A 
ATOM     17  C   UNL     1       5.142  -6.203   0.581  0.00  0.00    +0.006 A 
ATOM     18  C   UNL     1       3.853  -5.764   0.349  0.00  0.00    +0.023 A 
BRANCH  16  19
ATOM     19  C   UNL     1       7.622  -5.965   0.348  0.00  0.00    +0.013 C 
ATOM     20  C   UNL     1       7.872  -6.017   1.856  0.00  0.00    +0.012 C 
ATOM     21  C   UNL     1       7.804  -7.362  -0.248  0.00  0.00    +0.012 C 
ENDBRANCH  16  19
ENDBRANCH  11  13
ENDBRANCH   1   9
BRANCH   1  22
ATOM     22  N   UNL     1      -0.902  -4.306   1.140  0.00  0.00    -0.289 N 
ATOM     23  C   UNL     1      -0.581  -3.750   2.457  0.00  0.00    +0.133 C 
ATOM     24  C   UNL     1      -1.975  -5.107   0.990  0.00  0.00    +0.220 C 
ATOM     25  O   UNL     1      -2.241  -5.567  -0.100  0.00  0.00    -0.275 OA
BRANCH  24  26
ATOM     26  C   UNL     1      -2.845  -5.432   2.177  0.00  0.00    +0.129 C 
BRANCH  26  27
ATOM     27  C   UNL     1      -3.968  -6.339   1.744  0.00  0.00    -0.033 C 
ATOM     28  C   UNL     1      -3.997  -7.689   1.817  0.00  0.00    -0.001 A 
ATOM     29  C   UNL     1      -3.028  -8.679   2.302  0.00  0.00    +0.010 A 
ATOM     30  C   UNL     1      -3.348  -9.992   2.245  0.00  0.00    +0.001 A 
ATOM     31  C   UNL     1      -4.578 -10.430   1.735  0.00  0.00    +0.002 A 
ATOM     32  C   UNL     1      -5.519  -9.580   1.271  0.00  0.00    +0.026 A 
ATOM     33  C   UNL     1      -5.289  -8.177   1.284  0.00  0.00    +0.043 A 
ATOM     34  N   UNL     1      -6.030  -7.167   0.896  0.00  0.00    -0.380 N 
ATOM     35  C   UNL     1      -5.293  -5.923   1.146  0.00  0.00    +0.145 C 
ATOM     36  H   UNL     1      -6.918  -7.232   0.512  0.00  0.00    +0.160 HD
ENDBRANCH  26  27
ENDBRANCH  24  26
ENDBRANCH   1  22
TORSDOF 7
