REMARK  Name = ZINC13988897
REMARK  4 active torsions:
REMARK  status: ('A' for Active; 'I' for Inactive)
REMARK    1  A    between atoms: N_17  and  N_18
REMARK    2  A    between atoms: C_19  and  C_21
REMARK    3  A    between atoms: C_24  and  N_27
REMARK    4  A    between atoms: C_28  and  C_30
REMARK                            x       y       z     vdW  Elec       q    Type
REMARK                         _______ _______ _______ _____ _____    ______ ____
ROOT
ATOM      1  N   UNL     1       1.751  -5.010   0.171  0.00  0.00    -0.229 N 
ATOM      2  C   UNL     1       0.539  -4.430   0.074  0.00  0.00    +0.260 C 
ATOM      3  O   UNL     1      -0.460  -5.118  -0.008  0.00  0.00    -0.269 OA
ATOM      4  H   UNL     1       2.553  -4.464   0.162  0.00  0.00    +0.173 HD
ENDROOT
BRANCH   1  21
ATOM      5  C   UNL     1       6.580  -8.874   1.789  0.00  0.00    +0.002 A 
ATOM      6  C   UNL     1       6.924 -10.041   1.132  0.00  0.00    +0.001 A 
ATOM      7  C   UNL     1       6.023 -10.643   0.270  0.00  0.00    +0.017 A 
ATOM      8  C   UNL     1       4.780 -10.072   0.070  0.00  0.00    +0.035 A 
ATOM      9  C   UNL     1       4.427  -8.894   0.732  0.00  0.00    +0.057 A 
ATOM     10  C   UNL     1       5.337  -8.300   1.593  0.00  0.00    +0.025 A 
ATOM     11  N   UNL     1       3.166  -8.318   0.529  0.00  0.00    -0.221 N 
ATOM     12  C   UNL     1       2.013  -9.100   0.379  0.00  0.00    +0.057 A 
ATOM     13  C   UNL     1       0.808  -8.686   0.919  0.00  0.00    +0.025 A 
ATOM     14  C   UNL     1      -0.325  -9.464   0.763  0.00  0.00    +0.002 A 
ATOM     15  C   UNL     1      -0.266 -10.656   0.065  0.00  0.00    +0.001 A 
ATOM     16  C   UNL     1       0.932 -11.079  -0.485  0.00  0.00    +0.017 A 
ATOM     17  C   UNL     1       2.068 -10.305  -0.332  0.00  0.00    +0.035 A 
ATOM     18  S   UNL     1       3.610 -10.817  -1.023  0.00  0.00    -0.086 S 
ATOM     19  C   UNL     1       3.058  -6.976   0.481  0.00  0.00    +0.327 C 
ATOM     20  O   UNL     1       4.047  -6.281   0.618  0.00  0.00    -0.250 OA
ATOM     21  N   UNL     1       1.854  -6.403   0.283  0.00  0.00    -0.217 N 
ATOM     22  H   UNL     1       1.059  -6.955   0.219  0.00  0.00    +0.174 HD
ENDBRANCH   1  21
BRANCH   2  23
ATOM     23  C   UNL     1       0.423  -2.958   0.067  0.00  0.00    +0.038 A 
ATOM     24  C   UNL     1      -0.837  -2.354   0.073  0.00  0.00    +0.015 A 
ATOM     25  C   UNL     1      -0.941  -0.982   0.067  0.00  0.00    +0.024 A 
ATOM     26  C   UNL     1       0.207  -0.196   0.055  0.00  0.00    +0.033 A 
ATOM     27  C   UNL     1       1.463  -0.793   0.043  0.00  0.00    +0.024 A 
ATOM     28  C   UNL     1       1.574  -2.166   0.054  0.00  0.00    +0.015 A 
BRANCH  26  29
ATOM     29  N   UNL     1       0.098   1.194   0.048  0.00  0.00    -0.285 N 
ATOM     30  C   UNL     1       1.002   1.944   0.710  0.00  0.00    +0.220 C 
ATOM     31  O   UNL     1       1.955   1.416   1.241  0.00  0.00    -0.275 OA
ATOM     32  H   UNL     1      -0.626   1.622  -0.436  0.00  0.00    +0.155 HD
BRANCH  30  33
ATOM     33  C   UNL     1       0.827   3.439   0.790  0.00  0.00    +0.075 C 
ATOM     34  C   UNL     1       0.821   4.028  -0.622  0.00  0.00    +0.013 C 
ATOM     35  C   UNL     1       0.643   5.546  -0.540  0.00  0.00    +0.001 C 
ATOM     36  C   UNL     1       1.797   6.152   0.260  0.00  0.00    +0.000 C 
ATOM     37  C   UNL     1       1.803   5.563   1.672  0.00  0.00    +0.001 C 
ATOM     38  C   UNL     1       1.981   4.045   1.591  0.00  0.00    +0.013 C 
ENDBRANCH  30  33
ENDBRANCH  26  29
ENDBRANCH   2  23
TORSDOF 4
