REMARK  Name = ZINC39665625
REMARK  9 active torsions:
REMARK  status: ('A' for Active; 'I' for Inactive)
REMARK    1  A    between atoms: C_1  and  C_2
REMARK    2  A    between atoms: C_2  and  C_4
REMARK    3  A    between atoms: C_2  and  O_29
REMARK    4  A    between atoms: C_4  and  N_5
REMARK    5  A    between atoms: C_6  and  C_8
REMARK    6  A    between atoms: C_19  and  C_21
REMARK    7  A    between atoms: O_29  and  C_30
REMARK    8  A    between atoms: C_33  and  O_36
REMARK    9  A    between atoms: O_36  and  C_37
REMARK                            x       y       z     vdW  Elec       q    Type
REMARK                         _______ _______ _______ _____ _____    ______ ____
ROOT
ATOM      1  C   UNL     1       0.989  -4.174  -2.551  0.00  0.00    +0.100 C 
ATOM      2  C   UNL     1      -0.455  -4.623  -2.869  0.00  0.00    +0.121 C 
ATOM      3  N   UNL     1      -0.477  -4.801  -4.340  0.00  0.00    -0.296 N 
ATOM      4  C   UNL     1       0.835  -5.415  -4.657  0.00  0.00    +0.115 C 
ATOM      5  C   UNL     1       1.833  -4.698  -3.726  0.00  0.00    -0.004 C 
ATOM      6  C   UNL     1       2.885  -5.682  -3.223  0.00  0.00    -0.010 C 
ATOM      7  C   UNL     1       3.749  -6.144  -4.399  0.00  0.00    -0.082 C 
ATOM      8  N   UNL     1       4.394  -4.982  -5.021  0.00  0.00    +0.379 N 
ATOM      9  C   UNL     1       3.377  -4.087  -5.585  0.00  0.00    -0.082 C 
ATOM     10  C   UNL     1       2.497  -3.537  -4.459  0.00  0.00    -0.010 C 
ATOM     11  C   UNL     1      -1.467  -4.478  -5.196  0.00  0.00    +0.247 C 
ATOM     12  O   UNL     1      -2.445  -3.879  -4.795  0.00  0.00    -0.270 OA
ATOM     13  H   UNL     1       4.931  -4.485  -4.326  0.00  0.00    -0.086 HD
ATOM     14  H   UNL     1       5.010  -5.295  -5.757  0.00  0.00    -0.086 HD
ENDROOT
BRANCH  11  15
ATOM     15  C   UNL     1      -1.362  -4.853  -6.622  0.00  0.00    +0.040 A 
ATOM     16  C   UNL     1      -0.567  -5.934  -7.006  0.00  0.00    +0.033 A 
ATOM     17  C   UNL     1      -0.473  -6.279  -8.340  0.00  0.00    +0.043 A 
ATOM     18  C   UNL     1      -1.165  -5.554  -9.296  0.00  0.00    +0.040 A 
ATOM     19  C   UNL     1      -1.954  -4.481  -8.921  0.00  0.00    +0.043 A 
ATOM     20  C   UNL     1      -2.061  -4.130  -7.590  0.00  0.00    +0.033 A 
ATOM     21 CL   UNL     1      -2.817  -3.578 -10.127  0.00  0.00    -0.083 Cl
ATOM     22 CL   UNL     1       0.515  -7.623  -8.819  0.00  0.00    -0.083 Cl
ENDBRANCH  11  15
BRANCH   1  24
ATOM     23  N   UNL     1       2.086  -2.079  -1.826  0.00  0.00    -0.312 N 
ATOM     24  C   UNL     1       1.067  -2.671  -2.480  0.00  0.00    +0.218 C 
ATOM     25  O   UNL     1       0.212  -1.993  -3.010  0.00  0.00    -0.275 OA
ATOM     26  H   UNL     1       2.769  -2.621  -1.401  0.00  0.00    +0.149 HD
BRANCH  23  27
ATOM     27  C   UNL     1       2.161  -0.618  -1.756  0.00  0.00    +0.148 C 
BRANCH  27  29
ATOM     28  C   UNL     1       3.417   1.311  -0.783  0.00  0.00    +0.053 C 
ATOM     29  C   UNL     1       3.404  -0.209  -0.963  0.00  0.00    +0.187 C 
BRANCH  29  30
ATOM     30  O   UNL     1       4.577  -0.614  -1.672  0.00  0.00    -0.488 OA
BRANCH  30  31
ATOM     31  C   UNL     1       5.705  -0.812  -0.939  0.00  0.00    +0.121 A 
ATOM     32  C   UNL     1       6.903  -1.103  -1.574  0.00  0.00    +0.049 A 
ATOM     33  C   UNL     1       8.049  -1.303  -0.829  0.00  0.00    +0.049 A 
ATOM     34  C   UNL     1       8.001  -1.213   0.554  0.00  0.00    +0.120 A 
ATOM     35  C   UNL     1       6.803  -0.920   1.190  0.00  0.00    +0.049 A 
ATOM     36  C   UNL     1       5.658  -0.716   0.444  0.00  0.00    +0.049 A 
BRANCH  34  37
ATOM     37  O   UNL     1       9.129  -1.411   1.288  0.00  0.00    -0.495 OA
ATOM     38  C   UNL     1       9.007  -1.302   2.708  0.00  0.00    +0.277 C 
ENDBRANCH  34  37
ENDBRANCH  30  31
ENDBRANCH  29  30
ENDBRANCH  27  29
ENDBRANCH  23  27
ENDBRANCH   1  24
TORSDOF 7
