REMARK  Name = ZINC35799608
REMARK  7 active torsions:
REMARK  status: ('A' for Active; 'I' for Inactive)
REMARK    1  A    between atoms: C_1  and  C_2
REMARK    2  A    between atoms: C_6  and  N_9
REMARK    3  A    between atoms: C_7  and  C_8
REMARK    4  A    between atoms: C_13  and  C_17
REMARK    5  A    between atoms: N_20  and  C_21
REMARK    6  A    between atoms: C_21  and  C_22
REMARK    7  A    between atoms: C_21  and  C_23
REMARK                            x       y       z     vdW  Elec       q    Type
REMARK                         _______ _______ _______ _____ _____    ______ ____
ROOT
ATOM      1  N   UNL     1       0.047  -2.797   2.393  0.00  0.00    -0.268 N 
ATOM      2  C   UNL     1      -1.234  -3.167   2.980  0.00  0.00    +0.133 C 
ATOM      3  C   UNL     1      -1.070  -4.347   3.940  0.00  0.00    +0.129 C 
ATOM      4  N   UNL     1       0.086  -4.073   4.812  0.00  0.00    -0.273 N 
ATOM      5  C   UNL     1       1.397  -3.922   4.165  0.00  0.00    +0.161 C 
ATOM      6  C   UNL     1       1.236  -3.091   2.921  0.00  0.00    +0.240 C 
ATOM      7  O   UNL     1       2.232  -2.664   2.377  0.00  0.00    -0.273 OA
ATOM      8  C   UNL     1       1.945  -5.300   3.789  0.00  0.00    +0.038 C 
ATOM      9  C   UNL     1      -0.054  -3.964   6.148  0.00  0.00    +0.303 C 
ATOM     10  O   UNL     1      -1.162  -3.999   6.648  0.00  0.00    -0.253 OA
ATOM     11  N   UNL     1       1.034  -3.818   6.929  0.00  0.00    -0.297 N 
ATOM     12  H   UNL     1       1.911  -3.718   6.526  0.00  0.00    +0.150 HD
ENDROOT
BRANCH   1  18
ATOM     13  C   UNL     1      -0.040   1.502   0.010  0.00  0.00    +0.044 C 
ATOM     14  C   UNL     1      -0.014  -0.004   0.002  0.00  0.00    -0.046 A 
ATOM     15  C   UNL     1      -0.008  -0.689  -1.200  0.00  0.00    +0.004 A 
ATOM     16  C   UNL     1       0.016  -2.071  -1.212  0.00  0.00    +0.002 A 
ATOM     17  C   UNL     1       0.034  -2.773  -0.022  0.00  0.00    +0.024 A 
ATOM     18  C   UNL     1       0.029  -2.089   1.186  0.00  0.00    +0.040 A 
ATOM     19  C   UNL     1       0.010  -0.700   1.194  0.00  0.00    -0.026 A 
ATOM     20  C   UNL     1       0.009   0.046   2.503  0.00  0.00    +0.046 C 
ENDBRANCH   1  18
BRANCH  11  21
ATOM     21  C   UNL     1       0.893  -3.810   8.387  0.00  0.00    +0.068 C 
ATOM     22  C   UNL     1       0.894  -5.248   8.908  0.00  0.00    +0.027 C 
ATOM     23  C   UNL     1       2.062  -3.042   9.009  0.00  0.00    +0.027 C 
ENDBRANCH  11  21
TORSDOF 2
