REMARK  Name = ZINC24956321
REMARK  11 active torsions:
REMARK  status: ('A' for Active; 'I' for Inactive)
REMARK    1  A    between atoms: C_1  and  C_2
REMARK    2  A    between atoms: C_2  and  C_3
REMARK    3  A    between atoms: C_3  and  C_4
REMARK    4  A    between atoms: C_4  and  N_5
REMARK    5  A    between atoms: C_6  and  N_32
REMARK    6  A    between atoms: C_7  and  N_14
REMARK    7  A    between atoms: N_14  and  C_15
REMARK    8  A    between atoms: N_14  and  C_17
REMARK    9  A    between atoms: C_15  and  C_16
REMARK   10  A    between atoms: C_17  and  C_18
REMARK   11  A    between atoms: N_20  and  C_21
REMARK                            x       y       z     vdW  Elec       q    Type
REMARK                         _______ _______ _______ _____ _____    ______ ____
ROOT
ATOM      1  N   UNL     1      -1.399  -4.943   2.341  0.00  0.00    -0.315 N 
ENDROOT
BRANCH   1   4
ATOM      2  N   UNL     1      -1.545  -1.846   0.375  0.00  0.00    -0.280 N 
ATOM      3  C   UNL     1      -1.560  -2.701   1.454  0.00  0.00    +0.127 A 
ATOM      4  C   UNL     1      -1.387  -4.043   1.250  0.00  0.00    +0.134 A 
ATOM      5  C   UNL     1      -1.197  -4.514  -0.062  0.00  0.00    +0.277 A 
ATOM      6  O   UNL     1      -1.040  -5.705  -0.269  0.00  0.00    -0.266 OA
ATOM      7  N   UNL     1      -1.189  -3.640  -1.088  0.00  0.00    -0.273 N 
ATOM      8  H   UNL     1      -1.037  -4.001  -2.116  0.00  0.00    +0.173 HD
ATOM      9  C   UNL     1      -1.367  -2.325  -0.870  0.00  0.00    +0.331 A 
ATOM     10  O   UNL     1      -1.361  -1.556  -1.811  0.00  0.00    -0.246 OA
BRANCH   3  11
ATOM     11  N   UNL     1      -1.748  -2.211   2.726  0.00  0.00    -0.343 N 
ATOM     12  H   UNL     1      -1.759  -2.898   3.585  0.00  0.00    +0.144 HD
ATOM     13  H   UNL     1      -1.886  -1.131   2.885  0.00  0.00    +0.144 HD
ENDBRANCH   3  11
BRANCH   2  14
ATOM     14  C   UNL     1      -1.730  -0.408   0.583  0.00  0.00    +0.128 C 
BRANCH  14  15
ATOM     15  C   UNL     1      -0.369   0.255   0.804  0.00  0.00    +0.021 C 
BRANCH  15  17
ATOM     16  C   UNL     1       0.799   2.420   1.242  0.00  0.00    +0.004 C 
ATOM     17  C   UNL     1      -0.562   1.757   1.021  0.00  0.00    -0.002 C 
ENDBRANCH  15  17
ENDBRANCH  14  15
ENDBRANCH   2  14
ENDBRANCH   1   4
BRANCH   1  18
ATOM     18  C   UNL     1      -2.473  -5.934   2.193  0.00  0.00    +0.102 C 
ATOM     19  C   UNL     1      -3.817  -5.284   2.529  0.00  0.00    +0.024 C 
ENDBRANCH   1  18
BRANCH   1  20
ATOM     20  C   UNL     1      -0.094  -5.599   2.496  0.00  0.00    +0.201 C 
BRANCH  20  21
ATOM     21  C   UNL     1      -0.004  -6.222   3.865  0.00  0.00    +0.235 C 
ATOM     22  O   UNL     1      -0.889  -6.037   4.674  0.00  0.00    -0.274 OA
ATOM     23  N   UNL     1       1.058  -6.984   4.191  0.00  0.00    -0.283 N 
ATOM     24  H   UNL     1       1.900  -7.082   3.490  0.00  0.00    +0.155 HD
BRANCH  23  25
ATOM     25  C   UNL     1       1.091  -7.650   5.423  0.00  0.00    +0.056 A 
ATOM     26  C   UNL     1       0.403  -7.132   6.511  0.00  0.00    +0.074 A 
ATOM     27  C   UNL     1       0.435  -7.792   7.730  0.00  0.00    +0.164 A 
ATOM     28  C   UNL     1       1.157  -8.973   7.861  0.00  0.00    +0.164 A 
ATOM     29  C   UNL     1       1.845  -9.488   6.772  0.00  0.00    +0.071 A 
ATOM     30  C   UNL     1       1.808  -8.832   5.555  0.00  0.00    +0.066 A 
ATOM     31 CL   UNL     1       2.664  -9.485   4.193  0.00  0.00    -0.082 Cl
ATOM     32  O   UNL     1       1.196  -9.637   9.049  0.00  0.00    -0.485 OA
ATOM     33  C   UNL     1       0.806  -8.899  10.212  0.00  0.00    +0.270 C 
ATOM     34  C   UNL     1      -0.493  -8.148   9.891  0.00  0.00    +0.270 C 
ATOM     35  O   UNL     1      -0.242  -7.269   8.789  0.00  0.00    -0.485 OA
ENDBRANCH  23  25
ENDBRANCH  20  21
ENDBRANCH   1  20
TORSDOF 9
