REMARK  Name = ZINC21123004
REMARK  8 active torsions:
REMARK  status: ('A' for Active; 'I' for Inactive)
REMARK    1  A    between atoms: C_1  and  C_2
REMARK    2  A    between atoms: C_2  and  C_4
REMARK    3  A    between atoms: C_2  and  S_17
REMARK    4  A    between atoms: N_6  and  C_7
REMARK    5  A    between atoms: C_10  and  S_13
REMARK    6  A    between atoms: S_13  and  N_16
REMARK    7  A    between atoms: S_17  and  C_18
REMARK    8  A    between atoms: C_20  and  C_27
REMARK                            x       y       z     vdW  Elec       q    Type
REMARK                         _______ _______ _______ _____ _____    ______ ____
ROOT
ATOM      1  C   UNL     1       0.041  -0.372  -1.158  0.00  0.00    +0.029 C 
ATOM      2  C   UNL     1       0.241   0.093   0.286  0.00  0.00    +0.136 C 
ENDROOT
BRANCH   2   3
ATOM      3  C   UNL     1       0.286   1.599   0.327  0.00  0.00    +0.230 C 
ATOM      4  O   UNL     1       1.353   2.175   0.299  0.00  0.00    -0.274 OA
ATOM      5  N   UNL     1      -0.860   2.306   0.389  0.00  0.00    -0.285 N 
ATOM      6  H   UNL     1      -1.829   1.789   0.333  0.00  0.00    +0.155 HD
BRANCH   5   7
ATOM      7  C   UNL     1      -0.816   3.698   0.525  0.00  0.00    +0.034 A 
ATOM      8  C   UNL     1      -1.784   4.354   1.274  0.00  0.00    +0.025 A 
ATOM      9  C   UNL     1      -1.735   5.728   1.413  0.00  0.00    +0.030 A 
ATOM     10  C   UNL     1      -0.731   6.450   0.795  0.00  0.00    +0.105 A 
ATOM     11  C   UNL     1       0.231   5.801   0.043  0.00  0.00    +0.030 A 
ATOM     12  C   UNL     1       0.191   4.427  -0.093  0.00  0.00    +0.025 A 
BRANCH  10  13
ATOM     13  S   UNL     1      -0.676   8.203   0.967  0.00  0.00    +0.056 S 
ATOM     14  O   UNL     1      -1.370   8.515   2.167  0.00  0.00    -0.153 OA
ATOM     15  O   UNL     1       0.673   8.591   0.745  0.00  0.00    -0.153 OA
BRANCH  13  16
ATOM     16  N   UNL     1      -1.564   8.845  -0.275  0.00  0.00    -0.204 NA
ATOM     17  H   UNL     1      -1.554   9.943  -0.203  0.00  0.00    +0.144 HD
ATOM     18  H   UNL     1      -2.600   8.482  -0.210  0.00  0.00    +0.144 HD
ENDBRANCH  13  16
ENDBRANCH  10  13
ENDBRANCH   5   7
ENDBRANCH   2   3
BRANCH   2  19
ATOM     19  S   UNL     1       1.798  -0.574   0.924  0.00  0.00    -0.093 S 
BRANCH  19  20
ATOM     20  C   UNL     1       1.423  -2.296   0.906  0.00  0.00    +0.110 A 
ATOM     21  C   UNL     1       2.388  -3.247   1.335  0.00  0.00    +0.047 A 
ATOM     22  C   UNL     1       3.741  -3.038   1.839  0.00  0.00    +0.001 A 
ATOM     23  C   UNL     1       4.477  -4.116   2.196  0.00  0.00    +0.056 A 
ATOM     24  S   UNL     1       3.385  -5.489   1.881  0.00  0.00    -0.076 S 
ATOM     25  C   UNL     1       1.976  -4.594   1.282  0.00  0.00    +0.113 A 
ATOM     26  N   UNL     1       0.774  -4.929   0.850  0.00  0.00    -0.228 NA
ATOM     27  C   UNL     1      -0.078  -4.001   0.460  0.00  0.00    +0.223 A 
ATOM     28  N   UNL     1       0.240  -2.719   0.488  0.00  0.00    -0.228 NA
BRANCH  22  29
ATOM     29  C   UNL     1       4.301  -1.670   1.953  0.00  0.00    -0.016 A 
ATOM     30  C   UNL     1       5.472  -1.335   1.274  0.00  0.00    +0.011 A 
ATOM     31  C   UNL     1       5.987  -0.059   1.379  0.00  0.00    +0.039 A 
ATOM     32  C   UNL     1       5.348   0.885   2.166  0.00  0.00    +0.123 A 
ATOM     33  C   UNL     1       4.187   0.556   2.847  0.00  0.00    +0.039 A 
ATOM     34  C   UNL     1       3.662  -0.716   2.744  0.00  0.00    +0.011 A 
ATOM     35  F   UNL     1       5.858   2.132   2.270  0.00  0.00    -0.205 F 
ENDBRANCH  22  29
ENDBRANCH  19  20
ENDBRANCH   2  19
TORSDOF 7
