REMARK  Name = ZINC43085759
REMARK  13 active torsions:
REMARK  status: ('A' for Active; 'I' for Inactive)
REMARK    1  A    between atoms: C_1  and  C_2
REMARK    2  A    between atoms: N_8  and  C_9
REMARK    3  A    between atoms: C_9  and  C_11
REMARK    4  A    between atoms: C_9  and  C_12
REMARK    5  A    between atoms: C_12  and  N_13
REMARK    6  A    between atoms: C_14  and  C_16
REMARK    7  A    between atoms: C_16  and  C_18
REMARK    8  A    between atoms: C_16  and  N_19
REMARK    9  A    between atoms: C_20  and  O_22
REMARK   10  A    between atoms: O_22  and  C_23
REMARK   11  A    between atoms: C_23  and  C_24
REMARK   12  A    between atoms: C_23  and  C_25
REMARK   13  A    between atoms: C_23  and  C_26
REMARK                            x       y       z     vdW  Elec       q    Type
REMARK                         _______ _______ _______ _____ _____    ______ ____
ROOT
ATOM      1  N   UNL     1       2.684  -2.167   2.422  0.00  0.00    -0.315 N 
ATOM      2  C   UNL     1       3.115  -2.985   3.403  0.00  0.00    +0.233 C 
ATOM      3  O   UNL     1       3.675  -2.524   4.375  0.00  0.00    -0.274 OA
ATOM      4  H   UNL     1       2.236  -2.535   1.645  0.00  0.00    +0.149 HD
ENDROOT
BRANCH   2   5
ATOM      5  C   UNL     1       2.901  -4.472   3.292  0.00  0.00    +0.159 C 
ATOM      6  C   UNL     1       3.603  -4.997   2.038  0.00  0.00    +0.038 C 
BRANCH   5   7
ATOM      7  N   UNL     1       3.454  -5.135   4.475  0.00  0.00    -0.270 N 
ATOM      8  C   UNL     1       2.973  -6.333   4.863  0.00  0.00    +0.401 C 
ATOM      9  O   UNL     1       2.080  -6.863   4.232  0.00  0.00    -0.226 OA
ATOM     10  H   UNL     1       4.167  -4.712   4.979  0.00  0.00    +0.153 HD
BRANCH   8  11
ATOM     11  O   UNL     1       3.482  -6.942   5.951  0.00  0.00    -0.445 OA
BRANCH  11  12
ATOM     12  C   UNL     1       2.925  -8.210   6.305  0.00  0.00    +0.107 C 
ATOM     13  C   UNL     1       3.123  -9.194   5.151  0.00  0.00    +0.055 C 
ATOM     14  C   UNL     1       3.624  -8.743   7.557  0.00  0.00    +0.055 C 
ATOM     15  C   UNL     1       1.429  -8.049   6.586  0.00  0.00    +0.055 C 
ENDBRANCH  11  12
ENDBRANCH   8  11
ENDBRANCH   5   7
ENDBRANCH   2   5
BRANCH   1  16
ATOM     16  C   UNL     1       2.893  -0.721   2.530  0.00  0.00    +0.089 C 
BRANCH  16  17
ATOM     17  C   UNL     1       2.158  -0.013   1.391  0.00  0.00    -0.054 C 
ATOM     18  C   UNL     1       2.533   1.471   1.385  0.00  0.00    -0.012 C 
BRANCH  17  25
ATOM     19  C   UNL     1       0.766  -2.018   0.002  0.00  0.00    -0.013 C 
ATOM     20  C   UNL     1       0.321  -1.553   1.390  0.00  0.00    -0.071 C 
ATOM     21  C   UNL     1      -1.198  -1.688   1.509  0.00  0.00    -0.016 C 
ATOM     22  C   UNL     1      -1.639  -1.222   2.900  0.00  0.00    -0.003 C 
ATOM     23  C   UNL     1      -1.165   0.217   3.120  0.00  0.00    -0.019 C 
ATOM     24  C   UNL     1       0.353   0.281   2.941  0.00  0.00    -0.078 C 
ATOM     25  N   UNL     1       0.708  -0.150   1.583  0.00  0.00    +0.384 N 
ATOM     26  H   UNL     1       0.225   0.426   0.911  0.00  0.00    -0.081 HD
ENDBRANCH  17  25
ENDBRANCH  16  17
ENDBRANCH   1  16
TORSDOF 7
