REMARK  Name = ZINC39689349
REMARK  8 active torsions:
REMARK  status: ('A' for Active; 'I' for Inactive)
REMARK    1  A    between atoms: C_1  and  C_2
REMARK    2  A    between atoms: C_6  and  C_8
REMARK    3  A    between atoms: C_8  and  C_9
REMARK    4  A    between atoms: C_9  and  N_10
REMARK    5  A    between atoms: C_11  and  C_13
REMARK    6  A    between atoms: C_24  and  C_26
REMARK    7  A    between atoms: C_29  and  O_32
REMARK    8  A    between atoms: O_32  and  C_33
REMARK                            x       y       z     vdW  Elec       q    Type
REMARK                         _______ _______ _______ _____ _____    ______ ____
ROOT
ATOM      1  C   UNL     1       2.458  -5.216   6.621  0.00  0.00    +0.100 C 
ATOM      2  C   UNL     1       1.763  -6.503   6.120  0.00  0.00    +0.121 C 
ATOM      3  N   UNL     1       2.876  -7.422   5.783  0.00  0.00    -0.296 N 
ATOM      4  C   UNL     1       3.876  -7.199   6.854  0.00  0.00    +0.115 C 
ATOM      5  C   UNL     1       3.843  -5.678   7.104  0.00  0.00    -0.004 C 
ATOM      6  C   UNL     1       4.941  -4.987   6.300  0.00  0.00    -0.010 C 
ATOM      7  C   UNL     1       6.308  -5.419   6.838  0.00  0.00    -0.082 C 
ATOM      8  N   UNL     1       6.414  -5.059   8.257  0.00  0.00    +0.379 N 
ATOM      9  C   UNL     1       5.414  -5.798   9.037  0.00  0.00    -0.082 C 
ATOM     10  C   UNL     1       4.008  -5.383   8.592  0.00  0.00    -0.010 C 
ATOM     11  C   UNL     1       2.959  -8.270   4.739  0.00  0.00    +0.247 C 
ATOM     12  O   UNL     1       2.109  -8.249   3.870  0.00  0.00    -0.270 OA
ATOM     13  H   UNL     1       7.337  -5.289   8.593  0.00  0.00    -0.086 HD
ATOM     14  H   UNL     1       6.257  -4.069   8.364  0.00  0.00    -0.086 HD
ENDROOT
BRANCH  11  15
ATOM     15  C   UNL     1       4.083  -9.222   4.650  0.00  0.00    +0.037 A 
ATOM     16  C   UNL     1       4.800  -9.569   5.798  0.00  0.00    +0.016 A 
ATOM     17  C   UNL     1       5.848 -10.459   5.710  0.00  0.00    +0.047 A 
ATOM     18  C   UNL     1       6.192 -11.011   4.482  0.00  0.00    +0.130 A 
ATOM     19  C   UNL     1       5.481 -10.669   3.338  0.00  0.00    +0.047 A 
ATOM     20  C   UNL     1       4.429  -9.784   3.418  0.00  0.00    +0.016 A 
BRANCH  18  21
ATOM     21  O   UNL     1       7.226 -11.887   4.400  0.00  0.00    -0.406 OA
BRANCH  21  22
ATOM     22  C   UNL     1       7.526 -12.416   3.107  0.00  0.00    +0.575 C 
ATOM     23  F   UNL     1       7.851 -11.369   2.238  0.00  0.00    -0.133 F 
ATOM     24  F   UNL     1       8.610 -13.295   3.204  0.00  0.00    -0.133 F 
ATOM     25  F   UNL     1       6.412 -13.103   2.614  0.00  0.00    -0.133 F 
ENDBRANCH  21  22
ENDBRANCH  18  21
ENDBRANCH  11  15
BRANCH   1  27
ATOM     26  N   UNL     1       2.720  -2.910   5.766  0.00  0.00    -0.315 N 
ATOM     27  C   UNL     1       2.599  -4.224   5.495  0.00  0.00    +0.218 C 
ATOM     28  O   UNL     1       2.604  -4.609   4.345  0.00  0.00    -0.275 OA
ATOM     29  H   UNL     1       2.716  -2.602   6.686  0.00  0.00    +0.149 HD
BRANCH  26  30
ATOM     30  C   UNL     1       2.857  -1.946   4.671  0.00  0.00    +0.109 C 
BRANCH  30  31
ATOM     31  C   UNL     1       2.975  -0.533   5.247  0.00  0.00    +0.054 C 
BRANCH  31  37
ATOM     32  C   UNL     1       5.870   2.073   2.105  0.00  0.00    +0.044 C 
ATOM     33  C   UNL     1       4.502   1.706   2.619  0.00  0.00    -0.050 A 
ATOM     34  C   UNL     1       3.376   2.279   2.057  0.00  0.00    +0.003 A 
ATOM     35  C   UNL     1       2.121   1.942   2.527  0.00  0.00    +0.001 A 
ATOM     36  C   UNL     1       1.991   1.031   3.560  0.00  0.00    +0.004 A 
ATOM     37  C   UNL     1       3.117   0.458   4.121  0.00  0.00    -0.046 A 
ATOM     38  C   UNL     1       4.372   0.792   3.648  0.00  0.00    +0.007 A 
ENDBRANCH  31  37
ENDBRANCH  30  31
ENDBRANCH  26  30
ENDBRANCH   1  27
TORSDOF 7
