REMARK  Name = ZINC39916071
REMARK  5 active torsions:
REMARK  status: ('A' for Active; 'I' for Inactive)
REMARK    1  A    between atoms: C_4  and  C_7
REMARK    2  A    between atoms: C_7  and  C_8
REMARK    3  A    between atoms: C_7  and  S_14
REMARK    4  A    between atoms: S_14  and  C_15
REMARK    5  A    between atoms: C_22  and  C_26
REMARK                            x       y       z     vdW  Elec       q    Type
REMARK                         _______ _______ _______ _____ _____    ______ ____
ROOT
ATOM      1  C   UNL     1       5.237  -2.607  -1.453  0.00  0.00    +0.167 C 
ATOM      2  N   UNL     1       6.206  -2.338  -0.599  0.00  0.00    -0.223 NA
ATOM      3  C   UNL     1       7.318  -3.207  -0.984  0.00  0.00    +0.284 C 
ATOM      4  N   UNL     1       8.643  -2.599  -0.941  0.00  0.00    -0.312 N 
ATOM      5  C   UNL     1       9.619  -3.245  -1.671  0.00  0.00    +0.015 C 
ATOM      6  C   UNL     1       9.292  -4.158  -2.615  0.00  0.00    +0.035 C 
ATOM      7  C   UNL     1       7.842  -4.487  -2.927  0.00  0.00    +0.142 C 
ATOM      8  N   UNL     1       7.008  -3.411  -2.437  0.00  0.00    -0.176 NA
ATOM      9  N   UNL     1       5.654  -3.572  -2.366  0.00  0.00    -0.253 N 
ATOM     10  C   UNL     1      10.284  -4.829  -3.347  0.00  0.00    +0.163 C 
ATOM     11  O   UNL     1       9.958  -5.650  -4.181  0.00  0.00    -0.292 OA
ATOM     12  C   UNL     1      11.744  -4.548  -3.115  0.00  0.00    +0.080 C 
ATOM     13  C   UNL     1      11.902  -3.100  -2.638  0.00  0.00    +0.014 C 
ATOM     14  C   UNL     1      11.058  -2.909  -1.376  0.00  0.00    +0.051 C 
ATOM     15  H   UNL     1       8.826  -1.793  -0.433  0.00  0.00    +0.149 HD
ATOM     16  H   UNL     1       5.106  -4.213  -2.844  0.00  0.00    +0.169 HD
ENDROOT
BRANCH   7  17
ATOM     17  C   UNL     1       7.662  -4.640  -4.416  0.00  0.00    -0.026 C 
ATOM     18  C   UNL     1       7.323  -5.748  -5.073  0.00  0.00    +0.020 C 
ATOM     19  C   UNL     1       7.258  -5.463  -6.507  0.00  0.00    +0.078 C 
ATOM     20  N   UNL     1       7.545  -4.228  -6.749  0.00  0.00    -0.386 N 
ATOM     21  C   UNL     1       7.825  -3.566  -5.468  0.00  0.00    +0.145 C 
ATOM     22  H   UNL     1       7.567  -3.809  -7.623  0.00  0.00    +0.159 HD
ENDBRANCH   7  17
BRANCH   1  23
ATOM     23  S   UNL     1       3.641  -1.859  -1.437  0.00  0.00    -0.077 S 
BRANCH  23  24
ATOM     24  C   UNL     1       3.711  -0.707  -0.038  0.00  0.00    +0.114 C 
BRANCH  24  28
ATOM     25  C   UNL     1       0.100   1.570   0.111  0.00  0.00    +0.000 A 
ATOM     26  C   UNL     1       1.324   2.213   0.130  0.00  0.00    +0.000 A 
ATOM     27  C   UNL     1       2.492   1.476   0.082  0.00  0.00    +0.005 A 
ATOM     28  C   UNL     1       2.437   0.096   0.016  0.00  0.00    -0.030 A 
ATOM     29  C   UNL     1       1.214  -0.546  -0.002  0.00  0.00    +0.005 A 
ATOM     30  C   UNL     1       0.045   0.191   0.044  0.00  0.00    +0.000 A 
ENDBRANCH  24  28
BRANCH  24  31
ATOM     31  C   UNL     1       3.870  -1.483   1.245  0.00  0.00    -0.030 A 
ATOM     32  C   UNL     1       3.012  -2.528   1.531  0.00  0.00    +0.005 A 
ATOM     33  C   UNL     1       3.158  -3.240   2.707  0.00  0.00    +0.000 A 
ATOM     34  C   UNL     1       4.161  -2.906   3.597  0.00  0.00    +0.000 A 
ATOM     35  C   UNL     1       5.020  -1.861   3.310  0.00  0.00    +0.000 A 
ATOM     36  C   UNL     1       4.877  -1.153   2.132  0.00  0.00    +0.005 A 
ENDBRANCH  24  31
ENDBRANCH  23  24
ENDBRANCH   1  23
TORSDOF 5
