REMARK  Name = ZINC12716047
REMARK  10 active torsions:
REMARK  status: ('A' for Active; 'I' for Inactive)
REMARK    1  A    between atoms: C_1  and  C_2
REMARK    2  A    between atoms: C_6  and  N_8
REMARK    3  A    between atoms: N_8  and  C_9
REMARK    4  A    between atoms: C_9  and  C_11
REMARK    5  A    between atoms: C_9  and  C_18
REMARK    6  A    between atoms: N_20  and  C_21
REMARK    7  A    between atoms: C_21  and  C_22
REMARK    8  A    between atoms: C_28  and  C_30
REMARK    9  A    between atoms: C_31  and  N_38
REMARK   10  A    between atoms: C_32  and  C_35
REMARK                            x       y       z     vdW  Elec       q    Type
REMARK                         _______ _______ _______ _____ _____    ______ ____
ROOT
ATOM      1  N   UNL     1      -5.365   1.405   3.458  0.00  0.00    -0.251 N 
ATOM      2  C   UNL     1      -6.022   2.495   3.015  0.00  0.00    +0.262 C 
ATOM      3  O   UNL     1      -5.599   3.113   2.055  0.00  0.00    -0.269 OA
ENDROOT
BRANCH   1   9
ATOM      4  C   UNL     1      -7.325  -2.582   5.562  0.00  0.00    +0.044 C 
ATOM      5  C   UNL     1      -6.758  -1.189   5.659  0.00  0.00    -0.049 A 
ATOM      6  C   UNL     1      -6.671  -0.563   6.889  0.00  0.00    +0.003 A 
ATOM      7  C   UNL     1      -6.151   0.715   6.982  0.00  0.00    +0.002 A 
ATOM      8  C   UNL     1      -5.712   1.368   5.847  0.00  0.00    +0.023 A 
ATOM      9  C   UNL     1      -5.803   0.744   4.610  0.00  0.00    +0.038 A 
ATOM     10  C   UNL     1      -6.326  -0.539   4.520  0.00  0.00    +0.027 A 
ENDBRANCH   1   9
BRANCH   2  11
ATOM     11  C   UNL     1      -7.245   2.936   3.687  0.00  0.00    +0.116 A 
ATOM     12  C   UNL     1      -8.004   4.090   3.478  0.00  0.00    +0.076 A 
ATOM     13  C   UNL     1      -9.112   4.160   4.322  0.00  0.00    +0.155 A 
ATOM     14  N   UNL     1      -9.327   3.191   5.184  0.00  0.00    -0.203 NA
ATOM     15  S   UNL     1      -8.168   2.142   4.986  0.00  0.00    +0.019 S 
BRANCH  13  16
ATOM     16  C   UNL     1     -10.034   5.309   4.246  0.00  0.00    +0.262 C 
ATOM     17  O   UNL     1      -9.829   6.201   3.446  0.00  0.00    -0.269 OA
ATOM     18  N   UNL     1     -11.103   5.370   5.065  0.00  0.00    -0.324 N 
ATOM     19  H   UNL     1     -11.266   4.658   5.703  0.00  0.00    +0.145 HD
ATOM     20  H   UNL     1     -11.709   6.125   5.015  0.00  0.00    +0.145 HD
ENDBRANCH  13  16
BRANCH  12  21
ATOM     21  N   UNL     1      -7.690   5.059   2.534  0.00  0.00    -0.355 N 
ATOM     22  H   UNL     1      -6.904   4.954   1.975  0.00  0.00    +0.142 HD
ATOM     23  H   UNL     1      -8.256   5.840   2.435  0.00  0.00    +0.142 HD
ENDBRANCH  12  21
ENDBRANCH   2  11
BRANCH   1  24
ATOM     24  C   UNL     1      -4.191   0.912   2.733  0.00  0.00    +0.197 C 
BRANCH  24  25
ATOM     25  C   UNL     1      -3.763  -0.412   3.311  0.00  0.00    -0.018 A 
ATOM     26  C   UNL     1      -3.479  -0.517   4.660  0.00  0.00    +0.009 A 
ATOM     27  C   UNL     1      -3.091  -1.732   5.192  0.00  0.00    +0.038 A 
ATOM     28  C   UNL     1      -2.977  -2.842   4.372  0.00  0.00    +0.123 A 
ATOM     29  C   UNL     1      -3.256  -2.734   3.020  0.00  0.00    +0.038 A 
ATOM     30  C   UNL     1      -3.650  -1.519   2.491  0.00  0.00    +0.009 A 
ATOM     31  F   UNL     1      -2.593  -4.029   4.890  0.00  0.00    -0.205 F 
ENDBRANCH  24  25
BRANCH  24  32
ATOM     32  C   UNL     1      -3.066   1.905   2.865  0.00  0.00    +0.239 C 
ATOM     33  O   UNL     1      -3.228   2.925   3.502  0.00  0.00    -0.273 OA
ATOM     34  N   UNL     1      -1.879   1.661   2.275  0.00  0.00    -0.311 N 
ATOM     35  H   UNL     1      -1.749   0.846   1.765  0.00  0.00    +0.149 HD
BRANCH  34  36
ATOM     36  C   UNL     1      -0.784   2.627   2.403  0.00  0.00    +0.135 C 
BRANCH  36  37
ATOM     37  C   UNL     1       0.441   2.112   1.646  0.00  0.00    +0.135 C 
ATOM     38  C   UNL     1       1.635   3.073   1.839  0.00  0.00    +0.035 C 
ATOM     39  C   UNL     1       2.348   3.066   0.468  0.00  0.00    +0.031 C 
ATOM     40  C   UNL     1       1.500   2.102  -0.391  0.00  0.00    +0.160 C 
ATOM     41  O   UNL     1       0.193   2.113   0.223  0.00  0.00    -0.375 OA
ENDBRANCH  36  37
ENDBRANCH  34  36
ENDBRANCH  24  32
ENDBRANCH   1  24
TORSDOF 9
