REMARK  Name = ZINC39966738
REMARK  8 active torsions:
REMARK  status: ('A' for Active; 'I' for Inactive)
REMARK    1  A    between atoms: C_2  and  C_3
REMARK    2  A    between atoms: C_3  and  N_4
REMARK    3  A    between atoms: C_5  and  C_22
REMARK    4  A    between atoms: C_8  and  S_9
REMARK    5  A    between atoms: S_9  and  C_10
REMARK    6  A    between atoms: C_10  and  C_11
REMARK    7  A    between atoms: N_13  and  C_14
REMARK    8  A    between atoms: C_15  and  C_19
REMARK                            x       y       z     vdW  Elec       q    Type
REMARK                         _______ _______ _______ _____ _____    ______ ____
ROOT
ATOM      1  N   UNL     1       1.231  -1.625   1.173  0.00  0.00    -0.298 N 
ATOM      2  C   UNL     1       1.921  -1.456   2.351  0.00  0.00    +0.166 A 
ATOM      3  N   UNL     1       1.876  -2.601   2.992  0.00  0.00    -0.128 NA
ATOM      4  N   UNL     1       1.215  -3.463   2.305  0.00  0.00    -0.122 NA
ATOM      5  C   UNL     1       0.793  -2.921   1.187  0.00  0.00    +0.193 A 
ENDROOT
BRANCH   2   6
ATOM      6  C   UNL     1       2.587  -0.218   2.809  0.00  0.00    +0.030 A 
ATOM      7  C   UNL     1       3.405   0.473   1.964  0.00  0.00    +0.057 A 
ATOM      8  S   UNL     1       3.925   1.838   2.992  0.00  0.00    -0.101 S 
ATOM      9  C   UNL     1       3.021   1.401   4.455  0.00  0.00    -0.006 A 
ATOM     10  C   UNL     1       2.376   0.258   4.119  0.00  0.00    -0.026 A 
ATOM     11  C   UNL     1       1.483  -0.488   5.107  0.00  0.00    +0.036 C 
ATOM     12  C   UNL     1       0.923   0.484   6.139  0.00  0.00    +0.005 C 
ATOM     13  C   UNL     1       1.860   0.596   7.340  0.00  0.00    +0.001 C 
ATOM     14  C   UNL     1       3.207   1.162   6.903  0.00  0.00    +0.005 C 
ATOM     15  C   UNL     1       2.974   2.141   5.753  0.00  0.00    +0.043 C 
ENDBRANCH   2   6
BRANCH   1  16
ATOM     16  C   UNL     1       1.008  -0.625   0.126  0.00  0.00    +0.152 C 
BRANCH  16  18
ATOM     17  C   UNL     1      -0.249   1.435   0.494  0.00  0.00    +0.005 C 
ATOM     18  C   UNL     1      -0.265   0.127   0.413  0.00  0.00    -0.013 C 
ENDBRANCH  16  18
ENDBRANCH   1  16
BRANCH   5  19
ATOM     19  S   UNL     1      -0.159  -3.715  -0.066  0.00  0.00    -0.077 S 
BRANCH  19  20
ATOM     20  C   UNL     1      -0.397  -5.399   0.566  0.00  0.00    +0.173 C 
BRANCH  20  21
ATOM     21  C   UNL     1      -1.207  -6.196  -0.424  0.00  0.00    +0.228 C 
ATOM     22  O   UNL     1      -1.587  -5.679  -1.453  0.00  0.00    -0.275 OA
ATOM     23  N   UNL     1      -1.510  -7.484  -0.164  0.00  0.00    -0.279 N 
ATOM     24  H   UNL     1      -1.206  -7.897   0.659  0.00  0.00    +0.155 HD
BRANCH  23  25
ATOM     25  C   UNL     1      -2.256  -8.217  -1.074  0.00  0.00    +0.084 A 
ATOM     26  C   UNL     1      -2.663  -9.540  -0.974  0.00  0.00    +0.065 A 
ATOM     27  C   UNL     1      -3.438 -10.062  -2.076  0.00  0.00    +0.022 A 
ATOM     28  C   UNL     1      -3.680  -9.203  -3.083  0.00  0.00    +0.048 A 
ATOM     29  S   UNL     1      -2.879  -7.708  -2.547  0.00  0.00    -0.081 S 
BRANCH  26  30
ATOM     30  C   UNL     1      -2.325 -10.364   0.190  0.00  0.00    +0.244 C 
ATOM     31  O   UNL     1      -1.669  -9.892   1.101  0.00  0.00    -0.270 OA
ATOM     32  N   UNL     1      -2.739 -11.645   0.252  0.00  0.00    -0.325 N 
ATOM     33  H   UNL     1      -3.261 -12.022  -0.474  0.00  0.00    +0.145 HD
ATOM     34  H   UNL     1      -2.514 -12.191   1.022  0.00  0.00    +0.145 HD
ENDBRANCH  26  30
ENDBRANCH  23  25
ENDBRANCH  20  21
ENDBRANCH  19  20
ENDBRANCH   5  19
TORSDOF 8
