REMARK  Name = ZINC67186273
REMARK  5 active torsions:
REMARK  status: ('A' for Active; 'I' for Inactive)
REMARK    1  A    between atoms: C_8  and  C_10
REMARK    2  A    between atoms: C_11  and  C_16
REMARK    3  A    between atoms: C_16  and  N_17
REMARK    4  A    between atoms: N_17  and  C_18
REMARK    5  A    between atoms: C_18  and  C_19
REMARK                            x       y       z     vdW  Elec       q    Type
REMARK                         _______ _______ _______ _____ _____    ______ ____
ROOT
ATOM      1  C   UNL     1       5.760  -2.453  -1.539  0.00  0.00    +0.120 C 
ENDROOT
BRANCH   1   3
ATOM      2  C   UNL     1       3.846  -3.384  -0.044  0.00  0.00    +0.132 A 
ATOM      3  C   UNL     1       5.076  -3.518  -0.722  0.00  0.00    +0.014 A 
ATOM      4  C   UNL     1       5.531  -4.771  -0.509  0.00  0.00    +0.110 A 
ATOM      5  N   UNL     1       4.635  -5.415   0.271  0.00  0.00    -0.284 N 
ATOM      6  H   UNL     1       4.706  -6.331   0.583  0.00  0.00    +0.188 HD
ATOM      7  N   UNL     1       3.588  -4.529   0.556  0.00  0.00    -0.170 NA
BRANCH   2  15
ATOM      8  C   UNL     1      -0.021   1.265   0.105  0.00  0.00    +0.001 A 
ATOM      9  C   UNL     1       1.157   1.998   0.091  0.00  0.00    +0.004 A 
ATOM     10  C   UNL     1       2.381   1.363   0.056  0.00  0.00    +0.047 A 
ATOM     11  C   UNL     1       2.440  -0.024   0.034  0.00  0.00    +0.136 A 
ATOM     12  C   UNL     1       1.243  -0.762   0.049  0.00  0.00    +0.021 A 
ATOM     13  C   UNL     1       0.014  -0.101   0.084  0.00  0.00    +0.011 A 
ATOM     14  C   UNL     1       1.646  -2.170   0.020  0.00  0.00    +0.060 A 
ATOM     15  C   UNL     1       2.999  -2.173  -0.009  0.00  0.00    +0.156 A 
ATOM     16  O   UNL     1       3.460  -0.906  -0.000  0.00  0.00    -0.453 OA
ENDBRANCH   2  15
ENDBRANCH   1   3
BRANCH   1  17
ATOM     17  N   UNL     1       6.463  -1.524  -0.643  0.00  0.00    -0.308 NA
ATOM     18  H   UNL     1       5.830  -1.129   0.036  0.00  0.00    +0.123 HD
BRANCH  17  19
ATOM     19  C   UNL     1       7.143  -0.470  -1.406  0.00  0.00    +0.118 C 
BRANCH  19  20
ATOM     20  C   UNL     1       7.851   0.461  -0.455  0.00  0.00    -0.018 A 
ATOM     21  C   UNL     1       7.195   1.573   0.057  0.00  0.00    +0.009 A 
ATOM     22  C   UNL     1       7.881   2.401   0.927  0.00  0.00    +0.042 A 
ATOM     23  C   UNL     1       9.197   2.095   1.257  0.00  0.00    +0.099 A 
ATOM     24  N   UNL     1       9.788   1.025   0.747  0.00  0.00    -0.349 N 
ATOM     25  C   UNL     1       9.156   0.214  -0.080  0.00  0.00    +0.089 A 
ATOM     26  N   UNL     1       9.899   2.919   2.129  0.00  0.00    -0.312 N 
ATOM     27  C   UNL     1      11.246   2.556   2.596  0.00  0.00    +0.134 C 
ATOM     28  C   UNL     1      12.174   3.755   2.375  0.00  0.00    +0.178 C 
ATOM     29  O   UNL     1      11.589   4.918   2.967  0.00  0.00    -0.377 OA
ATOM     30  C   UNL     1      10.338   5.301   2.390  0.00  0.00    +0.178 C 
ATOM     31  C   UNL     1       9.318   4.184   2.608  0.00  0.00    +0.134 C 
ATOM     32  H   UNL     1      10.707   0.831   0.991  0.00  0.00    +0.167 HD
ENDBRANCH  19  20
ENDBRANCH  17  19
ENDBRANCH   1  17
TORSDOF 5
