REMARK  Name = ZINC40467893
REMARK  6 active torsions:
REMARK  status: ('A' for Active; 'I' for Inactive)
REMARK    1  A    between atoms: C_1  and  S_2
REMARK    2  A    between atoms: S_2  and  C_3
REMARK    3  A    between atoms: C_3  and  C_4
REMARK    4  A    between atoms: C_4  and  C_5
REMARK    5  A    between atoms: C_5  and  C_7
REMARK    6  A    between atoms: C_5  and  N_22
REMARK                            x       y       z     vdW  Elec       q    Type
REMARK                         _______ _______ _______ _____ _____    ______ ____
ROOT
ATOM      1  C   UNL     1       1.900  -3.789  -3.037  0.00  0.00    +0.201 C 
ATOM      2  O   UNL     1       1.158  -4.467  -3.715  0.00  0.00    -0.277 OA
ATOM      3  N   UNL     1       2.903  -4.370  -2.349  0.00  0.00    -0.300 N 
ATOM      4  C   UNL     1       3.806  -3.561  -1.518  0.00  0.00    +0.126 C 
ATOM      5  C   UNL     1       3.795  -4.124  -0.091  0.00  0.00    +0.127 C 
ATOM      6  N   UNL     1       4.005  -5.577  -0.158  0.00  0.00    -0.297 N 
ATOM      7  C   UNL     1       3.102  -6.385  -0.989  0.00  0.00    +0.127 C 
ATOM      8  C   UNL     1       3.109  -5.823  -2.411  0.00  0.00    +0.126 C 
ATOM      9  C   UNL     1       5.035  -6.173   0.549  0.00  0.00    +0.218 A 
ATOM     10  N   UNL     1       5.830  -5.419   1.294  0.00  0.00    -0.222 NA
ATOM     11  C   UNL     1       6.824  -5.956   1.981  0.00  0.00    +0.131 A 
ATOM     12  C   UNL     1       7.028  -7.327   1.916  0.00  0.00    +0.054 A 
ATOM     13  C   UNL     1       6.177  -8.086   1.127  0.00  0.00    +0.131 A 
ATOM     14  N   UNL     1       5.199  -7.485   0.469  0.00  0.00    -0.222 NA
ATOM     15 BR   UNL     1       8.435  -8.141   2.881  0.00  0.00    -0.047 Br
ENDROOT
BRANCH   1  16
ATOM     16  C   UNL     1       1.701  -2.297  -2.963  0.00  0.00    +0.014 C 
BRANCH  16  17
ATOM     17  N   UNL     1       0.905  -1.852  -4.115  0.00  0.00    +0.386 N 
ATOM     18  H   UNL     1       0.771  -0.853  -4.066  0.00  0.00    -0.089 HD
ATOM     19  H   UNL     1       1.390  -2.085  -4.969  0.00  0.00    -0.089 HD
ATOM     20  H   UNL     1       0.007  -2.312  -4.101  0.00  0.00    -0.089 HD
ENDBRANCH  16  17
BRANCH  16  21
ATOM     21  C   UNL     1       0.966  -1.944  -1.668  0.00  0.00    +0.003 C 
BRANCH  21  22
ATOM     22  C   UNL     1       0.873  -0.423  -1.533  0.00  0.00    +0.068 C 
BRANCH  22  24
ATOM     23  C   UNL     1      -0.022   1.810   0.012  0.00  0.00    +0.084 C 
ATOM     24  S   UNL     1       0.002  -0.004   0.002  0.00  0.00    -0.164 S 
ENDBRANCH  22  24
ENDBRANCH  21  22
ENDBRANCH  16  21
ENDBRANCH   1  16
TORSDOF 5
