REMARK  Name = ZINC13498865
REMARK  15 active torsions:
REMARK  status: ('A' for Active; 'I' for Inactive)
REMARK    1  A    between atoms: C_1  and  C_2
REMARK    2  A    between atoms: C_2  and  C_3
REMARK    3  A    between atoms: C_3  and  C_4
REMARK    4  A    between atoms: C_3  and  C_5
REMARK    5  A    between atoms: C_3  and  N_6
REMARK    6  A    between atoms: C_7  and  C_11
REMARK    7  A    between atoms: C_11  and  C_13
REMARK    8  A    between atoms: C_11  and  N_77
REMARK    9  A    between atoms: C_13  and  C_14
REMARK   10  A    between atoms: C_13  and  C_15
REMARK   11  A    between atoms: C_16  and  C_17
REMARK   12  A    between atoms: C_16  and  N_77
REMARK   13  A    between atoms: C_21  and  C_30
REMARK   14  A    between atoms: C_22  and  C_29
REMARK   15  A    between atoms: C_31  and  N_77
REMARK                            x       y       z     vdW  Elec       q    Type
REMARK                         _______ _______ _______ _____ _____    ______ ____
ROOT
ATOM      1  N   UNL     1      -5.907   3.476  -1.821  0.00  0.00    +0.391 N 
ATOM      2  H   UNL     1      -5.956   2.453  -1.745  0.00  0.00    -0.080 HD
ENDROOT
BRANCH   1   3
ATOM      3  C   UNL     1      -5.117   3.830  -3.019  0.00  0.00    -0.067 C 
ATOM      4  C   UNL     1      -3.825   3.010  -3.017  0.00  0.00    -0.015 C 
ATOM      5  C   UNL     1      -3.003   3.350  -4.262  0.00  0.00    -0.002 C 
ATOM      6  C   UNL     1      -2.660   4.841  -4.256  0.00  0.00    -0.000 C 
ATOM      7  C   UNL     1      -3.952   5.661  -4.258  0.00  0.00    -0.002 C 
ATOM      8  C   UNL     1      -4.774   5.322  -3.013  0.00  0.00    -0.015 C 
ENDBRANCH   1   3
BRANCH   1   9
ATOM      9  C   UNL     1      -7.278   4.014  -1.943  0.00  0.00    +0.006 C 
BRANCH   9  11
ATOM     10  N   UNL     1      -8.507   5.261  -0.088  0.00  0.00    -0.225 N 
ATOM     11  C   UNL     1      -7.877   4.173  -0.570  0.00  0.00    +0.139 A 
ATOM     12  N   UNL     1      -7.889   3.277   0.387  0.00  0.00    -0.115 NA
ATOM     13  N   UNL     1      -8.489   3.790   1.405  0.00  0.00    -0.023 NA
ATOM     14  N   UNL     1      -8.867   4.987   1.120  0.00  0.00    -0.043 NA
BRANCH  10  15
ATOM     15  C   UNL     1      -8.742   6.518  -0.803  0.00  0.00    +0.061 C 
ATOM     16  C   UNL     1      -7.403   7.206  -1.077  0.00  0.00    +0.036 C 
ATOM     17  C   UNL     1      -9.447   6.226  -2.130  0.00  0.00    +0.036 C 
BRANCH  15  19
ATOM     18  C   UNL     1      -9.866   8.746  -0.695  0.00  0.00    +0.006 C 
ATOM     19  C   UNL     1      -9.621   7.434   0.051  0.00  0.00    +0.026 C 
ENDBRANCH  15  19
ENDBRANCH  10  15
ENDBRANCH   9  11
BRANCH   9  20
ATOM     20  C   UNL     1      -8.119   3.028  -2.756  0.00  0.00    -0.024 C 
ATOM     21  C   UNL     1      -7.516   2.872  -4.153  0.00  0.00    +0.006 C 
ATOM     22  C   UNL     1      -8.134   1.669  -2.051  0.00  0.00    +0.006 C 
ENDBRANCH   9  20
ENDBRANCH   1   9
BRANCH   1  23
ATOM     23  C   UNL     1      -5.258   4.018  -0.609  0.00  0.00    -0.036 C 
BRANCH  23  24
ATOM     24  C   UNL     1      -4.101   3.124  -0.241  0.00  0.00    +0.001 A 
ATOM     25  C   UNL     1      -2.834   3.604  -0.288  0.00  0.00    +0.017 A 
ATOM     26  C   UNL     1      -1.734   2.710   0.076  0.00  0.00    -0.001 A 
ATOM     27  C   UNL     1      -0.405   3.148   0.046  0.00  0.00    +0.013 A 
ATOM     28  C   UNL     1       0.599   2.289   0.392  0.00  0.00    -0.047 A 
ATOM     29  C   UNL     1       0.313   0.985   0.773  0.00  0.00    -0.046 A 
ATOM     30  C   UNL     1      -0.987   0.532   0.809  0.00  0.00    +0.030 A 
ATOM     31  C   UNL     1      -2.026   1.387   0.456  0.00  0.00    +0.049 A 
ATOM     32  N   UNL     1      -3.337   0.962   0.489  0.00  0.00    -0.322 N 
ATOM     33  H   UNL     1      -3.538   0.051   0.755  0.00  0.00    +0.169 HD
ATOM     34  C   UNL     1      -4.342   1.790   0.153  0.00  0.00    +0.251 A 
ATOM     35  O   UNL     1      -5.489   1.378   0.188  0.00  0.00    -0.268 OA
ATOM     36  C   UNL     1       1.438   0.056   1.151  0.00  0.00    +0.044 C 
ATOM     37  C   UNL     1       2.030   2.762   0.359  0.00  0.00    +0.044 C 
ENDBRANCH  23  24
ENDBRANCH   1  23
TORSDOF 8
