REMARK  Name = ZINC35399189
REMARK  7 active torsions:
REMARK  status: ('A' for Active; 'I' for Inactive)
REMARK    1  A    between atoms: C_4  and  N_7
REMARK    2  A    between atoms: C_13  and  C_16
REMARK    3  A    between atoms: C_16  and  C_17
REMARK    4  A    between atoms: N_19  and  C_20
REMARK    5  A    between atoms: C_20  and  C_21
REMARK    6  A    between atoms: C_21  and  C_22
REMARK    7  A    between atoms: C_22  and  N_23
REMARK                            x       y       z     vdW  Elec       q    Type
REMARK                         _______ _______ _______ _____ _____    ______ ____
ROOT
ATOM      1  N   UNL     1       3.404  -2.449   1.298  0.00  0.00    -0.296 N 
ATOM      2  C   UNL     1       3.471  -1.681   2.404  0.00  0.00    +0.302 C 
ATOM      3  O   UNL     1       3.024  -0.550   2.387  0.00  0.00    -0.253 OA
ATOM      4  N   UNL     1       4.034  -2.166   3.528  0.00  0.00    -0.286 N 
ATOM      5  C   UNL     1       4.012  -1.386   4.773  0.00  0.00    +0.109 C 
ATOM      6  C   UNL     1       3.416  -2.253   5.887  0.00  0.00    +0.023 C 
ATOM      7  C   UNL     1       4.198  -3.565   5.981  0.00  0.00    +0.001 C 
ATOM      8  C   UNL     1       4.079  -4.328   4.659  0.00  0.00    +0.023 C 
ATOM      9  C   UNL     1       4.677  -3.487   3.533  0.00  0.00    +0.109 C 
ATOM     10  H   UNL     1       3.825  -3.322   1.288  0.00  0.00    +0.151 HD
ENDROOT
BRANCH   1  14
ATOM     11  C   UNL     1       2.421  -1.782  -2.800  0.00  0.00    +0.000 C 
ATOM     12  C   UNL     1       1.480  -2.650  -1.961  0.00  0.00    +0.002 C 
ATOM     13  C   UNL     1       2.221  -3.156  -0.722  0.00  0.00    +0.022 C 
ATOM     14  C   UNL     1       2.694  -1.964   0.112  0.00  0.00    +0.074 C 
ATOM     15  C   UNL     1       3.635  -1.096  -0.727  0.00  0.00    +0.022 C 
ATOM     16  C   UNL     1       2.893  -0.590  -1.965  0.00  0.00    +0.002 C 
ENDBRANCH   1  14
BRANCH   7  17
ATOM     17  C   UNL     1       3.627  -4.419   7.115  0.00  0.00    +0.099 C 
BRANCH  17  18
ATOM     18  C   UNL     1       4.473  -5.654   7.288  0.00  0.00    +0.213 C 
ATOM     19  O   UNL     1       5.437  -5.834   6.574  0.00  0.00    -0.276 OA
ATOM     20  N   UNL     1       4.157  -6.559   8.236  0.00  0.00    -0.315 N 
ATOM     21  H   UNL     1       3.386  -6.415   8.806  0.00  0.00    +0.149 HD
BRANCH  20  22
ATOM     22  C   UNL     1       4.979  -7.760   8.404  0.00  0.00    +0.102 C 
BRANCH  22  23
ATOM     23  C   UNL     1       4.408  -8.614   9.538  0.00  0.00    +0.000 C 
BRANCH  23  24
ATOM     24  C   UNL     1       5.267  -9.868   9.714  0.00  0.00    -0.077 C 
BRANCH  24  25
ATOM     25  N   UNL     1       4.719 -10.688  10.803  0.00  0.00    +0.380 N 
ATOM     26  C   UNL     1       4.827  -9.952  12.069  0.00  0.00    -0.079 C 
ATOM     27  C   UNL     1       4.184 -10.767  13.193  0.00  0.00    -0.019 C 
ATOM     28  C   UNL     1       4.907 -12.112  13.319  0.00  0.00    -0.004 C 
ATOM     29  C   UNL     1       4.852 -12.838  11.971  0.00  0.00    -0.019 C 
ATOM     30  C   UNL     1       5.470 -11.946  10.892  0.00  0.00    -0.079 C 
ATOM     31  H   UNL     1       3.748 -10.889  10.616  0.00  0.00    -0.082 HD
ENDBRANCH  24  25
ENDBRANCH  23  24
ENDBRANCH  22  23
ENDBRANCH  20  22
ENDBRANCH  17  18
ENDBRANCH   7  17
TORSDOF 7
