REMARK  Name = ZINC29980605
REMARK  6 active torsions:
REMARK  status: ('A' for Active; 'I' for Inactive)
REMARK    1  A    between atoms: C_4  and  C_7
REMARK    2  A    between atoms: N_9  and  N_24
REMARK    3  A    between atoms: C_10  and  S_12
REMARK    4  A    between atoms: S_12  and  C_13
REMARK    5  A    between atoms: C_13  and  C_14
REMARK    6  A    between atoms: C_16  and  C_19
REMARK                            x       y       z     vdW  Elec       q    Type
REMARK                         _______ _______ _______ _____ _____    ______ ____
ROOT
ATOM      1  C   UNL     1      10.154   3.091   0.329  0.00  0.00    +0.092 A 
ATOM      2  C   UNL     1      10.413   3.155   1.659  0.00  0.00    +0.138 A 
ATOM      3  N   UNL     1       9.249   2.820   2.308  0.00  0.00    -0.251 N 
ATOM      4  C   UNL     1       8.315   2.552   1.354  0.00  0.00    +0.187 A 
ATOM      5  N   UNL     1       8.859   2.719   0.173  0.00  0.00    -0.221 NA
ENDROOT
BRANCH   1   9
ATOM      6  C   UNL     1      12.916   3.913  -2.798  0.00  0.00    +0.000 A 
ATOM      7  C   UNL     1      11.619   3.541  -3.104  0.00  0.00    +0.001 A 
ATOM      8  C   UNL     1      10.719   3.273  -2.093  0.00  0.00    +0.010 A 
ATOM      9  C   UNL     1      11.118   3.377  -0.762  0.00  0.00    +0.002 A 
ATOM     10  C   UNL     1      12.424   3.758  -0.459  0.00  0.00    +0.010 A 
ATOM     11  C   UNL     1      13.318   4.018  -1.478  0.00  0.00    +0.001 A 
ENDBRANCH   1   9
BRANCH   3  12
ATOM     12  N   UNL     1       9.065   2.763   3.660  0.00  0.00    -0.296 N 
ATOM     13  H   UNL     1       8.084   2.480   4.070  0.00  0.00    +0.163 HD
ATOM     14  H   UNL     1       9.897   2.999   4.339  0.00  0.00    +0.163 HD
ENDBRANCH   3  12
BRANCH   4  15
ATOM     15  S   UNL     1       6.648   2.070   1.657  0.00  0.00    -0.077 S 
BRANCH  15  16
ATOM     16  C   UNL     1       6.052   1.911  -0.045  0.00  0.00    +0.176 C 
BRANCH  16  17
ATOM     17  C   UNL     1       4.604   1.494  -0.033  0.00  0.00    +0.238 A 
ATOM     18  N   UNL     1       3.566   2.292  -0.020  0.00  0.00    -0.188 NA
ATOM     19  C   UNL     1       2.483   1.479  -0.014  0.00  0.00    +0.237 A 
ATOM     20  N   UNL     1       2.927   0.246  -0.019  0.00  0.00    -0.053 NA
ATOM     21  O   UNL     1       4.139   0.240  -0.035  0.00  0.00    -0.337 OA
BRANCH  19  22
ATOM     22  C   UNL     1       1.068   1.902   0.002  0.00  0.00    +0.175 A 
ATOM     23  C   UNL     1      -0.013   1.076   0.008  0.00  0.00    +0.053 A 
ATOM     24  C   UNL     1      -1.154   1.901   0.017  0.00  0.00    +0.042 A 
ATOM     25  C   UNL     1      -0.719   3.177   0.025  0.00  0.00    +0.196 A 
ATOM     26  O   UNL     1       0.623   3.174   0.013  0.00  0.00    -0.460 OA
ENDBRANCH  19  22
ENDBRANCH  16  17
ENDBRANCH  15  16
ENDBRANCH   4  15
TORSDOF 6
