REMARK  Name = ZINC09344308
REMARK  2 active torsions:
REMARK  status: ('A' for Active; 'I' for Inactive)
REMARK    1  A    between atoms: C_14  and  N_37
REMARK    2  A    between atoms: N_26  and  C_29
REMARK                            x       y       z     vdW  Elec       q    Type
REMARK                         _______ _______ _______ _____ _____    ______ ____
ROOT
ATOM      1  C   UNL     1       0.075   1.048  -3.226  0.00  0.00    +0.039 A 
ATOM      2  C   UNL     1       1.273   1.745  -3.209  0.00  0.00    +0.116 A 
ATOM      3  N   UNL     1       2.353   1.160  -2.720  0.00  0.00    -0.223 NA
ATOM      4  C   UNL     1       2.299  -0.078  -2.251  0.00  0.00    +0.218 A 
ATOM      5  N   UNL     1       1.171  -0.772  -2.253  0.00  0.00    -0.223 NA
ATOM      6  C   UNL     1       0.054  -0.245  -2.727  0.00  0.00    +0.116 A 
ATOM      7  N   UNL     1       3.449  -0.660  -1.747  0.00  0.00    -0.296 N 
ATOM      8  C   UNL     1       4.681   0.112  -1.744  0.00  0.00    +0.127 C 
ATOM      9  C   UNL     1       5.415  -0.025  -0.427  0.00  0.00    +0.124 C 
ATOM     10  N   UNL     1       5.360  -1.378   0.123  0.00  0.00    -0.322 N 
ATOM     11  C   UNL     1       6.505  -1.823   0.807  0.00  0.00    +0.033 A 
ATOM     12  C   UNL     1       7.629  -1.002   0.825  0.00  0.00    +0.025 A 
ATOM     13  C   UNL     1       8.766  -1.405   1.496  0.00  0.00    +0.034 A 
ATOM     14  C   UNL     1       8.789  -2.623   2.151  0.00  0.00    +0.127 A 
ATOM     15  C   UNL     1       7.675  -3.442   2.131  0.00  0.00    +0.038 A 
ATOM     16  C   UNL     1       6.536  -3.044   1.455  0.00  0.00    -0.023 A 
ATOM     17  C   UNL     1       5.336  -3.955   1.420  0.00  0.00    +0.064 C 
ATOM     18  C   UNL     1       4.563  -3.704   0.125  0.00  0.00    +0.149 C 
ATOM     19  C   UNL     1       4.180  -2.220   0.034  0.00  0.00    +0.115 C 
ATOM     20  C   UNL     1       3.379  -2.014  -1.236  0.00  0.00    +0.132 C 
ATOM     21  C   UNL     1       5.427  -4.062  -1.052  0.00  0.00    +0.258 C 
ATOM     22  O   UNL     1       6.599  -3.426  -1.209  0.00  0.00    -0.272 OA
ATOM     23  N   UNL     1       5.085  -4.962  -1.921  0.00  0.00    -0.126 NA
ATOM     24  C   UNL     1       3.933  -5.644  -1.838  0.00  0.00    +0.339 C 
ATOM     25  N   UNL     1       3.064  -5.437  -0.836  0.00  0.00    -0.192 N 
ATOM     26  C   UNL     1       3.308  -4.534   0.126  0.00  0.00    +0.245 C 
ATOM     27  O   UNL     1       2.498  -4.383   1.016  0.00  0.00    -0.274 OA
ATOM     28  O   UNL     1       3.670  -6.471  -2.691  0.00  0.00    -0.250 OA
ENDROOT
BRANCH  25  29
ATOM     29  C   UNL     1       1.877  -6.182  -0.792  0.00  0.00    +0.046 A 
ATOM     30  C   UNL     1       1.840  -7.394  -0.116  0.00  0.00    +0.027 A 
ATOM     31  C   UNL     1       0.670  -8.126  -0.074  0.00  0.00    +0.040 A 
ATOM     32  C   UNL     1      -0.467  -7.652  -0.708  0.00  0.00    +0.124 A 
ATOM     33  C   UNL     1      -0.432  -6.444  -1.383  0.00  0.00    +0.040 A 
ATOM     34  C   UNL     1       0.734  -5.706  -1.421  0.00  0.00    +0.027 A 
ATOM     35  F   UNL     1      -1.611  -8.370  -0.666  0.00  0.00    -0.205 F 
ENDBRANCH  25  29
BRANCH  14  36
ATOM     36  N   UNL     1      10.008  -3.050   2.874  0.00  0.00    +0.056 N 
ATOM     37  O   UNL     1      10.982  -2.335   2.892  0.00  0.00    -0.126 OA
ATOM     38  O   UNL     1      10.028  -4.115   3.446  0.00  0.00    -0.126 OA
ENDBRANCH  14  36
TORSDOF 2
