REMARK  Name = ZINC04157158
REMARK  11 active torsions:
REMARK  status: ('A' for Active; 'I' for Inactive)
REMARK    1  A    between atoms: C_1  and  C_2
REMARK    2  A    between atoms: C_2  and  C_4
REMARK    3  A    between atoms: C_2  and  N_16
REMARK    4  A    between atoms: N_16  and  C_17
REMARK    5  A    between atoms: C_17  and  C_18
REMARK    6  A    between atoms: C_18  and  C_19
REMARK    7  A    between atoms: C_19  and  C_20
REMARK    8  A    between atoms: C_20  and  C_21
REMARK    9  A    between atoms: C_21  and  C_22
REMARK   10  A    between atoms: C_22  and  N_23
REMARK   11  A    between atoms: C_24  and  C_26
REMARK                            x       y       z     vdW  Elec       q    Type
REMARK                         _______ _______ _______ _____ _____    ______ ____
ROOT
ATOM      1  N   UNL     1       0.847  -0.996  -1.143  0.00  0.00    -0.288 N 
ATOM      2  C   UNL     1       1.871  -0.218  -1.547  0.00  0.00    +0.248 C 
ATOM      3  O   UNL     1       2.086  -0.064  -2.733  0.00  0.00    -0.270 OA
ENDROOT
BRANCH   2   4
ATOM      4  C   UNL     1       2.733   0.447  -0.547  0.00  0.00    +0.051 A 
ATOM      5  C   UNL     1       2.190   0.896   0.659  0.00  0.00    +0.014 A 
ATOM      6  C   UNL     1       3.000   1.515   1.588  0.00  0.00    +0.001 A 
ATOM      7  C   UNL     1       4.348   1.692   1.328  0.00  0.00    +0.001 A 
ATOM      8  C   UNL     1       4.892   1.251   0.136  0.00  0.00    +0.016 A 
ATOM      9  C   UNL     1       4.095   0.624  -0.801  0.00  0.00    +0.030 A 
ATOM     10 BR   UNL     1       4.843   0.013  -2.427  0.00  0.00    -0.050 Br
ENDBRANCH   2   4
BRANCH   1  12
ATOM     11  C   UNL     1      -0.354   0.787   0.024  0.00  0.00    +0.036 C 
ATOM     12  C   UNL     1       0.117  -0.667   0.084  0.00  0.00    +0.139 C 
BRANCH  12  13
ATOM     13  C   UNL     1       1.026  -0.852   1.273  0.00  0.00    +0.131 A 
ATOM     14  N   UNL     1       0.560  -0.501   2.500  0.00  0.00    -0.309 N 
ATOM     15  H   UNL     1      -0.337  -0.144   2.590  0.00  0.00    +0.170 HD
ATOM     16  C   UNL     1       1.336  -0.648   3.599  0.00  0.00    +0.259 A 
ATOM     17  O   UNL     1       0.931  -0.339   4.705  0.00  0.00    -0.267 OA
ATOM     18  C   UNL     1       2.687  -1.195   3.405  0.00  0.00    +0.065 A 
ATOM     19  C   UNL     1       3.565  -1.385   4.471  0.00  0.00    +0.015 A 
ATOM     20  C   UNL     1       4.820  -1.901   4.232  0.00  0.00    +0.001 A 
ATOM     21  C   UNL     1       5.214  -2.231   2.942  0.00  0.00    +0.002 A 
ATOM     22  C   UNL     1       4.362  -2.051   1.876  0.00  0.00    +0.028 A 
ATOM     23  C   UNL     1       3.085  -1.530   2.092  0.00  0.00    +0.078 A 
ATOM     24  N   UNL     1       2.211  -1.341   1.072  0.00  0.00    -0.232 NA
ENDBRANCH  12  13
ENDBRANCH   1  12
BRANCH   1  25
ATOM     25  C   UNL     1       0.463  -2.169  -1.932  0.00  0.00    +0.109 C 
BRANCH  25  26
ATOM     26  C   UNL     1      -0.588  -1.765  -2.968  0.00  0.00    +0.019 C 
BRANCH  26  27
ATOM     27  C   UNL     1      -0.989  -2.990  -3.792  0.00  0.00    +0.001 C 
BRANCH  27  28
ATOM     28  C   UNL     1      -2.040  -2.586  -4.829  0.00  0.00    -0.002 C 
BRANCH  28  29
ATOM     29  C   UNL     1      -2.441  -3.811  -5.652  0.00  0.00    -0.020 C 
BRANCH  29  30
ATOM     30  C   UNL     1      -3.491  -3.407  -6.689  0.00  0.00    -0.086 C 
BRANCH  30  31
ATOM     31  N   UNL     1      -3.876  -4.584  -7.480  0.00  0.00    +0.378 N 
ATOM     32  H   UNL     1      -3.064  -4.953  -7.951  0.00  0.00    -0.090 HD
ATOM     33  H   UNL     1      -4.261  -5.289  -6.869  0.00  0.00    -0.090 HD
ATOM     34  H   UNL     1      -4.569  -4.317  -8.163  0.00  0.00    -0.090 HD
ENDBRANCH  30  31
ENDBRANCH  29  30
ENDBRANCH  28  29
ENDBRANCH  27  28
ENDBRANCH  26  27
ENDBRANCH  25  26
ENDBRANCH   1  25
TORSDOF 10
