REMARK  Name = ZINC33240218
REMARK  5 active torsions:
REMARK  status: ('A' for Active; 'I' for Inactive)
REMARK    1  A    between atoms: C_1  and  C_2
REMARK    2  A    between atoms: C_4  and  C_27
REMARK    3  A    between atoms: N_8  and  N_9
REMARK    4  A    between atoms: C_10  and  C_12
REMARK    5  A    between atoms: N_15  and  C_17
REMARK                            x       y       z     vdW  Elec       q    Type
REMARK                         _______ _______ _______ _____ _____    ______ ____
ROOT
ATOM      1  C   UNL     1       0.056  -1.863   5.996  0.00  0.00    +0.152 A 
ATOM      2  C   UNL     1       0.075  -2.408   7.301  0.00  0.00    +0.006 A 
ATOM      3  C   UNL     1       0.062  -1.352   8.142  0.00  0.00    +0.049 A 
ATOM      4  N   UNL     1       0.037  -0.231   7.371  0.00  0.00    -0.233 N 
ATOM      5  N   UNL     1       0.039  -0.550   6.127  0.00  0.00    -0.161 NA
ATOM      6  C   UNL     1       0.082  -1.827   9.577  0.00  0.00    +0.056 C 
ATOM      7  C   UNL     1      -0.324  -3.316   9.511  0.00  0.00    +0.011 C 
ATOM      8  C   UNL     1       0.103  -3.702   8.078  0.00  0.00    +0.040 C 
ENDROOT
BRANCH   4   9
ATOM      9  C   UNL     1       0.016   1.082   7.863  0.00  0.00    +0.101 A 
ATOM     10  C   UNL     1       0.027   1.312   9.232  0.00  0.00    +0.031 A 
ATOM     11  C   UNL     1       0.007   2.606   9.714  0.00  0.00    +0.002 A 
ATOM     12  C   UNL     1      -0.024   3.673   8.835  0.00  0.00    +0.003 A 
ATOM     13  C   UNL     1      -0.035   3.450   7.471  0.00  0.00    +0.040 A 
ATOM     14  C   UNL     1      -0.010   2.156   6.981  0.00  0.00    +0.149 A 
ATOM     15  F   UNL     1      -0.015   1.938   5.648  0.00  0.00    -0.203 F 
ENDBRANCH   4   9
BRANCH   1  17
ATOM     16  N   UNL     1       0.046  -1.962   3.551  0.00  0.00    -0.229 N 
ATOM     17  C   UNL     1       0.060  -2.619   4.728  0.00  0.00    +0.281 C 
ATOM     18  O   UNL     1       0.077  -3.835   4.745  0.00  0.00    -0.267 OA
ATOM     19  H   UNL     1       0.033  -0.992   3.538  0.00  0.00    +0.173 HD
BRANCH  16  27
ATOM     20  C   UNL     1      -0.018   1.503   0.010  0.00  0.00    +0.066 C 
ATOM     21  C   UNL     1       0.002  -0.004   0.002  0.00  0.00    +0.044 A 
ATOM     22  C   UNL     1       0.006  -0.699  -1.197  0.00  0.00    +0.046 A 
ATOM     23  C   UNL     1       0.025  -2.084  -1.160  0.00  0.00    +0.044 A 
ATOM     24  N   UNL     1       0.040  -2.698   0.011  0.00  0.00    -0.219 NA
ATOM     25  C   UNL     1       0.035  -2.004   1.140  0.00  0.00    +0.232 A 
ATOM     26  N   UNL     1       0.022  -0.679   1.139  0.00  0.00    -0.219 NA
ATOM     27  N   UNL     1       0.050  -2.679   2.348  0.00  0.00    -0.232 N 
ATOM     28  C   UNL     1       0.030  -2.881  -2.439  0.00  0.00    +0.066 C 
ATOM     29  H   UNL     1       0.063  -3.649   2.362  0.00  0.00    +0.173 HD
ENDBRANCH  16  27
ENDBRANCH   1  17
TORSDOF 3
