REMARK  Name = ZINC15230101
REMARK  16 active torsions:
REMARK  status: ('A' for Active; 'I' for Inactive)
REMARK    1  A    between atoms: C_1  and  C_2
REMARK    2  A    between atoms: C_4  and  C_34
REMARK    3  A    between atoms: C_5  and  C_9
REMARK    4  A    between atoms: C_6  and  C_8
REMARK    5  A    between atoms: C_9  and  C_33
REMARK    6  A    between atoms: C_11  and  C_13
REMARK    7  A    between atoms: C_13  and  C_24
REMARK    8  A    between atoms: N_14  and  O_15
REMARK    9  A    between atoms: O_15  and  C_16
REMARK   10  A    between atoms: C_16  and  C_17
REMARK   11  A    between atoms: C_17  and  C_19
REMARK   12  A    between atoms: C_17  and  O_23
REMARK   13  A    between atoms: C_19  and  N_71
REMARK   14  A    between atoms: C_20  and  C_21
REMARK   15  A    between atoms: C_20  and  C_22
REMARK   16  A    between atoms: C_20  and  N_71
REMARK                            x       y       z     vdW  Elec       q    Type
REMARK                         _______ _______ _______ _____ _____    ______ ____
ROOT
ATOM      1  C   UNL     1       4.439  -2.074   1.145  0.00  0.00    +0.125 C 
ATOM      2  N   UNL     1       4.314  -2.409  -0.101  0.00  0.00    -0.086 NA
ENDROOT
BRANCH   1   3
ATOM      3  C   UNL     1       4.633  -3.109   2.168  0.00  0.00    +0.154 A 
ATOM      4  C   UNL     1       4.697  -4.444   1.927  0.00  0.00    +0.059 A 
ATOM      5  C   UNL     1       4.897  -5.082   3.229  0.00  0.00    +0.021 A 
ATOM      6  C   UNL     1       5.040  -6.404   3.653  0.00  0.00    +0.011 A 
ATOM      7  C   UNL     1       5.217  -6.675   4.981  0.00  0.00    +0.001 A 
ATOM      8  C   UNL     1       5.256  -5.643   5.909  0.00  0.00    +0.004 A 
ATOM      9  C   UNL     1       5.117  -4.331   5.510  0.00  0.00    +0.047 A 
ATOM     10  C   UNL     1       4.935  -4.032   4.165  0.00  0.00    +0.136 A 
ATOM     11  O   UNL     1       4.780  -2.877   3.489  0.00  0.00    -0.453 OA
ENDBRANCH   1   3
BRANCH   1  14
ATOM     12  C   UNL     1       6.368   0.095   1.331  0.00  0.00    -0.005 C 
ATOM     13  C   UNL     1       5.070   0.319   0.537  0.00  0.00    +0.021 C 
ATOM     14  C   UNL     1       4.385  -0.621   1.543  0.00  0.00    +0.046 C 
ATOM     15  C   UNL     1       5.478  -0.216   2.546  0.00  0.00    +0.021 C 
ATOM     16  C   UNL     1       7.185  -1.105   0.846  0.00  0.00    +0.016 C 
BRANCH  12  21
ATOM     17  C   UNL     1       9.550   4.877   1.958  0.00  0.00    +0.044 C 
ATOM     18  C   UNL     1       8.724   3.627   1.793  0.00  0.00    -0.050 A 
ATOM     19  C   UNL     1       8.151   3.334   0.570  0.00  0.00    +0.007 A 
ATOM     20  C   UNL     1       7.388   2.192   0.421  0.00  0.00    -0.046 A 
ATOM     21  C   UNL     1       7.199   1.341   1.494  0.00  0.00    -0.036 A 
ATOM     22  C   UNL     1       7.772   1.634   2.717  0.00  0.00    -0.046 A 
ATOM     23  C   UNL     1       8.535   2.777   2.867  0.00  0.00    +0.007 A 
ATOM     24  C   UNL     1       7.566   0.707   3.887  0.00  0.00    +0.044 C 
ATOM     25  C   UNL     1       6.763   1.872  -0.913  0.00  0.00    +0.044 C 
ENDBRANCH  12  21
ENDBRANCH   1  14
BRANCH   2  26
ATOM     26  O   UNL     1       3.962  -1.433  -1.065  0.00  0.00    -0.391 OA
BRANCH  26  27
ATOM     27  C   UNL     1       3.859  -1.943  -2.397  0.00  0.00    +0.292 C 
BRANCH  27  28
ATOM     28  C   UNL     1       3.477  -0.807  -3.348  0.00  0.00    +0.138 C 
BRANCH  28  29
ATOM     29  O   UNL     1       4.533   0.154  -3.392  0.00  0.00    -0.390 OA
ATOM     30  H   UNL     1       5.377  -0.203  -3.699  0.00  0.00    +0.210 HD
ENDBRANCH  28  29
BRANCH  28  31
ATOM     31  C   UNL     1       3.245  -1.374  -4.751  0.00  0.00    -0.047 C 
BRANCH  31  32
ATOM     32  N   UNL     1       2.876  -0.274  -5.662  0.00  0.00    +0.382 N 
ATOM     33  H   UNL     1       3.637   0.415  -5.686  0.00  0.00    -0.085 HD
ATOM     34  H   UNL     1       2.018   0.175  -5.321  0.00  0.00    -0.085 HD
BRANCH  32  35
ATOM     35  C   UNL     1       2.647  -0.792  -7.024  0.00  0.00    -0.078 C 
ATOM     36  C   UNL     1       1.706   0.157  -7.770  0.00  0.00    -0.014 C 
ATOM     37  C   UNL     1       3.980  -0.879  -7.769  0.00  0.00    -0.014 C 
ENDBRANCH  32  35
ENDBRANCH  31  32
ENDBRANCH  28  31
ENDBRANCH  27  28
ENDBRANCH  26  27
ENDBRANCH   2  26
TORSDOF 10
