REMARK  Name = ZINC13065483
REMARK  14 active torsions:
REMARK  status: ('A' for Active; 'I' for Inactive)
REMARK    1  A    between atoms: C_1  and  C_2
REMARK    2  A    between atoms: C_2  and  O_3
REMARK    3  A    between atoms: O_3  and  C_4
REMARK    4  A    between atoms: C_11  and  C_16
REMARK    5  A    between atoms: C_16  and  N_71
REMARK    6  A    between atoms: C_17  and  C_18
REMARK    7  A    between atoms: C_17  and  N_71
REMARK    8  A    between atoms: C_21  and  C_24
REMARK    9  A    between atoms: C_25  and  C_26
REMARK   10  A    between atoms: C_25  and  N_71
REMARK   11  A    between atoms: N_30  and  C_31
REMARK   12  A    between atoms: C_31  and  C_32
REMARK   13  A    between atoms: C_35  and  O_38
REMARK   14  A    between atoms: O_38  and  C_39
REMARK                            x       y       z     vdW  Elec       q    Type
REMARK                         _______ _______ _______ _____ _____    ______ ____
ROOT
ATOM      1  N   UNL     1       1.572  -2.084  -1.319  0.00  0.00    +0.390 N 
ATOM      2  H   UNL     1       0.849  -1.854  -2.011  0.00  0.00    -0.080 HD
ENDROOT
BRANCH   1   3
ATOM      3  C   UNL     1       1.379  -3.478  -0.869  0.00  0.00    -0.036 C 
BRANCH   3  11
ATOM      4  C   UNL     1      -4.410  -5.211  -2.253  0.00  0.00    +0.121 A 
ATOM      5  C   UNL     1      -4.963  -4.885  -1.017  0.00  0.00    +0.047 A 
ATOM      6  C   UNL     1      -4.180  -4.358  -0.015  0.00  0.00    +0.030 A 
ATOM      7  C   UNL     1      -2.822  -4.146  -0.232  0.00  0.00    +0.049 A 
ATOM      8  C   UNL     1      -2.259  -4.473  -1.480  0.00  0.00    +0.002 A 
ATOM      9  C   UNL     1      -3.065  -5.009  -2.490  0.00  0.00    +0.055 A 
ATOM     10  C   UNL     1      -0.829  -4.246  -1.695  0.00  0.00    +0.017 A 
ATOM     11  C   UNL     1      -0.096  -3.725  -0.680  0.00  0.00    +0.001 A 
ATOM     12  C   UNL     1      -0.707  -3.418   0.554  0.00  0.00    +0.251 A 
ATOM     13  O   UNL     1      -0.029  -2.956   1.455  0.00  0.00    -0.268 OA
ATOM     14  N   UNL     1      -2.021  -3.619   0.760  0.00  0.00    -0.322 N 
ATOM     15  H   UNL     1      -2.410  -3.393   1.619  0.00  0.00    +0.169 HD
BRANCH   4  16
ATOM     16  O   UNL     1      -5.198  -5.730  -3.232  0.00  0.00    -0.492 OA
BRANCH  16  18
ATOM     17  C   UNL     1      -7.302  -6.504  -4.135  0.00  0.00    +0.048 C 
ATOM     18  C   UNL     1      -6.581  -5.914  -2.921  0.00  0.00    +0.225 C 
ENDBRANCH  16  18
ENDBRANCH   4  16
ENDBRANCH   3  11
ENDBRANCH   1   3
BRANCH   1  19
ATOM     19  C   UNL     1       2.902  -1.935  -1.947  0.00  0.00    -0.042 C 
BRANCH  19  20
ATOM     20  C   UNL     1       2.879  -2.607  -3.296  0.00  0.00    -0.064 A 
ATOM     21  C   UNL     1       3.353  -3.898  -3.432  0.00  0.00    +0.002 A 
ATOM     22  C   UNL     1       3.328  -4.516  -4.668  0.00  0.00    +0.003 A 
ATOM     23  C   UNL     1       2.837  -3.840  -5.770  0.00  0.00    -0.050 A 
ATOM     24  C   UNL     1       2.367  -2.547  -5.634  0.00  0.00    +0.003 A 
ATOM     25  C   UNL     1       2.388  -1.931  -4.397  0.00  0.00    +0.002 A 
ATOM     26  C   UNL     1       2.815  -4.513  -7.118  0.00  0.00    +0.044 C 
ENDBRANCH  19  20
ENDBRANCH   1  19
BRANCH   1  27
ATOM     27  C   UNL     1       1.448  -1.161  -0.172  0.00  0.00    +0.001 C 
BRANCH  27  28
ATOM     28  C   UNL     1       1.494   0.257  -0.680  0.00  0.00    +0.135 A 
ATOM     29  N   UNL     1       2.568   0.972  -0.910  0.00  0.00    -0.115 NA
ATOM     30  N   UNL     1       2.193   2.129  -1.335  0.00  0.00    -0.023 NA
ATOM     31  N   UNL     1       0.907   2.171  -1.383  0.00  0.00    -0.044 NA
ATOM     32  N   UNL     1       0.440   1.035  -0.987  0.00  0.00    -0.227 N 
BRANCH  32  33
ATOM     33  C   UNL     1      -0.974   0.663  -0.889  0.00  0.00    +0.182 C 
BRANCH  33  34
ATOM     34  C   UNL     1      -1.471   0.217  -2.240  0.00  0.00    -0.026 A 
ATOM     35  C   UNL     1      -1.915   1.153  -3.155  0.00  0.00    +0.009 A 
ATOM     36  C   UNL     1      -2.365   0.748  -4.396  0.00  0.00    +0.046 A 
ATOM     37  C   UNL     1      -2.383  -0.601  -4.720  0.00  0.00    +0.120 A 
ATOM     38  C   UNL     1      -1.942  -1.539  -3.797  0.00  0.00    +0.046 A 
ATOM     39  C   UNL     1      -1.488  -1.128  -2.559  0.00  0.00    +0.009 A 
BRANCH  37  40
ATOM     40  O   UNL     1      -2.831  -1.003  -5.938  0.00  0.00    -0.495 OA
ATOM     41  C   UNL     1      -3.269   0.017  -6.838  0.00  0.00    +0.277 C 
ENDBRANCH  37  40
ENDBRANCH  33  34
ENDBRANCH  32  33
ENDBRANCH  27  28
ENDBRANCH   1  27
TORSDOF 11
