REMARK  Name = ZINC00622968
REMARK  9 active torsions:
REMARK  status: ('A' for Active; 'I' for Inactive)
REMARK    1  A    between atoms: C_1  and  C_2
REMARK    2  A    between atoms: C_2  and  C_3
REMARK    3  A    between atoms: C_3  and  C_4
REMARK    4  A    between atoms: C_11  and  N_32
REMARK    5  A    between atoms: C_12  and  C_30
REMARK    6  A    between atoms: C_13  and  C_15
REMARK    7  A    between atoms: C_18  and  O_21
REMARK    8  A    between atoms: O_21  and  C_22
REMARK    9  A    between atoms: C_22  and  C_23
REMARK                            x       y       z     vdW  Elec       q    Type
REMARK                         _______ _______ _______ _____ _____    ______ ____
ROOT
ATOM      1  C   UNL     1      -5.534  -2.618   2.593  0.00  0.00    +0.071 A 
ATOM      2  C   UNL     1      -5.750  -2.245   1.273  0.00  0.00    +0.049 A 
ATOM      3  C   UNL     1      -6.837  -1.418   1.239  0.00  0.00    +0.222 A 
ATOM      4  N   UNL     1      -7.282  -1.280   2.499  0.00  0.00    -0.246 N 
ATOM      5  H   UNL     1      -8.066  -0.731   2.790  0.00  0.00    +0.192 HD
ATOM      6  N   UNL     1      -6.451  -2.042   3.334  0.00  0.00    -0.176 NA
ATOM      7  O   UNL     1      -7.312  -0.880   0.089  0.00  0.00    -0.423 OA
ATOM      8  C   UNL     1      -6.858  -1.391  -1.074  0.00  0.00    +0.200 C 
ATOM      9  C   UNL     1      -5.786  -2.208  -1.169  0.00  0.00    +0.098 C 
ATOM     10  C   UNL     1      -4.981  -2.629   0.035  0.00  0.00    +0.101 C 
ENDROOT
BRANCH  10  11
ATOM     11  C   UNL     1      -3.648  -1.927   0.026  0.00  0.00    -0.034 A 
ATOM     12  C   UNL     1      -2.479  -2.665   0.011  0.00  0.00    +0.008 A 
ATOM     13  C   UNL     1      -1.255  -2.024   0.003  0.00  0.00    +0.046 A 
ATOM     14  C   UNL     1      -1.200  -0.637   0.010  0.00  0.00    +0.121 A 
ATOM     15  C   UNL     1      -2.374   0.101   0.031  0.00  0.00    +0.046 A 
ATOM     16  C   UNL     1      -3.595  -0.545   0.034  0.00  0.00    +0.008 A 
BRANCH  14  17
ATOM     17  O   UNL     1       0.002  -0.004   0.002  0.00  0.00    -0.487 OA
BRANCH  17  18
ATOM     18  C   UNL     1      -0.017   1.425   0.010  0.00  0.00    +0.264 C 
BRANCH  18  19
ATOM     19  C   UNL     1       1.397   1.946  -0.001  0.00  0.00    -0.009 A 
ATOM     20  C   UNL     1       2.034   2.192  -1.203  0.00  0.00    +0.007 A 
ATOM     21  C   UNL     1       3.330   2.671  -1.214  0.00  0.00    +0.002 A 
ATOM     22  C   UNL     1       3.991   2.904  -0.022  0.00  0.00    +0.020 A 
ATOM     23  C   UNL     1       3.354   2.659   1.181  0.00  0.00    +0.041 A 
ATOM     24  C   UNL     1       2.054   2.184   1.191  0.00  0.00    +0.027 A 
ATOM     25 CL   UNL     1       4.183   2.953   2.678  0.00  0.00    -0.084 Cl
ENDBRANCH  18  19
ENDBRANCH  17  18
ENDBRANCH  14  17
ENDBRANCH  10  11
BRANCH   8  26
ATOM     26  N   UNL     1      -7.524  -1.061  -2.228  0.00  0.00    -0.328 N 
ATOM     27  H   UNL     1      -8.297  -0.476  -2.192  0.00  0.00    +0.145 HD
ATOM     28  H   UNL     1      -7.221  -1.413  -3.080  0.00  0.00    +0.145 HD
ENDBRANCH   8  26
BRANCH   9  29
ATOM     29  C   UNL     1      -5.400  -2.692  -2.460  0.00  0.00    +0.101 C 
ATOM     30  N   UNL     1      -5.094  -3.076  -3.484  0.00  0.00    -0.191 NA
ENDBRANCH   9  29
BRANCH   1  31
ATOM     31  C   UNL     1      -4.439  -3.527   3.088  0.00  0.00    +0.057 C 
BRANCH  31  33
ATOM     32  C   UNL     1      -2.091  -3.617   3.939  0.00  0.00    +0.004 C 
ATOM     33  C   UNL     1      -3.204  -2.695   3.437  0.00  0.00    +0.003 C 
ENDBRANCH  31  33
ENDBRANCH   1  31
TORSDOF 8
