REMARK  Name = ZINC39663990
REMARK  8 active torsions:
REMARK  status: ('A' for Active; 'I' for Inactive)
REMARK    1  A    between atoms: C_1  and  O_2
REMARK    2  A    between atoms: O_2  and  C_3
REMARK    3  A    between atoms: C_6  and  C_9
REMARK    4  A    between atoms: C_9  and  C_11
REMARK    5  A    between atoms: C_9  and  N_35
REMARK    6  A    between atoms: C_11  and  N_12
REMARK    7  A    between atoms: C_13  and  C_15
REMARK    8  A    between atoms: C_26  and  C_28
REMARK                            x       y       z     vdW  Elec       q    Type
REMARK                         _______ _______ _______ _____ _____    ______ ____
ROOT
ATOM      1  C   UNL     1       8.085  -8.602   8.773  0.00  0.00    +0.100 C 
ATOM      2  C   UNL     1       7.189  -9.329   7.745  0.00  0.00    +0.121 C 
ATOM      3  N   UNL     1       7.473  -8.653   6.457  0.00  0.00    -0.296 N 
ATOM      4  C   UNL     1       8.934  -8.405   6.485  0.00  0.00    +0.115 C 
ATOM      5  C   UNL     1       9.231  -8.001   7.943  0.00  0.00    -0.004 C 
ATOM      6  C   UNL     1      10.569  -8.582   8.391  0.00  0.00    -0.010 C 
ATOM      7  C   UNL     1      11.698  -7.925   7.591  0.00  0.00    -0.082 C 
ATOM      8  N   UNL     1      11.675  -6.474   7.809  0.00  0.00    +0.379 N 
ATOM      9  C   UNL     1      10.422  -5.910   7.290  0.00  0.00    -0.082 C 
ATOM     10  C   UNL     1       9.239  -6.481   8.077  0.00  0.00    -0.010 C 
ATOM     11  C   UNL     1       6.600  -8.335   5.481  0.00  0.00    +0.249 C 
ATOM     12  O   UNL     1       7.004  -7.874   4.431  0.00  0.00    -0.270 OA
ATOM     13  H   UNL     1      11.745  -6.282   8.797  0.00  0.00    -0.086 HD
ATOM     14  H   UNL     1      12.456  -6.051   7.330  0.00  0.00    -0.086 HD
ENDROOT
BRANCH  11  15
ATOM     15  C   UNL     1       5.153  -8.547   5.686  0.00  0.00    +0.072 A 
ATOM     16  C   UNL     1       4.420  -7.663   6.481  0.00  0.00    +0.016 A 
ATOM     17  C   UNL     1       3.069  -7.866   6.668  0.00  0.00    +0.001 A 
ATOM     18  C   UNL     1       2.438  -8.944   6.072  0.00  0.00    +0.003 A 
ATOM     19  C   UNL     1       3.154  -9.825   5.285  0.00  0.00    +0.039 A 
ATOM     20  C   UNL     1       4.508  -9.631   5.082  0.00  0.00    +0.135 A 
ATOM     21  F   UNL     1       5.208 -10.489   4.308  0.00  0.00    -0.205 F 
ENDBRANCH  11  15
BRANCH   1  23
ATOM     22  N   UNL     1       7.681  -7.095  10.693  0.00  0.00    -0.316 N 
ATOM     23  C   UNL     1       7.309  -7.511   9.466  0.00  0.00    +0.218 C 
ATOM     24  O   UNL     1       6.352  -7.007   8.919  0.00  0.00    -0.275 OA
ATOM     25  H   UNL     1       8.396  -7.551  11.163  0.00  0.00    +0.149 HD
BRANCH  22  26
ATOM     26  C   UNL     1       7.003  -5.956  11.316  0.00  0.00    +0.093 C 
BRANCH  26  27
ATOM     27  C   UNL     1       7.693  -5.613  12.638  0.00  0.00    -0.020 C 
BRANCH  27  31
ATOM     28  C   UNL     1      11.528  -3.904  11.841  0.00  0.00    +0.120 A 
ATOM     29  C   UNL     1      11.424  -5.239  12.201  0.00  0.00    +0.046 A 
ATOM     30  C   UNL     1      10.183  -5.790  12.459  0.00  0.00    +0.005 A 
ATOM     31  C   UNL     1       9.046  -5.010  12.357  0.00  0.00    -0.059 A 
ATOM     32  C   UNL     1       9.146  -3.679  11.998  0.00  0.00    +0.005 A 
ATOM     33  C   UNL     1      10.385  -3.122  11.746  0.00  0.00    +0.046 A 
BRANCH  28  35
ATOM     34  C   UNL     1      13.880  -4.223  11.705  0.00  0.00    +0.277 C 
ATOM     35  O   UNL     1      12.747  -3.360  11.588  0.00  0.00    -0.495 OA
ENDBRANCH  28  35
ENDBRANCH  27  31
BRANCH  27  36
ATOM     36  N   UNL     1       6.873  -4.649  13.384  0.00  0.00    +0.385 N 
ATOM     37  C   UNL     1       5.571  -5.263  13.752  0.00  0.00    -0.078 C 
ATOM     38  C   UNL     1       5.099  -4.399  14.949  0.00  0.00    -0.020 C 
ATOM     39  C   UNL     1       6.415  -4.108  15.706  0.00  0.00    -0.020 C 
ATOM     40  C   UNL     1       7.530  -4.300  14.662  0.00  0.00    -0.078 C 
ATOM     41  H   UNL     1       6.723  -3.819  12.831  0.00  0.00    -0.081 HD
ENDBRANCH  27  36
ENDBRANCH  26  27
ENDBRANCH  22  26
ENDBRANCH   1  23
TORSDOF 7
