REMARK  Name = ZINC01873216
REMARK  11 active torsions:
REMARK  status: ('A' for Active; 'I' for Inactive)
REMARK    1  A    between atoms: C_1  and  C_2
REMARK    2  A    between atoms: C_2  and  N_3
REMARK    3  A    between atoms: N_3  and  C_4
REMARK    4  A    between atoms: C_4  and  C_5
REMARK    5  A    between atoms: C_6  and  C_8
REMARK    6  A    between atoms: C_12  and  C_14
REMARK    7  A    between atoms: C_14  and  O_15
REMARK    8  A    between atoms: O_15  and  C_16
REMARK    9  A    between atoms: C_19  and  C_23
REMARK   10  A    between atoms: C_24  and  C_31
REMARK   11  A    between atoms: C_28  and  N_29
REMARK                            x       y       z     vdW  Elec       q    Type
REMARK                         _______ _______ _______ _____ _____    ______ ____
ROOT
ATOM      1  C   UNL     1      -2.625   1.913   3.670  0.00  0.00    +0.139 A 
ATOM      2  C   UNL     1      -3.709   2.279   2.886  0.00  0.00    +0.048 A 
ATOM      3  C   UNL     1      -4.845   2.796   3.473  0.00  0.00    +0.012 A 
ATOM      4  C   UNL     1      -4.899   2.962   4.857  0.00  0.00    -0.011 A 
ATOM      5  C   UNL     1      -3.806   2.598   5.642  0.00  0.00    +0.032 A 
ATOM      6  C   UNL     1      -2.675   2.076   5.049  0.00  0.00    +0.083 A 
ATOM      7 CL   UNL     1      -1.313   1.623   6.026  0.00  0.00    -0.080 Cl
ENDROOT
BRANCH   4   8
ATOM      8  C   UNL     1      -6.116   3.523   5.491  0.00  0.00    +0.043 A 
ATOM      9  C   UNL     1      -6.514   4.834   5.239  0.00  0.00    +0.053 A 
ATOM     10  N   UNL     1      -7.607   5.299   5.823  0.00  0.00    -0.219 NA
ATOM     11  C   UNL     1      -8.322   4.538   6.639  0.00  0.00    +0.214 A 
ATOM     12  N   UNL     1      -7.983   3.287   6.908  0.00  0.00    -0.199 NA
ATOM     13  C   UNL     1      -6.903   2.743   6.358  0.00  0.00    +0.129 A 
ATOM     14  N   UNL     1      -9.457   5.068   7.228  0.00  0.00    -0.327 N 
ATOM     15  C   UNL     1      -5.710   5.711   4.314  0.00  0.00    +0.066 C 
ATOM     16  H   UNL     1      -9.719   5.983   7.041  0.00  0.00    +0.145 HD
ATOM     17  H   UNL     1      -9.991   4.524   7.827  0.00  0.00    +0.145 HD
BRANCH  13  18
ATOM     18  N   UNL     1      -6.556   1.433   6.637  0.00  0.00    -0.343 N 
ATOM     19  H   UNL     1      -5.763   1.045   6.234  0.00  0.00    +0.144 HD
ATOM     20  H   UNL     1      -7.104   0.902   7.237  0.00  0.00    +0.144 HD
ENDBRANCH  13  18
ENDBRANCH   4   8
BRANCH   1  21
ATOM     21  O   UNL     1      -1.509   1.399   3.088  0.00  0.00    -0.486 OA
BRANCH  21  22
ATOM     22  C   UNL     1      -1.525   1.259   1.666  0.00  0.00    +0.264 C 
BRANCH  22  27
ATOM     23  C   UNL     1       2.044   0.976   0.439  0.00  0.00    +0.037 A 
ATOM     24  C   UNL     1       2.189  -0.409   0.343  0.00  0.00    +0.013 A 
ATOM     25  C   UNL     1       1.137  -1.235   0.677  0.00  0.00    +0.001 A 
ATOM     26  C   UNL     1      -0.062  -0.694   1.107  0.00  0.00    +0.007 A 
ATOM     27  C   UNL     1      -0.214   0.678   1.204  0.00  0.00    -0.010 A 
ATOM     28  C   UNL     1       0.832   1.515   0.873  0.00  0.00    +0.020 A 
BRANCH  23  30
ATOM     29  N   UNL     1       4.410   1.597   0.531  0.00  0.00    -0.298 N 
ATOM     30  C   UNL     1       3.168   1.867   0.083  0.00  0.00    +0.247 C 
ATOM     31  O   UNL     1       2.972   2.844  -0.613  0.00  0.00    -0.270 OA
BRANCH  29  33
ATOM     32  C   UNL     1       5.242  -0.692   0.305  0.00  0.00    +0.024 C 
ATOM     33  C   UNL     1       4.671   0.355   1.263  0.00  0.00    +0.104 C 
ENDBRANCH  29  33
BRANCH  29  34
ATOM     34  C   UNL     1       5.500   2.545   0.285  0.00  0.00    +0.104 C 
ATOM     35  C   UNL     1       5.577   3.544   1.441  0.00  0.00    +0.024 C 
ENDBRANCH  29  34
ENDBRANCH  23  30
ENDBRANCH  22  27
ENDBRANCH  21  22
ENDBRANCH   1  21
TORSDOF 8
