REMARK  Name = ZINC63478219
REMARK  7 active torsions:
REMARK  status: ('A' for Active; 'I' for Inactive)
REMARK    1  A    between atoms: C_1  and  C_2
REMARK    2  A    between atoms: C_6  and  N_8
REMARK    3  A    between atoms: C_13  and  C_34
REMARK    4  A    between atoms: C_16  and  C_21
REMARK    5  A    between atoms: C_16  and  C_31
REMARK    6  A    between atoms: C_21  and  C_22
REMARK    7  A    between atoms: C_39  and  O_40
REMARK                            x       y       z     vdW  Elec       q    Type
REMARK                         _______ _______ _______ _____ _____    ______ ____
ROOT
ATOM      1  N   UNL     1       0.226  -2.957   2.357  0.00  0.00    -0.210 N 
ATOM      2  C   UNL     1       0.194  -2.300   3.563  0.00  0.00    +0.229 C 
ATOM      3  O   UNL     1      -0.007  -1.121   3.757  0.00  0.00    -0.275 OA
ATOM      4  C   UNL     1       0.451  -3.323   4.546  0.00  0.00    +0.077 C 
ATOM      5  C   UNL     1       0.266  -3.591   5.983  0.00  0.00    -0.023 C 
ATOM      6  N   UNL     1       0.623  -5.048   6.080  0.00  0.00    +0.396 N 
ATOM      7  C   UNL     1       0.433  -5.656   4.728  0.00  0.00    +0.052 C 
ATOM      8  C   UNL     1      -0.276  -4.571   3.904  0.00  0.00    +0.086 C 
ATOM      9  C   UNL     1       0.185  -4.316   2.496  0.00  0.00    +0.229 C 
ATOM     10  O   UNL     1       0.464  -5.145   1.657  0.00  0.00    -0.275 OA
ATOM     11  H   UNL     1       1.585  -5.147   6.366  0.00  0.00    -0.083 HD
ATOM     12  H   UNL     1       0.018  -5.504   6.747  0.00  0.00    -0.083 HD
ENDROOT
BRANCH   1  18
ATOM     13  C   UNL     1       0.429   1.228  -0.218  0.00  0.00    +0.044 C 
ATOM     14  C   UNL     1       0.388  -0.277  -0.158  0.00  0.00    -0.049 A 
ATOM     15  C   UNL     1       0.411  -1.016  -1.327  0.00  0.00    +0.003 A 
ATOM     16  C   UNL     1       0.373  -2.397  -1.276  0.00  0.00    +0.002 A 
ATOM     17  C   UNL     1       0.311  -3.043  -0.057  0.00  0.00    +0.024 A 
ATOM     18  C   UNL     1       0.288  -2.304   1.119  0.00  0.00    +0.044 A 
ATOM     19  C   UNL     1       0.332  -0.917   1.064  0.00  0.00    +0.027 A 
ENDBRANCH   1  18
BRANCH   5  20
ATOM     20  C   UNL     1       1.204  -2.751   6.812  0.00  0.00    -0.019 A 
ATOM     21  C   UNL     1       2.287  -2.132   6.217  0.00  0.00    +0.005 A 
ATOM     22  C   UNL     1       3.148  -1.363   6.976  0.00  0.00    +0.000 A 
ATOM     23  C   UNL     1       2.927  -1.209   8.333  0.00  0.00    +0.004 A 
ATOM     24  C   UNL     1       1.846  -1.825   8.932  0.00  0.00    +0.045 A 
ATOM     25  C   UNL     1       0.978  -2.594   8.171  0.00  0.00    +0.118 A 
BRANCH  25  26
ATOM     26  O   UNL     1      -0.090  -3.197   8.757  0.00  0.00    -0.507 OA
ATOM     27  H   UNL     1       0.094  -4.085   9.092  0.00  0.00    +0.292 HD
ENDBRANCH  25  26
ENDBRANCH   5  20
BRANCH   7  28
ATOM     28  C   UNL     1      -0.444  -6.878   4.824  0.00  0.00    +0.347 C 
ATOM     29  O   UNL     1      -0.861  -7.246   5.909  0.00  0.00    -0.248 OA
ATOM     30  O   UNL     1      -0.737  -7.498   3.816  0.00  0.00    -0.248 OA
ENDBRANCH   7  28
BRANCH   7  31
ATOM     31  C   UNL     1       1.787  -6.021   4.117  0.00  0.00    +0.033 C 
BRANCH  31  32
ATOM     32  C   UNL     1       2.474  -7.039   4.989  0.00  0.00    -0.042 C 
ATOM     33  C   UNL     1       2.457  -8.383   4.839  0.00  0.00    -0.001 A 
ATOM     34  C   UNL     1       1.816  -9.265   3.857  0.00  0.00    +0.010 A 
ATOM     35  C   UNL     1       1.983 -10.603   3.969  0.00  0.00    +0.001 A 
ATOM     36  C   UNL     1       2.751 -11.166   4.998  0.00  0.00    +0.002 A 
ATOM     37  C   UNL     1       3.371 -10.420   5.937  0.00  0.00    +0.026 A 
ATOM     38  C   UNL     1       3.263  -9.002   5.916  0.00  0.00    +0.043 A 
ATOM     39  N   UNL     1       3.760  -8.077   6.700  0.00  0.00    -0.380 N 
ATOM     40  C   UNL     1       3.329  -6.764   6.207  0.00  0.00    +0.144 C 
ATOM     41  H   UNL     1       4.321  -8.234   7.476  0.00  0.00    +0.160 HD
ENDBRANCH  31  32
ENDBRANCH   7  31
TORSDOF 6
