REMARK  Name = ZINC33459292
REMARK  7 active torsions:
REMARK  status: ('A' for Active; 'I' for Inactive)
REMARK    1  A    between atoms: C_1  and  C_2
REMARK    2  A    between atoms: C_2  and  C_3
REMARK    3  A    between atoms: C_3  and  N_4
REMARK    4  A    between atoms: C_8  and  C_9
REMARK    5  A    between atoms: C_10  and  N_21
REMARK    6  A    between atoms: C_15  and  C_20
REMARK    7  A    between atoms: N_21  and  C_22
REMARK                            x       y       z     vdW  Elec       q    Type
REMARK                         _______ _______ _______ _____ _____    ______ ____
ROOT
ATOM      1  C   UNL     1       0.981  -4.248  -2.556  0.00  0.00    +0.081 A 
ATOM      2  C   UNL     1       0.907  -2.851  -2.770  0.00  0.00    +0.134 A 
ATOM      3  N   UNL     1       1.098  -2.366  -3.988  0.00  0.00    -0.214 NA
ATOM      4  C   UNL     1       1.370  -3.161  -5.023  0.00  0.00    +0.142 A 
ATOM      5  C   UNL     1       1.569  -2.589  -6.292  0.00  0.00    +0.047 A 
ATOM      6  C   UNL     1       1.843  -3.394  -7.357  0.00  0.00    +0.008 A 
ATOM      7  C   UNL     1       1.922  -4.781  -7.173  0.00  0.00    -0.034 A 
ATOM      8  C   UNL     1       1.727  -5.314  -5.946  0.00  0.00    +0.099 A 
ATOM      9  N   UNL     1       1.454  -4.518  -4.875  0.00  0.00    -0.267 N 
ATOM     10  C   UNL     1       1.265  -5.083  -3.663  0.00  0.00    +0.267 A 
ATOM     11  O   UNL     1       1.338  -6.292  -3.524  0.00  0.00    -0.267 OA
ATOM     12  C   UNL     1       2.224  -5.680  -8.345  0.00  0.00    +0.045 C 
ENDROOT
BRANCH   1  17
ATOM     13  N   UNL     1      -2.344  -6.711  -1.414  0.00  0.00    -0.255 N 
ATOM     14  C   UNL     1      -1.410  -5.899  -1.877  0.00  0.00    +0.258 C 
ATOM     15  O   UNL     1      -1.488  -5.429  -2.998  0.00  0.00    -0.269 OA
ATOM     16  C   UNL     1      -0.307  -5.592  -1.030  0.00  0.00    +0.077 C 
ATOM     17  C   UNL     1       0.776  -4.796  -1.268  0.00  0.00    +0.037 C 
ATOM     18  S   UNL     1      -0.731  -6.527   0.434  0.00  0.00    -0.061 S 
ATOM     19  C   UNL     1      -2.261  -7.226  -0.167  0.00  0.00    +0.121 C 
ATOM     20  S   UNL     1      -3.347  -8.280   0.634  0.00  0.00    -0.027 S 
BRANCH  13  21
ATOM     21  C   UNL     1      -3.489  -7.052  -2.261  0.00  0.00    +0.115 C 
BRANCH  21  23
ATOM     22  C   UNL     1      -5.805  -6.390  -2.925  0.00  0.00    +0.005 C 
ATOM     23  C   UNL     1      -4.609  -6.034  -2.039  0.00  0.00    +0.016 C 
ENDBRANCH  21  23
ENDBRANCH  13  21
ENDBRANCH   1  17
BRANCH   2  24
ATOM     24  N   UNL     1       0.632  -2.002  -1.720  0.00  0.00    -0.326 N 
ATOM     25  H   UNL     1       0.470  -2.409  -0.711  0.00  0.00    +0.148 HD
BRANCH  24  26
ATOM     26  C   UNL     1       0.557  -0.557  -1.948  0.00  0.00    +0.072 C 
ATOM     27  C   UNL     1      -0.328   0.083  -0.875  0.00  0.00    +0.022 C 
ATOM     28  C   UNL     1      -0.407   1.592  -1.113  0.00  0.00    +0.002 C 
ATOM     29  C   UNL     1       0.998   2.194  -1.040  0.00  0.00    +0.000 C 
ATOM     30  C   UNL     1       1.883   1.554  -2.112  0.00  0.00    +0.002 C 
ATOM     31  C   UNL     1       1.962   0.045  -1.875  0.00  0.00    +0.022 C 
ENDBRANCH  24  26
ENDBRANCH   2  24
TORSDOF 5
