REMARK  Name = ZINC05203833
REMARK  6 active torsions:
REMARK  status: ('A' for Active; 'I' for Inactive)
REMARK    1  A    between atoms: C_10  and  C_12
REMARK    2  A    between atoms: C_12  and  O_13
REMARK    3  A    between atoms: O_13  and  C_14
REMARK    4  A    between atoms: C_14  and  C_16
REMARK    5  A    between atoms: C_18  and  O_27
REMARK    6  A    between atoms: C_25  and  O_26
REMARK                            x       y       z     vdW  Elec       q    Type
REMARK                         _______ _______ _______ _____ _____    ______ ____
ROOT
ATOM      1  C   UNL     1      -3.696   5.985   0.068  0.00  0.00    +0.343 C 
ATOM      2  O   UNL     1      -4.754   5.387   0.076  0.00  0.00    -0.245 OA
ENDROOT
BRANCH   1   3
ATOM      3  C   UNL     1      -2.429   5.236   0.052  0.00  0.00    +0.104 A 
ATOM      4  C   UNL     1      -1.205   5.933   0.043  0.00  0.00    +0.064 A 
ATOM      5  C   UNL     1      -0.021   5.263   0.029  0.00  0.00    +0.126 A 
ATOM      6  C   UNL     1      -0.006   3.851   0.021  0.00  0.00    +0.027 A 
ATOM      7  C   UNL     1       1.205   3.141   0.006  0.00  0.00    +0.012 A 
ATOM      8  C   UNL     1       1.190   1.779   0.000  0.00  0.00    +0.001 A 
ATOM      9  C   UNL     1      -0.013   1.076   0.008  0.00  0.00    +0.001 A 
ATOM     10  C   UNL     1      -1.206   1.731   0.017  0.00  0.00    +0.012 A 
ATOM     11  C   UNL     1      -1.228   3.136   0.030  0.00  0.00    +0.028 A 
ATOM     12  C   UNL     1      -2.447   3.844   0.045  0.00  0.00    +0.139 A 
BRANCH  12  13
ATOM     13  O   UNL     1      -3.627   3.176   0.053  0.00  0.00    -0.505 OA
ATOM     14  H   UNL     1      -3.960   2.977   0.939  0.00  0.00    +0.292 HD
ENDBRANCH  12  13
BRANCH   5  15
ATOM     15  O   UNL     1       1.150   5.954   0.021  0.00  0.00    -0.506 OA
ATOM     16  H   UNL     1       1.480   6.159  -0.864  0.00  0.00    +0.292 HD
ENDBRANCH   5  15
ENDBRANCH   1   3
BRANCH   1  17
ATOM     17  O   UNL     1      -3.683   7.332   0.075  0.00  0.00    -0.452 OA
BRANCH  17  18
ATOM     18  C   UNL     1      -4.970   8.004   0.091  0.00  0.00    +0.328 C 
BRANCH  18  28
ATOM     19  C   UNL     1      -9.907   9.529   0.147  0.00  0.00    +0.000 A 
ATOM     20  C   UNL     1      -9.054   8.440   0.133  0.00  0.00    +0.002 A 
ATOM     21  C   UNL     1      -7.688   8.629   0.121  0.00  0.00    +0.024 A 
ATOM     22  C   UNL     1      -7.156   9.920   0.116  0.00  0.00    +0.040 A 
ATOM     23  C   UNL     1      -8.020  11.004   0.136  0.00  0.00    -0.024 A 
ATOM     24  C   UNL     1      -9.388  10.810   0.149  0.00  0.00    +0.005 A 
ATOM     25  C   UNL     1      -7.199  12.274   0.135  0.00  0.00    +0.056 C 
ATOM     26  C   UNL     1      -5.739  11.791   0.118  0.00  0.00    +0.118 C 
ATOM     27  N   UNL     1      -5.819  10.328   0.111  0.00  0.00    -0.268 N 
ATOM     28  C   UNL     1      -4.758   9.496   0.097  0.00  0.00    +0.258 C 
ATOM     29  O   UNL     1      -3.633   9.949   0.088  0.00  0.00    -0.272 OA
ENDBRANCH  18  28
ENDBRANCH  17  18
ENDBRANCH   1  17
TORSDOF 6
