REMARK  Name = ZINC33923920
REMARK  8 active torsions:
REMARK  status: ('A' for Active; 'I' for Inactive)
REMARK    1  A    between atoms: C_1  and  C_2
REMARK    2  A    between atoms: N_8  and  C_9
REMARK    3  A    between atoms: C_9  and  C_10
REMARK    4  A    between atoms: C_11  and  C_21
REMARK    5  A    between atoms: N_23  and  N_24
REMARK    6  A    between atoms: C_25  and  C_26
REMARK    7  A    between atoms: C_29  and  S_32
REMARK    8  A    between atoms: S_32  and  C_33
REMARK                            x       y       z     vdW  Elec       q    Type
REMARK                         _______ _______ _______ _____ _____    ______ ____
ROOT
ATOM      1  C   UNL     1       1.575  -1.014   2.889  0.00  0.00    +0.063 A 
ATOM      2  C   UNL     1       1.371  -2.149   3.621  0.00  0.00    +0.170 A 
ATOM      3  N   UNL     1       2.525  -2.481   4.225  0.00  0.00    -0.124 NA
ATOM      4  N   UNL     1       3.436  -1.624   3.916  0.00  0.00    -0.058 NA
ATOM      5  N   UNL     1       2.872  -0.670   3.057  0.00  0.00    -0.194 N 
ATOM      6  C   UNL     1       3.524   0.428   2.486  0.00  0.00    +0.240 A 
ATOM      7  C   UNL     1       4.934   0.782   2.675  0.00  0.00    +0.206 A 
ATOM      8  N   UNL     1       5.181   1.864   1.989  0.00  0.00    -0.032 NA
ATOM      9  O   UNL     1       3.982   2.251   1.343  0.00  0.00    -0.239 OA
ATOM     10  N   UNL     1       2.984   1.308   1.691  0.00  0.00    -0.027 NA
ATOM     11  N   UNL     1       5.851   0.084   3.453  0.00  0.00    -0.337 N 
ATOM     12  H   UNL     1       5.574  -0.714   3.930  0.00  0.00    +0.144 HD
ATOM     13  H   UNL     1       6.768   0.395   3.519  0.00  0.00    +0.144 HD
ENDROOT
BRANCH   2  14
ATOM     14  C   UNL     1       0.098  -2.886   3.731  0.00  0.00    +0.285 C 
ATOM     15  O   UNL     1      -0.887  -2.491   3.137  0.00  0.00    -0.267 OA
ATOM     16  N   UNL     1       0.027  -3.999   4.489  0.00  0.00    -0.202 N 
ATOM     17  H   UNL     1       0.812  -4.314   4.962  0.00  0.00    +0.178 HD
BRANCH  16  18
ATOM     18  N   UNL     1      -1.182  -4.699   4.593  0.00  0.00    -0.187 NA
ATOM     19  C   UNL     1      -1.284  -5.699   5.414  0.00  0.00    +0.138 C 
BRANCH  19  20
ATOM     20  C   UNL     1      -0.353  -5.818   6.550  0.00  0.00    -0.005 A 
ATOM     21  C   UNL     1      -0.265  -7.019   7.260  0.00  0.00    +0.010 A 
ATOM     22  C   UNL     1       0.607  -7.127   8.321  0.00  0.00    +0.015 A 
ATOM     23  C   UNL     1       1.398  -6.042   8.687  0.00  0.00    +0.008 A 
ATOM     24  C   UNL     1       1.312  -4.845   7.982  0.00  0.00    +0.015 A 
ATOM     25  C   UNL     1       0.448  -4.732   6.916  0.00  0.00    +0.010 A 
BRANCH  23  26
ATOM     26  S   UNL     1       2.510  -6.184  10.046  0.00  0.00    -0.129 S 
ATOM     27  C   UNL     1       3.303  -4.554  10.136  0.00  0.00    +0.090 C 
ENDBRANCH  23  26
ENDBRANCH  19  20
ENDBRANCH  16  18
ENDBRANCH   2  14
BRANCH   1  28
ATOM     28  C   UNL     1       0.554  -0.288   2.052  0.00  0.00    -0.019 C 
BRANCH  28  35
ATOM     29  C   UNL     1       0.071   1.432  -0.115  0.00  0.00    -0.013 C 
ATOM     30  C   UNL     1      -0.339  -0.042  -0.159  0.00  0.00    -0.071 C 
ATOM     31  C   UNL     1      -0.265  -0.548  -1.601  0.00  0.00    -0.016 C 
ATOM     32  C   UNL     1      -0.677  -2.022  -1.641  0.00  0.00    -0.003 C 
ATOM     33  C   UNL     1       0.229  -2.820  -0.699  0.00  0.00    -0.019 C 
ATOM     34  C   UNL     1       0.137  -2.230   0.710  0.00  0.00    -0.078 C 
ATOM     35  N   UNL     1       0.569  -0.827   0.685  0.00  0.00    +0.385 N 
ATOM     36  H   UNL     1       1.506  -0.771   0.314  0.00  0.00    -0.081 HD
ENDBRANCH  28  35
ENDBRANCH   1  28
TORSDOF 6
