REMARK  Name = ZINC14921709
REMARK  7 active torsions:
REMARK  status: ('A' for Active; 'I' for Inactive)
REMARK    1  A    between atoms: C_1  and  C_2
REMARK    2  A    between atoms: C_2  and  C_4
REMARK    3  A    between atoms: C_2  and  N_18
REMARK    4  A    between atoms: N_6  and  C_7
REMARK    5  A    between atoms: C_8  and  C_15
REMARK    6  A    between atoms: N_21  and  C_24
REMARK    7  A    between atoms: C_27  and  N_30
REMARK                            x       y       z     vdW  Elec       q    Type
REMARK                         _______ _______ _______ _____ _____    ______ ____
ROOT
ATOM      1  C   UNL     1       0.088   1.307   0.768  0.00  0.00    -0.004 C 
ATOM      2  C   UNL     1       0.020  -0.015   0.001  0.00  0.00    +0.017 C 
ENDROOT
BRANCH   2   3
ATOM      3  N   UNL     1       1.004  -0.954   0.556  0.00  0.00    +0.389 N 
ATOM      4  C   UNL     1       2.341  -0.351   0.498  0.00  0.00    -0.059 C 
ATOM      5  C   UNL     1       3.350  -1.281   1.180  0.00  0.00    +0.086 C 
ATOM      6  N   UNL     1       3.256  -2.609   0.556  0.00  0.00    -0.333 N 
ATOM      7  C   UNL     1       1.924  -3.220   0.424  0.00  0.00    +0.086 C 
ATOM      8  C   UNL     1       0.983  -2.199  -0.222  0.00  0.00    -0.059 C 
ATOM      9  H   UNL     1       0.770  -1.156   1.517  0.00  0.00    -0.081 HD
BRANCH   6  10
ATOM     10  C   UNL     1       4.399  -3.272   0.101  0.00  0.00    +0.030 A 
ATOM     11  C   UNL     1       5.656  -2.724   0.324  0.00  0.00    +0.025 A 
ATOM     12  C   UNL     1       6.783  -3.382  -0.126  0.00  0.00    +0.034 A 
ATOM     13  C   UNL     1       6.662  -4.585  -0.799  0.00  0.00    +0.126 A 
ATOM     14  C   UNL     1       5.412  -5.132  -1.023  0.00  0.00    +0.034 A 
ATOM     15  C   UNL     1       4.280  -4.482  -0.570  0.00  0.00    +0.025 A 
BRANCH  13  16
ATOM     16  N   UNL     1       7.873  -5.287  -1.280  0.00  0.00    +0.056 N 
ATOM     17  O   UNL     1       8.966  -4.809  -1.086  0.00  0.00    -0.126 OA
ATOM     18  O   UNL     1       7.768  -6.338  -1.869  0.00  0.00    -0.126 OA
ENDBRANCH  13  16
ENDBRANCH   6  10
ENDBRANCH   2   3
BRANCH   2  19
ATOM     19  C   UNL     1      -1.362  -0.601   0.131  0.00  0.00    +0.204 C 
ATOM     20  O   UNL     1      -1.608  -1.383   1.024  0.00  0.00    -0.277 OA
ATOM     21  N   UNL     1      -2.325  -0.255  -0.747  0.00  0.00    -0.281 N 
ATOM     22  H   UNL     1      -2.129   0.371  -1.461  0.00  0.00    +0.155 HD
BRANCH  21  23
ATOM     23  C   UNL     1      -3.597  -0.794  -0.628  0.00  0.00    +0.084 A 
ATOM     24  C   UNL     1      -4.698  -0.561  -1.431  0.00  0.00    +0.068 A 
ATOM     25  C   UNL     1      -5.936  -1.260  -1.091  0.00  0.00    -0.023 A 
ATOM     26  C   UNL     1      -5.837  -2.056  -0.011  0.00  0.00    -0.004 A 
ATOM     27  S   UNL     1      -4.153  -1.883   0.520  0.00  0.00    -0.077 S 
ATOM     28  C   UNL     1      -7.138  -2.747   0.297  0.00  0.00    +0.043 C 
ATOM     29  C   UNL     1      -8.201  -1.946  -0.488  0.00  0.00    +0.010 C 
ATOM     30  C   UNL     1      -7.361  -1.347  -1.634  0.00  0.00    +0.037 C 
BRANCH  24  31
ATOM     31  C   UNL     1      -4.626   0.350  -2.578  0.00  0.00    +0.244 C 
ATOM     32  O   UNL     1      -4.314  -0.076  -3.675  0.00  0.00    -0.270 OA
ATOM     33  N   UNL     1      -4.907   1.658  -2.418  0.00  0.00    -0.325 N 
ATOM     34  H   UNL     1      -5.156   1.998  -1.544  0.00  0.00    +0.145 HD
ATOM     35  H   UNL     1      -4.859   2.261  -3.177  0.00  0.00    +0.145 HD
ENDBRANCH  24  31
ENDBRANCH  21  23
ENDBRANCH   2  19
TORSDOF 6
