REMARK  Name = ZINC52594441
REMARK  9 active torsions:
REMARK  status: ('A' for Active; 'I' for Inactive)
REMARK    1  A    between atoms: C_1  and  C_2
REMARK    2  A    between atoms: C_2  and  N_3
REMARK    3  A    between atoms: C_7  and  N_10
REMARK    4  A    between atoms: C_16  and  N_19
REMARK    5  A    between atoms: C_20  and  O_22
REMARK    6  A    between atoms: O_22  and  C_23
REMARK    7  A    between atoms: C_23  and  C_24
REMARK    8  A    between atoms: C_23  and  C_25
REMARK    9  A    between atoms: C_23  and  C_26
REMARK                            x       y       z     vdW  Elec       q    Type
REMARK                         _______ _______ _______ _____ _____    ______ ____
ROOT
ATOM      1  N   UNL     1      -4.873  -3.903  -1.328  0.00  0.00    -0.298 N 
ATOM      2  C   UNL     1      -3.813  -4.604  -0.880  0.00  0.00    +0.302 C 
ATOM      3  O   UNL     1      -2.835  -4.020  -0.453  0.00  0.00    -0.253 OA
ATOM      4  N   UNL     1      -3.837  -5.951  -0.904  0.00  0.00    -0.286 N 
ATOM      5  C   UNL     1      -2.740  -6.729  -0.312  0.00  0.00    +0.111 C 
ATOM      6  C   UNL     1      -3.328  -7.729   0.688  0.00  0.00    +0.041 C 
ATOM      7  C   UNL     1      -4.395  -8.576  -0.009  0.00  0.00    +0.079 C 
ATOM      8  C   UNL     1      -5.523  -7.669  -0.507  0.00  0.00    +0.041 C 
ATOM      9  C   UNL     1      -4.963  -6.669  -1.516  0.00  0.00    +0.111 C 
ATOM     10  H   UNL     1      -5.623  -4.365  -1.736  0.00  0.00    +0.150 HD
ENDROOT
BRANCH   1  15
ATOM     11  N   UNL     1      -6.366  -0.490  -1.056  0.00  0.00    +0.381 N 
ATOM     12  C   UNL     1      -5.729   0.121  -2.229  0.00  0.00    -0.079 C 
ATOM     13  C   UNL     1      -4.257  -0.291  -2.287  0.00  0.00    -0.017 C 
ATOM     14  C   UNL     1      -4.162  -1.816  -2.390  0.00  0.00    +0.018 C 
ATOM     15  C   UNL     1      -4.894  -2.444  -1.200  0.00  0.00    +0.058 C 
ATOM     16  C   UNL     1      -6.343  -1.952  -1.183  0.00  0.00    -0.056 C 
ATOM     17  H   UNL     1      -5.866  -0.217  -0.224  0.00  0.00    -0.082 HD
BRANCH  11  19
ATOM     18  C   UNL     1      -7.781   1.478  -0.705  0.00  0.00    -0.017 C 
ATOM     19  C   UNL     1      -7.758  -0.030  -0.962  0.00  0.00    -0.082 C 
ENDBRANCH  11  19
ENDBRANCH   1  15
BRANCH   7  20
ATOM     20  N   UNL     1      -4.936  -9.555   0.936  0.00  0.00    -0.278 N 
ATOM     21  C   UNL     1      -5.483 -10.700   0.481  0.00  0.00    +0.401 C 
ATOM     22  O   UNL     1      -5.526 -10.920  -0.713  0.00  0.00    -0.226 OA
ATOM     23  H   UNL     1      -4.901  -9.380   1.889  0.00  0.00    +0.152 HD
BRANCH  21  24
ATOM     24  O   UNL     1      -5.980 -11.600   1.351  0.00  0.00    -0.445 OA
BRANCH  24  25
ATOM     25  C   UNL     1      -6.545 -12.791   0.799  0.00  0.00    +0.107 C 
ATOM     26  C   UNL     1      -5.476 -13.539  -0.001  0.00  0.00    +0.055 C 
ATOM     27  C   UNL     1      -7.054 -13.686   1.931  0.00  0.00    +0.055 C 
ATOM     28  C   UNL     1      -7.708 -12.424  -0.124  0.00  0.00    +0.055 C 
ENDBRANCH  24  25
ENDBRANCH  21  24
ENDBRANCH   7  20
TORSDOF 5
