REMARK  Name = ZINC59292906
REMARK  9 active torsions:
REMARK  status: ('A' for Active; 'I' for Inactive)
REMARK    1  A    between atoms: N_7  and  C_21
REMARK    2  A    between atoms: N_10  and  C_11
REMARK    3  A    between atoms: C_11  and  C_12
REMARK    4  A    between atoms: C_12  and  O_13
REMARK    5  A    between atoms: O_13  and  C_14
REMARK    6  A    between atoms: C_21  and  C_22
REMARK    7  A    between atoms: C_22  and  C_23
REMARK    8  A    between atoms: C_23  and  O_24
REMARK    9  A    between atoms: O_24  and  C_25
REMARK                            x       y       z     vdW  Elec       q    Type
REMARK                         _______ _______ _______ _____ _____    ______ ____
ROOT
ATOM      1  C   UNL     1      -0.017   1.373   0.010  0.00  0.00    +0.002 A 
ATOM      2  C   UNL     1       1.169   2.093   0.002  0.00  0.00    +0.002 A 
ATOM      3  C   UNL     1       2.384   1.439  -0.013  0.00  0.00    +0.028 A 
ATOM      4  C   UNL     1       2.421   0.053  -0.021  0.00  0.00    +0.068 A 
ATOM      5  C   UNL     1       1.224  -0.681  -0.013  0.00  0.00    +0.068 A 
ATOM      6  C   UNL     1       0.002  -0.004   0.002  0.00  0.00    +0.028 A 
ATOM      7  N   UNL     1       1.562  -1.998  -0.024  0.00  0.00    -0.313 N 
ATOM      8  C   UNL     1       2.866  -2.117  -0.038  0.00  0.00    +0.174 A 
ATOM      9  N   UNL     1       3.552  -3.313  -0.053  0.00  0.00    -0.330 N 
ATOM     10  N   UNL     1       3.445  -0.880  -0.037  0.00  0.00    -0.310 N 
ATOM     11  H   UNL     1       3.065  -4.152  -0.053  0.00  0.00    +0.145 HD
ATOM     12  H   UNL     1       4.522  -3.316  -0.062  0.00  0.00    +0.145 HD
ENDROOT
BRANCH  10  13
ATOM     13  C   UNL     1       4.882  -0.594  -0.049  0.00  0.00    +0.166 C 
BRANCH  13  14
ATOM     14  C   UNL     1       5.396  -0.502   1.389  0.00  0.00    +0.250 C 
BRANCH  14  15
ATOM     15  O   UNL     1       6.797  -0.223   1.377  0.00  0.00    -0.490 OA
BRANCH  15  16
ATOM     16  C   UNL     1       7.415  -0.109   2.582  0.00  0.00    +0.121 A 
ATOM     17  C   UNL     1       6.687  -0.270   3.752  0.00  0.00    +0.047 A 
ATOM     18  C   UNL     1       7.316  -0.154   4.977  0.00  0.00    +0.019 A 
ATOM     19  C   UNL     1       8.671   0.122   5.037  0.00  0.00    +0.018 A 
ATOM     20  C   UNL     1       9.398   0.282   3.871  0.00  0.00    +0.019 A 
ATOM     21  C   UNL     1       8.774   0.161   2.644  0.00  0.00    +0.047 A 
ATOM     22 BR   UNL     1       9.529   0.280   6.714  0.00  0.00    -0.050 Br
ENDBRANCH  15  16
ENDBRANCH  14  15
ENDBRANCH  13  14
ENDBRANCH  10  13
BRANCH   7  23
ATOM     23  C   UNL     1       0.612  -3.113  -0.021  0.00  0.00    +0.128 C 
BRANCH  23  24
ATOM     24  C   UNL     1       0.266  -3.493  -1.462  0.00  0.00    +0.063 C 
BRANCH  24  25
ATOM     25  C   UNL     1      -0.726  -4.658  -1.458  0.00  0.00    +0.231 C 
BRANCH  25  26
ATOM     26  O   UNL     1      -1.048  -5.013  -2.804  0.00  0.00    -0.492 OA
BRANCH  26  27
ATOM     27  C   UNL     1      -1.924  -6.038  -2.978  0.00  0.00    +0.121 A 
ATOM     28  C   UNL     1      -2.465  -6.685  -1.877  0.00  0.00    +0.047 A 
ATOM     29  C   UNL     1      -3.354  -7.727  -2.056  0.00  0.00    +0.023 A 
ATOM     30  C   UNL     1      -3.705  -8.125  -3.334  0.00  0.00    +0.041 A 
ATOM     31  C   UNL     1      -3.166  -7.482  -4.434  0.00  0.00    +0.023 A 
ATOM     32  C   UNL     1      -2.282  -6.436  -4.258  0.00  0.00    +0.047 A 
ATOM     33 CL   UNL     1      -4.823  -9.435  -3.557  0.00  0.00    -0.084 Cl
ENDBRANCH  26  27
ENDBRANCH  25  26
ENDBRANCH  24  25
ENDBRANCH  23  24
ENDBRANCH   7  23
TORSDOF 9
