REMARK  Name = ZINC39612678
REMARK  7 active torsions:
REMARK  status: ('A' for Active; 'I' for Inactive)
REMARK    1  A    between atoms: C_1  and  C_2
REMARK    2  A    between atoms: C_2  and  C_4
REMARK    3  A    between atoms: C_2  and  S_19
REMARK    4  A    between atoms: C_9  and  C_14
REMARK    5  A    between atoms: S_19  and  C_20
REMARK    6  A    between atoms: C_24  and  C_27
REMARK    7  A    between atoms: N_25  and  N_26
REMARK                            x       y       z     vdW  Elec       q    Type
REMARK                         _______ _______ _______ _____ _____    ______ ____
ROOT
ATOM      1  C   UNL     1      -0.019   1.526   0.010  0.00  0.00    +0.027 C 
ATOM      2  C   UNL     1       0.002  -0.004   0.002  0.00  0.00    +0.112 C 
ENDROOT
BRANCH   2   3
ATOM      3  C   UNL     1       0.707  -0.490  -1.238  0.00  0.00    +0.136 C 
ATOM      4  N   UNL     1       0.081  -1.324  -2.037  0.00  0.00    -0.160 NA
ATOM      5  C   UNL     1       0.646  -1.794  -3.152  0.00  0.00    +0.272 C 
ATOM      6  O   UNL     1       0.044  -2.568  -3.880  0.00  0.00    -0.268 OA
ATOM      7  C   UNL     1       2.028  -1.351  -3.486  0.00  0.00    +0.076 C 
ATOM      8  C   UNL     1       2.786  -1.721  -4.589  0.00  0.00    -0.009 C 
ATOM      9  C   UNL     1       4.171  -1.121  -4.689  0.00  0.00    +0.113 C 
ATOM     10  S   UNL     1       4.223  -0.085  -3.172  0.00  0.00    -0.100 S 
ATOM     11  C   UNL     1       2.601  -0.451  -2.549  0.00  0.00    +0.112 C 
ATOM     12  N   UNL     1       1.932  -0.058  -1.485  0.00  0.00    -0.226 NA
BRANCH   8  13
ATOM     13  C   UNL     1       2.295  -2.603  -5.558  0.00  0.00    +0.017 A 
ATOM     14  C   UNL     1       2.018  -2.365  -6.910  0.00  0.00    +0.016 A 
ATOM     15  C   UNL     1       1.541  -3.437  -7.612  0.00  0.00    +0.008 A 
ATOM     16  C   UNL     1       1.372  -4.627  -6.973  0.00  0.00    +0.046 A 
ATOM     17  S   UNL     1       1.865  -4.325  -5.395  0.00  0.00    -0.097 S 
ENDBRANCH   8  13
ENDBRANCH   2   3
BRANCH   2  18
ATOM     18  S   UNL     1      -1.700  -0.632   0.015  0.00  0.00    -0.106 S 
BRANCH  18  19
ATOM     19  C   UNL     1      -2.354  -0.095   1.619  0.00  0.00    +0.251 C 
ATOM     20  N   UNL     1      -1.508  -0.595   2.717  0.00  0.00    -0.237 N 
ATOM     21  N   UNL     1      -1.014   0.538   3.374  0.00  0.00    -0.172 NA
ATOM     22  C   UNL     1      -1.438   1.621   2.833  0.00  0.00    +0.134 C 
ATOM     23  N   UNL     1      -2.270   1.370   1.748  0.00  0.00    -0.224 N 
ATOM     24  H   UNL     1      -1.329  -1.522   2.939  0.00  0.00    +0.171 HD
BRANCH  22  25
ATOM     25  C   UNL     1      -1.079   3.002   3.317  0.00  0.00    +0.055 C 
ATOM     26  C   UNL     1      -2.168   3.509   4.264  0.00  0.00    +0.011 C 
ATOM     27  C   UNL     1      -1.804   4.912   4.756  0.00  0.00    +0.001 C 
ATOM     28  C   UNL     1      -0.467   4.861   5.497  0.00  0.00    +0.000 C 
ATOM     29  C   UNL     1       0.622   4.353   4.550  0.00  0.00    +0.001 C 
ATOM     30  C   UNL     1       0.258   2.951   4.059  0.00  0.00    +0.011 C 
ENDBRANCH  22  25
BRANCH  23  31
ATOM     31  N   UNL     1      -2.887   2.297   0.956  0.00  0.00    -0.250 NA
ATOM     32  H   UNL     1      -3.435   1.850   0.236  0.00  0.00    +0.141 HD
ATOM     33  H   UNL     1      -3.455   2.923   1.507  0.00  0.00    +0.141 HD
ENDBRANCH  23  31
ENDBRANCH  18  19
ENDBRANCH   2  18
TORSDOF 6
