REMARK  Name = ZINC00623044
REMARK  9 active torsions:
REMARK  status: ('A' for Active; 'I' for Inactive)
REMARK    1  A    between atoms: C_1  and  O_2
REMARK    2  A    between atoms: O_2  and  C_3
REMARK    3  A    between atoms: C_5  and  C_17
REMARK    4  A    between atoms: C_8  and  O_9
REMARK    5  A    between atoms: O_9  and  C_10
REMARK    6  A    between atoms: C_10  and  C_11
REMARK    7  A    between atoms: C_20  and  C_31
REMARK    8  A    between atoms: C_26  and  N_30
REMARK    9  A    between atoms: C_27  and  C_28
REMARK                            x       y       z     vdW  Elec       q    Type
REMARK                         _______ _______ _______ _____ _____    ______ ____
ROOT
ATOM      1  C   UNL     1      -4.941   0.366   0.030  0.00  0.00    +0.102 C 
ATOM      2  C   UNL     1      -5.764  -0.125   1.193  0.00  0.00    +0.054 A 
ATOM      3  C   UNL     1      -5.561   0.066   2.563  0.00  0.00    +0.100 A 
ATOM      4  N   UNL     1      -6.536  -0.548   3.207  0.00  0.00    -0.171 NA
ATOM      5  N   UNL     1      -7.384  -1.144   2.261  0.00  0.00    -0.246 N 
ATOM      6  H   UNL     1      -8.182  -1.661   2.455  0.00  0.00    +0.192 HD
ATOM      7  C   UNL     1      -6.895  -0.873   1.033  0.00  0.00    +0.223 A 
ATOM      8  O   UNL     1      -7.369  -1.231  -0.186  0.00  0.00    -0.423 OA
ATOM      9  C   UNL     1      -6.856  -0.606  -1.265  0.00  0.00    +0.200 C 
ATOM     10  C   UNL     1      -5.736   0.152  -1.234  0.00  0.00    +0.098 C 
ENDROOT
BRANCH   3  11
ATOM     11  C   UNL     1      -4.446   0.823   3.183  0.00  0.00    +0.003 A 
ATOM     12  C   UNL     1      -3.802   0.320   4.312  0.00  0.00    +0.011 A 
ATOM     13  C   UNL     1      -2.765   1.028   4.885  0.00  0.00    +0.020 A 
ATOM     14  C   UNL     1      -2.366   2.237   4.341  0.00  0.00    +0.041 A 
ATOM     15  C   UNL     1      -3.003   2.741   3.220  0.00  0.00    +0.020 A 
ATOM     16  C   UNL     1      -4.036   2.037   2.636  0.00  0.00    +0.011 A 
ATOM     17 CL   UNL     1      -1.062   3.124   5.067  0.00  0.00    -0.084 Cl
ENDBRANCH   3  11
BRANCH   1  20
ATOM     18  C   UNL     1      -1.255  -0.449  -0.102  0.00  0.00    +0.162 A 
ATOM     19  C   UNL     1      -2.442   0.262  -0.035  0.00  0.00    +0.054 A 
ATOM     20  C   UNL     1      -3.651  -0.409  -0.043  0.00  0.00    -0.031 A 
ATOM     21  C   UNL     1      -3.679  -1.789  -0.117  0.00  0.00    +0.008 A 
ATOM     22  C   UNL     1      -2.498  -2.505  -0.184  0.00  0.00    +0.050 A 
ATOM     23  C   UNL     1      -1.283  -1.838  -0.182  0.00  0.00    +0.162 A 
BRANCH  18  25
ATOM     24  C   UNL     1      -0.113   1.635  -0.011  0.00  0.00    +0.277 C 
ATOM     25  O   UNL     1      -0.065   0.209  -0.095  0.00  0.00    -0.491 OA
ENDBRANCH  18  25
BRANCH  23  26
ATOM     26  O   UNL     1      -0.120  -2.540  -0.254  0.00  0.00    -0.484 OA
BRANCH  26  27
ATOM     27  C   UNL     1      -0.226  -3.963  -0.334  0.00  0.00    +0.264 C 
BRANCH  27  28
ATOM     28  C   UNL     1       1.154  -4.565  -0.406  0.00  0.00    -0.010 A 
ATOM     29  C   UNL     1       1.758  -4.767  -1.633  0.00  0.00    +0.007 A 
ATOM     30  C   UNL     1       3.023  -5.319  -1.698  0.00  0.00    +0.000 A 
ATOM     31  C   UNL     1       3.685  -5.670  -0.536  0.00  0.00    +0.000 A 
ATOM     32  C   UNL     1       3.082  -5.468   0.691  0.00  0.00    +0.000 A 
ATOM     33  C   UNL     1       1.818  -4.911   0.756  0.00  0.00    +0.007 A 
ENDBRANCH  27  28
ENDBRANCH  26  27
ENDBRANCH  23  26
ENDBRANCH   1  20
BRANCH   9  34
ATOM     34  N   UNL     1      -7.508  -0.746  -2.465  0.00  0.00    -0.328 N 
ATOM     35  H   UNL     1      -8.314  -1.283  -2.519  0.00  0.00    +0.145 HD
ATOM     36  H   UNL     1      -7.163  -0.308  -3.258  0.00  0.00    +0.145 HD
ENDBRANCH   9  34
BRANCH  10  37
ATOM     37  C   UNL     1      -5.288   0.773  -2.444  0.00  0.00    +0.101 C 
ATOM     38  N   UNL     1      -4.933   1.266  -3.404  0.00  0.00    -0.191 NA
ENDBRANCH  10  37
TORSDOF 8
