REMARK  Name = ZINC65901605
REMARK  2 active torsions:
REMARK  status: ('A' for Active; 'I' for Inactive)
REMARK    1  A    between atoms: C_11  and  C_14
REMARK    2  A    between atoms: C_14  and  C_15
REMARK                            x       y       z     vdW  Elec       q    Type
REMARK                         _______ _______ _______ _____ _____    ______ ____
ROOT
ATOM      1  C   UNL     1      -0.016   1.358   0.009  0.00  0.00    +0.001 A 
ATOM      2  C   UNL     1       1.168   2.090   0.002  0.00  0.00    +0.001 A 
ATOM      3  C   UNL     1       2.378   1.462  -0.013  0.00  0.00    +0.009 A 
ATOM      4  C   UNL     1       2.434   0.064  -0.021  0.00  0.00    -0.007 A 
ATOM      5  C   UNL     1       1.231  -0.683  -0.013  0.00  0.00    -0.017 A 
ATOM      6  C   UNL     1       0.002  -0.004   0.002  0.00  0.00    +0.008 A 
ATOM      7  C   UNL     1       1.289  -2.090  -0.022  0.00  0.00    +0.012 A 
ATOM      8  C   UNL     1       2.477  -2.743  -0.037  0.00  0.00    +0.047 A 
ATOM      9  C   UNL     1       3.695  -2.054  -0.045  0.00  0.00    +0.136 A 
ATOM     10  C   UNL     1       3.701  -0.656  -0.038  0.00  0.00    +0.031 A 
ATOM     11  C   UNL     1       5.109  -0.263  -0.050  0.00  0.00    +0.007 A 
ATOM     12  C   UNL     1       5.815  -1.406  -0.064  0.00  0.00    +0.200 A 
ATOM     13  O   UNL     1       4.981  -2.459  -0.061  0.00  0.00    -0.463 OA
ENDROOT
BRANCH  11  14
ATOM     14  C   UNL     1       5.657   1.141  -0.048  0.00  0.00    +0.134 C 
BRANCH  14  15
ATOM     15  C   UNL     1       5.739   1.646   1.369  0.00  0.00    +0.220 C 
ATOM     16  O   UNL     1       5.386   0.937   2.287  0.00  0.00    -0.275 OA
ATOM     17  N   UNL     1       6.204   2.887   1.616  0.00  0.00    -0.299 N 
ATOM     18  C   UNL     1       6.615   3.721   0.488  0.00  0.00    +0.117 C 
ATOM     19  C   UNL     1       8.117   4.016   0.590  0.00  0.00    +0.114 C 
ATOM     20  C   UNL     1       8.322   5.136   1.585  0.00  0.00    +0.215 C 
ATOM     21  O   UNL     1       8.656   6.234   1.194  0.00  0.00    -0.276 OA
ATOM     22  N   UNL     1       8.137   4.923   2.891  0.00  0.00    -0.314 N 
ATOM     23  C   UNL     1       7.738   3.599   3.385  0.00  0.00    +0.123 C 
ATOM     24  C   UNL     1       6.271   3.349   3.000  0.00  0.00    +0.126 C 
ATOM     25  H   UNL     1       8.268   5.651   3.519  0.00  0.00    +0.149 HD
ENDBRANCH  14  15
ENDBRANCH  11  14
TORSDOF 2
