REMARK  Name = ZINC11840524
REMARK  8 active torsions:
REMARK  status: ('A' for Active; 'I' for Inactive)
REMARK    1  A    between atoms: C_1  and  N_2
REMARK    2  A    between atoms: N_2  and  C_3
REMARK    3  A    between atoms: C_3  and  C_4
REMARK    4  A    between atoms: C_9  and  C_11
REMARK    5  A    between atoms: C_14  and  S_28
REMARK    6  A    between atoms: C_17  and  C_18
REMARK    7  A    between atoms: C_17  and  N_64
REMARK    8  A    between atoms: S_28  and  C_29
REMARK                            x       y       z     vdW  Elec       q    Type
REMARK                         _______ _______ _______ _____ _____    ______ ____
ROOT
ATOM      1  C   UNL     1       1.907   0.872   0.667  0.00  0.00    +0.021 C 
ATOM      2  C   UNL     1       0.988  -0.329   0.374  0.00  0.00    +0.006 C 
ATOM      3  C   UNL     1      -0.023   0.183  -0.677  0.00  0.00    +0.037 C 
ATOM      4  C   UNL     1       0.021   1.719  -0.480  0.00  0.00    -0.063 C 
ATOM      5  N   UNL     1       1.441   1.960  -0.200  0.00  0.00    +0.391 N 
ATOM      6  H   UNL     1       1.973   1.957  -1.078  0.00  0.00    -0.080 HD
ENDROOT
BRANCH   1   9
ATOM      7  C   UNL     1       3.217  -1.236   2.036  0.00  0.00    +0.132 C 
ATOM      8  N   UNL     1       3.944  -0.489   1.006  0.00  0.00    -0.301 N 
ATOM      9  C   UNL     1       3.335   0.515   0.345  0.00  0.00    +0.202 C 
ATOM     10  O   UNL     1       3.937   1.133  -0.507  0.00  0.00    -0.277 OA
BRANCH   8  11
ATOM     11  C   UNL     1       5.333  -0.836   0.693  0.00  0.00    +0.145 C 
BRANCH  11  12
ATOM     12  C   UNL     1       6.260  -0.034   1.570  0.00  0.00    +0.008 A 
ATOM     13  C   UNL     1       6.749  -0.409   2.843  0.00  0.00    +0.046 A 
ATOM     14  C   UNL     1       7.540   0.593   3.267  0.00  0.00    +0.195 A 
ATOM     15  O   UNL     1       7.556   1.549   2.324  0.00  0.00    -0.471 OA
ATOM     16  C   UNL     1       6.785   1.172   1.290  0.00  0.00    +0.200 A 
ENDBRANCH  11  12
ENDBRANCH   8  11
ENDBRANCH   1   9
BRANCH   5  17
ATOM     17  C   UNL     1       1.626   3.278   0.479  0.00  0.00    -0.041 C 
BRANCH  17  18
ATOM     18  C   UNL     1       3.083   3.485   0.804  0.00  0.00    -0.056 A 
ATOM     19  C   UNL     1       3.530   3.325   2.080  0.00  0.00    +0.002 A 
ATOM     20  C   UNL     1       4.874   3.507   2.397  0.00  0.00    +0.001 A 
ATOM     21  C   UNL     1       5.778   3.861   1.443  0.00  0.00    +0.008 A 
ATOM     22  C   UNL     1       5.354   4.041   0.116  0.00  0.00    -0.018 A 
ATOM     23  C   UNL     1       3.987   3.850  -0.208  0.00  0.00    -0.017 A 
ATOM     24  C   UNL     1       3.562   4.031  -1.536  0.00  0.00    +0.009 A 
ATOM     25  C   UNL     1       4.466   4.385  -2.490  0.00  0.00    +0.001 A 
ATOM     26  C   UNL     1       5.810   4.572  -2.171  0.00  0.00    +0.001 A 
ATOM     27  C   UNL     1       6.258   4.407  -0.896  0.00  0.00    +0.008 A 
ENDBRANCH  17  18
ENDBRANCH   5  17
BRANCH   3  28
ATOM     28  S   UNL     1      -1.681  -0.459  -0.337  0.00  0.00    -0.086 S 
BRANCH  28  29
ATOM     29  C   UNL     1      -2.574   0.281  -1.663  0.00  0.00    +0.167 A 
ATOM     30  N   UNL     1      -3.911   0.121  -1.896  0.00  0.00    -0.333 N 
ATOM     31  H   UNL     1      -4.546  -0.429  -1.353  0.00  0.00    +0.168 HD
ATOM     32  C   UNL     1      -4.223   0.863  -3.024  0.00  0.00    +0.067 A 
ATOM     33  C   UNL     1      -5.394   1.090  -3.731  0.00  0.00    +0.028 A 
ATOM     34  C   UNL     1      -5.375   1.898  -4.849  0.00  0.00    +0.002 A 
ATOM     35  C   UNL     1      -4.192   2.485  -5.271  0.00  0.00    +0.002 A 
ATOM     36  C   UNL     1      -3.020   2.270  -4.582  0.00  0.00    +0.030 A 
ATOM     37  C   UNL     1      -3.022   1.455  -3.447  0.00  0.00    +0.090 A 
ATOM     38  N   UNL     1      -2.054   1.063  -2.578  0.00  0.00    -0.222 NA
ENDBRANCH  28  29
ENDBRANCH   3  28
TORSDOF 7
