REMARK  Name = ZINC20598676
REMARK  8 active torsions:
REMARK  status: ('A' for Active; 'I' for Inactive)
REMARK    1  A    between atoms: C_7  and  C_10
REMARK    2  A    between atoms: C_13  and  C_31
REMARK    3  A    between atoms: C_14  and  N_16
REMARK    4  A    between atoms: C_19  and  N_22
REMARK    5  A    between atoms: C_26  and  C_29
REMARK    6  A    between atoms: C_29  and  O_30
REMARK    7  A    between atoms: N_33  and  C_34
REMARK    8  A    between atoms: C_34  and  C_35
REMARK                            x       y       z     vdW  Elec       q    Type
REMARK                         _______ _______ _______ _____ _____    ______ ____
ROOT
ATOM      1  C   UNL     1      -3.760   3.298   0.036  0.00  0.00    +0.074 A 
ATOM      2  C   UNL     1      -4.778   4.253   0.107  0.00  0.00    +0.029 A 
ATOM      3  C   UNL     1      -6.084   3.847   0.132  0.00  0.00    +0.018 A 
ATOM      4  C   UNL     1      -6.361   2.472   0.098  0.00  0.00    +0.077 A 
ATOM      5  C   UNL     1      -5.290   1.562   0.032  0.00  0.00    +0.134 A 
ATOM      6  N   UNL     1      -4.042   1.999   0.004  0.00  0.00    -0.231 NA
ENDROOT
BRANCH   1  13
ATOM      7  C   UNL     1      -0.229   0.583  -0.168  0.00  0.00    +0.001 A 
ATOM      8  C   UNL     1       1.036   1.154  -0.192  0.00  0.00    +0.001 A 
ATOM      9  C   UNL     1       1.162   2.529  -0.152  0.00  0.00    +0.015 A 
ATOM     10  C   UNL     1       0.029   3.313  -0.090  0.00  0.00    +0.020 A 
ATOM     11  C   UNL     1      -1.265   2.758  -0.065  0.00  0.00    -0.002 A 
ATOM     12  C   UNL     1      -1.352   1.348  -0.112  0.00  0.00    +0.010 A 
ATOM     13  C   UNL     1      -2.350   3.737   0.003  0.00  0.00    +0.015 A 
ATOM     14  C   UNL     1      -2.037   5.057   0.035  0.00  0.00    +0.056 A 
ATOM     15  S   UNL     1      -0.256   5.063  -0.024  0.00  0.00    -0.096 S 
ENDBRANCH   1  13
BRANCH   5  16
ATOM     16  N   UNL     1      -5.544   0.203  -0.003  0.00  0.00    -0.315 N 
ATOM     17  C   UNL     1      -5.177  -0.367  -1.306  0.00  0.00    +0.105 C 
ATOM     18  C   UNL     1      -5.604  -1.835  -1.360  0.00  0.00    +0.004 C 
ATOM     19  C   UNL     1      -4.912  -2.605  -0.232  0.00  0.00    -0.066 C 
ATOM     20  C   UNL     1      -5.271  -1.962   1.110  0.00  0.00    +0.004 C 
ATOM     21  C   UNL     1      -4.854  -0.490   1.093  0.00  0.00    +0.105 C 
BRANCH  19  22
ATOM     22  N   UNL     1      -5.361  -4.004  -0.242  0.00  0.00    +0.382 N 
ATOM     23  C   UNL     1      -6.798  -4.097   0.045  0.00  0.00    -0.078 C 
ATOM     24  C   UNL     1      -7.201  -5.568   0.170  0.00  0.00    -0.018 C 
ATOM     25  C   UNL     1      -6.875  -6.294  -1.138  0.00  0.00    +0.002 C 
ATOM     26  C   UNL     1      -5.382  -6.141  -1.439  0.00  0.00    -0.002 C 
ATOM     27  C   UNL     1      -5.032  -4.653  -1.518  0.00  0.00    -0.073 C 
ATOM     28  H   UNL     1      -4.825  -4.539   0.555  0.00  0.00    -0.081 HD
BRANCH  26  29
ATOM     29  C   UNL     1      -5.058  -6.813  -2.775  0.00  0.00    +0.157 C 
BRANCH  29  30
ATOM     30  O   UNL     1      -5.275  -8.221  -2.665  0.00  0.00    -0.395 OA
ATOM     31  H   UNL     1      -5.093  -8.875  -3.531  0.00  0.00    +0.209 HD
ENDBRANCH  29  30
ENDBRANCH  26  29
ENDBRANCH  19  22
ENDBRANCH   5  16
BRANCH   4  32
ATOM     32  C   UNL     1      -7.750   1.988   0.128  0.00  0.00    +0.248 C 
ATOM     33  O   UNL     1      -7.978   0.796   0.204  0.00  0.00    -0.270 OA
ATOM     34  N   UNL     1      -8.771   2.867   0.073  0.00  0.00    -0.306 N 
ATOM     35  H   UNL     1      -8.565   3.946   0.004  0.00  0.00    +0.149 HD
BRANCH  34  36
ATOM     36  C   UNL     1     -10.154   2.386   0.103  0.00  0.00    +0.163 C 
BRANCH  36  37
ATOM     37  C   UNL     1     -11.096   3.560   0.029  0.00  0.00    +0.101 A 
ATOM     38  C   UNL     1     -11.702   4.087  -1.135  0.00  0.00    +0.069 A 
ATOM     39  C   UNL     1     -12.447   5.121  -0.676  0.00  0.00    +0.230 A 
ATOM     40  O   UNL     1     -12.263   5.162   0.651  0.00  0.00    -0.363 OA
ATOM     41  N   UNL     1     -11.517   4.287   1.024  0.00  0.00    -0.082 NA
ENDBRANCH  36  37
ENDBRANCH  34  36
ENDBRANCH   4  32
TORSDOF 8
