REMARK  Name = ZINC09980569
REMARK  8 active torsions:
REMARK  status: ('A' for Active; 'I' for Inactive)
REMARK    1  A    between atoms: C_1  and  C_2
REMARK    2  A    between atoms: C_3  and  C_7
REMARK    3  A    between atoms: C_10  and  S_13
REMARK    4  A    between atoms: N_11  and  C_12
REMARK    5  A    between atoms: S_13  and  C_14
REMARK    6  A    between atoms: C_14  and  C_15
REMARK    7  A    between atoms: N_17  and  C_18
REMARK    8  A    between atoms: C_19  and  C_28
REMARK                            x       y       z     vdW  Elec       q    Type
REMARK                         _______ _______ _______ _____ _____    ______ ____
ROOT
ATOM      1  C   UNL     1      -5.840   2.617   0.030  0.00  0.00    +0.228 C 
ATOM      2  O   UNL     1      -5.694   2.421  -1.158  0.00  0.00    -0.275 OA
ATOM      3  N   UNL     1      -7.054   2.943   0.515  0.00  0.00    -0.278 N 
ATOM      4  H   UNL     1      -7.171   3.100   1.466  0.00  0.00    +0.155 HD
ENDROOT
BRANCH   3   5
ATOM      5  C   UNL     1      -8.138   3.056  -0.344  0.00  0.00    +0.090 A 
ATOM      6  C   UNL     1      -9.451   3.373  -0.038  0.00  0.00    +0.084 A 
ATOM      7  C   UNL     1     -10.408   3.434  -1.134  0.00  0.00    -0.018 A 
ATOM      8  C   UNL     1      -9.896   3.151  -2.352  0.00  0.00    -0.004 A 
ATOM      9  S   UNL     1      -8.179   2.826  -2.061  0.00  0.00    -0.077 S 
ATOM     10  C   UNL     1     -10.621   3.106  -3.661  0.00  0.00    +0.043 C 
ATOM     11  C   UNL     1     -11.466   4.377  -3.816  0.00  0.00    +0.005 C 
ATOM     12  C   UNL     1     -12.843   4.118  -3.211  0.00  0.00    +0.001 C 
ATOM     13  C   UNL     1     -12.724   3.165  -2.023  0.00  0.00    +0.005 C 
ATOM     14  C   UNL     1     -11.874   3.790  -0.923  0.00  0.00    +0.037 C 
BRANCH   6  15
ATOM     15  C   UNL     1      -9.853   3.635   1.311  0.00  0.00    +0.102 C 
ATOM     16  N   UNL     1     -10.172   3.844   2.381  0.00  0.00    -0.191 NA
ENDBRANCH   6  15
ENDBRANCH   3   5
BRANCH   1  17
ATOM     17  C   UNL     1      -4.663   2.495   0.964  0.00  0.00    +0.173 C 
BRANCH  17  18
ATOM     18  S   UNL     1      -3.186   2.049   0.018  0.00  0.00    -0.077 S 
BRANCH  18  22
ATOM     19  C   UNL     1      -0.152   1.746   2.461  0.00  0.00    +0.168 A 
ATOM     20  N   UNL     1      -1.139   2.066   3.265  0.00  0.00    -0.128 NA
ATOM     21  N   UNL     1      -2.227   2.197   2.593  0.00  0.00    -0.122 NA
ATOM     22  C   UNL     1      -2.000   1.976   1.319  0.00  0.00    +0.192 A 
ATOM     23  N   UNL     1      -0.672   1.675   1.190  0.00  0.00    -0.305 N 
ATOM     24  C   UNL     1       0.046   1.350  -0.044  0.00  0.00    +0.153 C 
BRANCH  19  27
ATOM     25  C   UNL     1       1.583   3.544   4.354  0.00  0.00    +0.087 C 
ATOM     26  C   UNL     1       2.023   2.276   3.668  0.00  0.00    +0.112 A 
ATOM     27  C   UNL     1       1.256   1.508   2.849  0.00  0.00    +0.060 A 
ATOM     28  C   UNL     1       2.116   0.396   2.425  0.00  0.00    +0.053 A 
ATOM     29  C   UNL     1       3.302   0.596   3.025  0.00  0.00    +0.196 A 
ATOM     30  O   UNL     1       3.236   1.713   3.764  0.00  0.00    -0.467 OA
ENDBRANCH  19  27
ENDBRANCH  18  22
ENDBRANCH  17  18
ENDBRANCH   1  17
TORSDOF 6
