REMARK  Name = ZINC47011472
REMARK  7 active torsions:
REMARK  status: ('A' for Active; 'I' for Inactive)
REMARK    1  A    between atoms: C_1  and  C_2
REMARK    2  A    between atoms: N_11  and  C_12
REMARK    3  A    between atoms: C_12  and  C_13
REMARK    4  A    between atoms: C_13  and  C_15
REMARK    5  A    between atoms: C_13  and  N_16
REMARK    6  A    between atoms: C_18  and  C_25
REMARK    7  A    between atoms: C_21  and  C_24
REMARK                            x       y       z     vdW  Elec       q    Type
REMARK                         _______ _______ _______ _____ _____    ______ ____
ROOT
ATOM      1  C   UNL     1      -3.007  -2.515   2.156  0.00  0.00    +0.009 C 
ATOM      2  C   UNL     1      -1.581  -1.982   2.303  0.00  0.00    +0.003 C 
ATOM      3  C   UNL     1      -1.586  -0.459   2.153  0.00  0.00    +0.006 C 
ATOM      4  C   UNL     1      -0.164   0.078   2.332  0.00  0.00    +0.019 C 
ATOM      5  C   UNL     1       0.741  -0.512   1.246  0.00  0.00    +0.109 C 
ATOM      6  N   UNL     1       0.639  -1.977   1.290  0.00  0.00    -0.285 N 
ATOM      7  C   UNL     1      -0.692  -2.596   1.217  0.00  0.00    +0.112 C 
ATOM      8  C   UNL     1       1.746  -2.740   1.395  0.00  0.00    +0.302 C 
ATOM      9  O   UNL     1       2.845  -2.222   1.362  0.00  0.00    -0.253 OA
ATOM     10  N   UNL     1       1.633  -4.075   1.536  0.00  0.00    -0.298 N 
ATOM     11  H   UNL     1       0.760  -4.496   1.489  0.00  0.00    +0.150 HD
ENDROOT
BRANCH  10  12
ATOM     12  C   UNL     1       2.828  -4.891   1.762  0.00  0.00    +0.124 C 
BRANCH  12  13
ATOM     13  C   UNL     1       2.425  -6.362   1.887  0.00  0.00    +0.071 C 
ATOM     14  C   UNL     1       3.682  -7.227   1.998  0.00  0.00    +0.026 C 
BRANCH  13  15
ATOM     15  N   UNL     1       1.658  -6.762   0.700  0.00  0.00    -0.293 NA
ATOM     16  C   UNL     1       2.501  -6.739  -0.505  0.00  0.00    +0.116 C 
ATOM     17  C   UNL     1       1.650  -7.103  -1.724  0.00  0.00    +0.130 C 
ATOM     18  O   UNL     1       1.045  -8.382  -1.511  0.00  0.00    -0.371 OA
ATOM     19  C   UNL     1       0.217  -8.440  -0.347  0.00  0.00    +0.130 C 
ATOM     20  C   UNL     1       1.053  -8.089   0.886  0.00  0.00    +0.116 C 
ATOM     21  C   UNL     1      -0.351  -9.853  -0.195  0.00  0.00    +0.039 C 
ATOM     22  C   UNL     1       2.537  -7.157  -2.969  0.00  0.00    +0.039 C 
ENDBRANCH  13  15
ENDBRANCH  12  13
ENDBRANCH  10  12
TORSDOF 3
