REMARK  Name = ZINC27529044
REMARK  13 active torsions:
REMARK  status: ('A' for Active; 'I' for Inactive)
REMARK    1  A    between atoms: C_1  and  O_2
REMARK    2  A    between atoms: O_2  and  C_3
REMARK    3  A    between atoms: C_6  and  N_13
REMARK    4  A    between atoms: C_7  and  O_11
REMARK    5  A    between atoms: C_8  and  O_9
REMARK    6  A    between atoms: O_9  and  C_10
REMARK    7  A    between atoms: O_11  and  C_12
REMARK    8  A    between atoms: N_16  and  C_19
REMARK    9  A    between atoms: C_19  and  C_20
REMARK   10  A    between atoms: C_20  and  C_21
REMARK   11  A    between atoms: C_24  and  N_27
REMARK   12  A    between atoms: N_27  and  C_28
REMARK   13  A    between atoms: C_28  and  C_29
REMARK                            x       y       z     vdW  Elec       q    Type
REMARK                         _______ _______ _______ _____ _____    ______ ____
ROOT
ATOM      1  C   UNL     1       2.452   3.935  -0.000  0.00  0.00    +0.016 C 
ENDROOT
BRANCH   1   2
ATOM      2  C   UNL     1       1.156   3.166   0.008  0.00  0.00    -0.049 A 
ATOM      3  C   UNL     1       1.173   1.783   0.000  0.00  0.00    +0.005 A 
ATOM      4  C   UNL     1      -0.013   1.076   0.008  0.00  0.00    +0.023 A 
ATOM      5  C   UNL     1      -1.224   1.755   0.017  0.00  0.00    +0.027 A 
ATOM      6  C   UNL     1      -1.239   3.144   0.030  0.00  0.00    +0.023 A 
ATOM      7  C   UNL     1      -0.049   3.845   0.023  0.00  0.00    +0.005 A 
BRANCH   5   8
ATOM      8  N   UNL     1      -2.426   1.042   0.019  0.00  0.00    -0.343 N 
ATOM      9  H   UNL     1      -2.413  -0.058   0.013  0.00  0.00    +0.146 HD
BRANCH   8  10
ATOM     10  C   UNL     1      -3.703   1.760   0.029  0.00  0.00    +0.109 C 
BRANCH  10  11
ATOM     11  C   UNL     1      -4.854   0.752   0.029  0.00  0.00    +0.060 C 
ATOM     12  C   UNL     1      -4.883  -0.052   1.349  0.00  0.00    +0.129 C 
ATOM     13  C   UNL     1      -6.014   0.557   2.149  0.00  0.00    +0.308 C 
ATOM     14  O   UNL     1      -6.380   0.175   3.235  0.00  0.00    -0.251 OA
ATOM     15  O   UNL     1      -6.549   1.585   1.473  0.00  0.00    -0.458 OA
ATOM     16  C   UNL     1      -6.216   1.473   0.062  0.00  0.00    +0.118 C 
ATOM     17  C   UNL     1      -7.264   0.641  -0.671  0.00  0.00    +0.048 C 
ATOM     18  C   UNL     1      -8.614   1.360  -0.621  0.00  0.00    +0.004 C 
ATOM     19  C   UNL     1      -8.483   2.736  -1.277  0.00  0.00    +0.000 C 
ATOM     20  C   UNL     1      -7.445   3.567  -0.520  0.00  0.00    +0.004 C 
ATOM     21  C   UNL     1      -6.090   2.856  -0.570  0.00  0.00    +0.048 C 
ENDBRANCH  10  11
ENDBRANCH   8  10
ENDBRANCH   5   8
ENDBRANCH   1   2
BRANCH   1  22
ATOM     22  C   UNL     1       2.877   4.203  -1.445  0.00  0.00    -0.074 C 
BRANCH  22  26
ATOM     23  N   UNL     1       5.871   7.085  -2.200  0.00  0.00    -0.331 N 
ATOM     24  C   UNL     1       6.053   5.740  -2.763  0.00  0.00    +0.086 C 
ATOM     25  C   UNL     1       4.702   5.023  -2.810  0.00  0.00    -0.060 C 
ATOM     26  N   UNL     1       4.140   4.952  -1.453  0.00  0.00    +0.382 N 
ATOM     27  C   UNL     1       3.958   6.297  -0.891  0.00  0.00    -0.060 C 
ATOM     28  C   UNL     1       5.309   7.014  -0.844  0.00  0.00    +0.086 C 
ATOM     29  H   UNL     1       4.856   4.412  -0.817  0.00  0.00    -0.082 HD
BRANCH  23  33
ATOM     30  C   UNL     1       9.466   9.211  -2.220  0.00  0.00    +0.165 A 
ATOM     31  C   UNL     1       9.366   8.021  -1.518  0.00  0.00    +0.051 A 
ATOM     32  C   UNL     1       8.175   7.317  -1.511  0.00  0.00    +0.030 A 
ATOM     33  C   UNL     1       7.077   7.801  -2.208  0.00  0.00    +0.076 A 
ATOM     34  C   UNL     1       7.175   8.993  -2.918  0.00  0.00    +0.186 A 
ATOM     35  C   UNL     1       8.369   9.701  -2.920  0.00  0.00    +0.205 A 
BRANCH  30  37
ATOM     36  C   UNL     1      11.725   9.340  -1.484  0.00  0.00    +0.277 C 
ATOM     37  O   UNL     1      10.639   9.902  -2.224  0.00  0.00    -0.491 OA
ENDBRANCH  30  37
BRANCH  35  38
ATOM     38  O   UNL     1       8.467  10.870  -3.610  0.00  0.00    -0.488 OA
ATOM     39  C   UNL     1       8.888  10.786  -4.973  0.00  0.00    +0.277 C 
ENDBRANCH  35  38
BRANCH  34  40
ATOM     40  O   UNL     1       6.101   9.467  -3.607  0.00  0.00    -0.490 OA
ATOM     41  C   UNL     1       5.212  10.338  -2.904  0.00  0.00    +0.277 C 
ENDBRANCH  34  40
ENDBRANCH  23  33
ENDBRANCH  22  26
ENDBRANCH   1  22
TORSDOF 10
