REMARK  Name = ZINC13807211
REMARK  8 active torsions:
REMARK  status: ('A' for Active; 'I' for Inactive)
REMARK    1  A    between atoms: C_1  and  C_2
REMARK    2  A    between atoms: C_2  and  C_4
REMARK    3  A    between atoms: C_2  and  N_10
REMARK    4  A    between atoms: C_11  and  C_13
REMARK    5  A    between atoms: C_13  and  C_36
REMARK    6  A    between atoms: N_15  and  C_30
REMARK    7  A    between atoms: C_19  and  C_20
REMARK    8  A    between atoms: C_23  and  N_26
REMARK                            x       y       z     vdW  Elec       q    Type
REMARK                         _______ _______ _______ _____ _____    ______ ____
ROOT
ATOM      1  C   UNL     1      -5.581   9.073   1.440  0.00  0.00    +0.144 C 
ATOM      2  C   UNL     1      -5.385   7.984   0.586  0.00  0.00    +0.111 A 
ATOM      3  N   UNL     1      -4.373   7.781  -0.319  0.00  0.00    -0.269 N 
ATOM      4  C   UNL     1      -4.332   6.681  -1.053  0.00  0.00    +0.270 A 
ATOM      5  O   UNL     1      -3.439   6.484  -1.855  0.00  0.00    -0.266 OA
ATOM      6  C   UNL     1      -5.425   5.707  -0.858  0.00  0.00    +0.079 A 
ATOM      7  C   UNL     1      -5.635   4.514  -1.470  0.00  0.00    +0.028 C 
ATOM      8  S   UNL     1      -6.391   6.519   0.407  0.00  0.00    -0.064 S 
ENDROOT
BRANCH   7   9
ATOM      9  C   UNL     1      -4.813   4.126  -2.625  0.00  0.00    -0.024 A 
ATOM     10  C   UNL     1      -4.447   5.081  -3.580  0.00  0.00    +0.010 A 
ATOM     11  C   UNL     1      -3.676   4.708  -4.661  0.00  0.00    +0.033 A 
ATOM     12  C   UNL     1      -3.266   3.394  -4.803  0.00  0.00    +0.126 A 
ATOM     13  C   UNL     1      -3.628   2.442  -3.866  0.00  0.00    +0.033 A 
ATOM     14  C   UNL     1      -4.393   2.799  -2.776  0.00  0.00    +0.010 A 
BRANCH  12  15
ATOM     15  N   UNL     1      -2.439   3.002  -5.967  0.00  0.00    +0.056 N 
ATOM     16  O   UNL     1      -2.122   3.836  -6.797  0.00  0.00    -0.126 OA
ATOM     17  O   UNL     1      -2.072   1.848  -6.093  0.00  0.00    -0.126 OA
ENDBRANCH  12  15
ENDBRANCH   7   9
BRANCH   3  18
ATOM     18  C   UNL     1      -3.368   8.746  -0.462  0.00  0.00    +0.051 A 
ATOM     19  C   UNL     1      -3.590   9.871  -1.246  0.00  0.00    +0.026 A 
ATOM     20  C   UNL     1      -2.599  10.823  -1.381  0.00  0.00    +0.002 A 
ATOM     21  C   UNL     1      -1.383  10.652  -0.745  0.00  0.00    +0.000 A 
ATOM     22  C   UNL     1      -1.157   9.531   0.032  0.00  0.00    +0.002 A 
ATOM     23  C   UNL     1      -2.146   8.577   0.174  0.00  0.00    +0.026 A 
ENDBRANCH   3  18
BRANCH   1  25
ATOM     24  N   UNL     1      -3.511  10.146   2.139  0.00  0.00    -0.304 N 
ATOM     25  C   UNL     1      -4.647  10.197   1.416  0.00  0.00    +0.257 C 
ATOM     26  O   UNL     1      -4.896  11.181   0.743  0.00  0.00    -0.269 OA
ATOM     27  H   UNL     1      -3.285   9.341   2.631  0.00  0.00    +0.150 HD
BRANCH  24  29
ATOM     28  C   UNL     1      -3.131  12.309   3.215  0.00  0.00    +0.033 C 
ATOM     29  C   UNL     1      -2.616  11.305   2.182  0.00  0.00    +0.100 C 
BRANCH  29  30
ATOM     30  C   UNL     1      -1.230  10.855   2.565  0.00  0.00    -0.027 A 
ATOM     31  C   UNL     1      -1.061   9.892   3.542  0.00  0.00    +0.005 A 
ATOM     32  C   UNL     1       0.211   9.477   3.892  0.00  0.00    +0.000 A 
ATOM     33  C   UNL     1       1.314  10.031   3.269  0.00  0.00    +0.000 A 
ATOM     34  C   UNL     1       1.145  10.998   2.296  0.00  0.00    +0.000 A 
ATOM     35  C   UNL     1      -0.126  11.411   1.944  0.00  0.00    +0.005 A 
ENDBRANCH  29  30
ENDBRANCH  24  29
ENDBRANCH   1  25
BRANCH   1  36
ATOM     36  C   UNL     1      -6.696   9.087   2.338  0.00  0.00    +0.107 C 
ATOM     37  N   UNL     1      -7.580   9.098   3.051  0.00  0.00    -0.191 NA
ENDBRANCH   1  36
TORSDOF 7
