REMARK  Name = ZINC60511552
REMARK  7 active torsions:
REMARK  status: ('A' for Active; 'I' for Inactive)
REMARK    1  A    between atoms: C_1  and  S_2
REMARK    2  A    between atoms: S_2  and  C_5
REMARK    3  A    between atoms: C_8  and  N_11
REMARK    4  A    between atoms: C_12  and  C_16
REMARK    5  A    between atoms: C_16  and  S_17
REMARK    6  A    between atoms: S_17  and  C_18
REMARK    7  A    between atoms: N_19  and  C_20
REMARK                            x       y       z     vdW  Elec       q    Type
REMARK                         _______ _______ _______ _____ _____    ______ ____
ROOT
ATOM      1  N   UNL     1       2.841  -1.462  -4.998  0.00  0.00    -0.196 N 
ATOM      2  C   UNL     1       4.073  -1.067  -5.386  0.00  0.00    +0.167 A 
ATOM      3  N   UNL     1       4.309  -1.619  -6.548  0.00  0.00    -0.112 NA
ATOM      4  N   UNL     1       3.310  -2.335  -6.920  0.00  0.00    -0.023 NA
ATOM      5  N   UNL     1       2.379  -2.297  -6.029  0.00  0.00    -0.039 NA
ENDROOT
BRANCH   1   9
ATOM      6  C   UNL     1       0.845  -0.437  -1.483  0.00  0.00    +0.088 A 
ATOM      7  C   UNL     1       0.133  -0.612  -2.655  0.00  0.00    +0.029 A 
ATOM      8  C   UNL     1       0.791  -0.952  -3.821  0.00  0.00    +0.030 A 
ATOM      9  C   UNL     1       2.170  -1.117  -3.815  0.00  0.00    +0.069 A 
ATOM     10  C   UNL     1       2.882  -0.940  -2.637  0.00  0.00    +0.030 A 
ATOM     11  C   UNL     1       2.219  -0.596  -1.476  0.00  0.00    +0.029 A 
BRANCH   6  13
ATOM     12  C   UNL     1      -0.022   1.810   0.012  0.00  0.00    +0.200 C 
ATOM     13  S   UNL     1       0.002  -0.004   0.002  0.00  0.00    -0.006 S 
ATOM     14  O   UNL     1       0.835  -0.488   1.046  0.00  0.00    -0.170 OA
ATOM     15  O   UNL     1      -1.315  -0.510  -0.168  0.00  0.00    -0.170 OA
ENDBRANCH   6  13
ENDBRANCH   1   9
BRANCH   2  16
ATOM     16  C   UNL     1       5.003  -0.159  -4.623  0.00  0.00    +0.155 C 
BRANCH  16  17
ATOM     17  S   UNL     1       6.058  -1.153  -3.533  0.00  0.00    -0.085 S 
BRANCH  17  18
ATOM     18  C   UNL     1       7.073   0.037  -2.721  0.00  0.00    +0.126 C 
ATOM     19  N   UNL     1       7.964  -0.350  -1.851  0.00  0.00    -0.365 N 
ATOM     20  N   UNL     1       6.926   1.375  -3.006  0.00  0.00    -0.339 N 
ATOM     21  H   UNL     1       6.263   1.663  -3.653  0.00  0.00    +0.144 HD
ATOM     22  H   UNL     1       7.484   2.030  -2.559  0.00  0.00    +0.144 HD
ATOM     23  H   UNL     1       8.068  -1.293  -1.651  0.00  0.00    +0.162 HD
BRANCH  19  24
ATOM     24  C   UNL     1       8.808   0.639  -1.177  0.00  0.00    +0.081 C 
ATOM     25  C   UNL     1      10.019   0.960  -2.055  0.00  0.00    +0.024 C 
ATOM     26  C   UNL     1      10.900   1.994  -1.350  0.00  0.00    +0.002 C 
ATOM     27  C   UNL     1      11.377   1.429  -0.011  0.00  0.00    +0.000 C 
ATOM     28  C   UNL     1      10.166   1.108   0.868  0.00  0.00    +0.002 C 
ATOM     29  C   UNL     1       9.284   0.075   0.163  0.00  0.00    +0.024 C 
ENDBRANCH  19  24
ENDBRANCH  17  18
ENDBRANCH  16  17
ENDBRANCH   2  16
TORSDOF 6
