REMARK  Name = ZINC43525779
REMARK  8 active torsions:
REMARK  status: ('A' for Active; 'I' for Inactive)
REMARK    1  A    between atoms: C_1  and  C_2
REMARK    2  A    between atoms: C_2  and  C_3
REMARK    3  A    between atoms: C_2  and  N_4
REMARK    4  A    between atoms: N_7  and  C_8
REMARK    5  A    between atoms: C_8  and  C_9
REMARK    6  A    between atoms: C_18  and  C_20
REMARK    7  A    between atoms: C_22  and  C_26
REMARK    8  A    between atoms: N_24  and  C_25
REMARK                            x       y       z     vdW  Elec       q    Type
REMARK                         _______ _______ _______ _____ _____    ______ ____
ROOT
ATOM      1  C   UNL     1       0.829  -1.756   5.846  0.00  0.00    -0.051 C 
ATOM      2  C   UNL     1       0.169  -2.002   7.204  0.00  0.00    -0.010 C 
ATOM      3  C   UNL     1       0.327  -3.484   7.570  0.00  0.00    -0.007 C 
ATOM      4  C   UNL     1      -0.349  -4.327   6.480  0.00  0.00    -0.015 C 
ATOM      5  C   UNL     1       0.306  -4.010   5.134  0.00  0.00    -0.078 C 
ATOM      6  N   UNL     1       1.397  -3.005   5.332  0.00  0.00    +0.383 N 
ATOM      7  C   UNL     1       2.430  -3.512   6.238  0.00  0.00    -0.068 C 
ATOM      8  C   UNL     1       1.824  -3.816   7.608  0.00  0.00    +0.024 C 
ATOM      9  H   UNL     1       1.829  -2.816   4.440  0.00  0.00    -0.081 HD
ENDROOT
BRANCH   8  10
ATOM     10  C   UNL     1       2.010  -5.277   7.929  0.00  0.00    +0.041 A 
ATOM     11  C   UNL     1       1.994  -6.293   7.040  0.00  0.00    +0.053 A 
ATOM     12  C   UNL     1       2.205  -7.492   7.750  0.00  0.00    +0.100 A 
ATOM     13  N   UNL     1       2.342  -7.188   9.025  0.00  0.00    -0.171 NA
ATOM     14  N   UNL     1       2.228  -5.798   9.155  0.00  0.00    -0.271 N 
ATOM     15  C   UNL     1       2.325  -5.041  10.406  0.00  0.00    +0.172 C 
BRANCH  12  16
ATOM     16  C   UNL     1       2.263  -8.851   7.168  0.00  0.00    +0.039 A 
ATOM     17  C   UNL     1       2.458 -10.051   7.797  0.00  0.00    +0.018 A 
ATOM     18  C   UNL     1       2.472 -11.201   7.039  0.00  0.00    +0.008 A 
ATOM     19  C   UNL     1       2.293 -11.111   5.696  0.00  0.00    +0.046 A 
ATOM     20  S   UNL     1       2.087  -9.353   5.464  0.00  0.00    -0.095 S 
ENDBRANCH  12  16
ENDBRANCH   8  10
BRANCH   1  21
ATOM     21  C   UNL     1      -0.216  -1.230   4.860  0.00  0.00    +0.090 C 
BRANCH  21  25
ATOM     22  N   UNL     1       0.202  -0.535   1.274  0.00  0.00    -0.297 N 
ATOM     23  C   UNL     1      -0.352  -0.654   2.497  0.00  0.00    +0.300 C 
ATOM     24  O   UNL     1      -1.519  -0.356   2.667  0.00  0.00    -0.253 OA
ATOM     25  N   UNL     1       0.386  -1.102   3.531  0.00  0.00    -0.301 N 
ATOM     26  H   UNL     1       1.133  -0.772   1.139  0.00  0.00    +0.150 HD
ATOM     27  H   UNL     1       1.317  -1.339   3.396  0.00  0.00    +0.150 HD
BRANCH  22  29
ATOM     28  C   UNL     1      -0.591   1.482   0.141  0.00  0.00    +0.027 C 
ATOM     29  C   UNL     1      -0.601  -0.048   0.150  0.00  0.00    +0.068 C 
ATOM     30  C   UNL     1      -0.010  -0.569  -1.162  0.00  0.00    +0.027 C 
ENDBRANCH  22  29
ENDBRANCH  21  25
ENDBRANCH   1  21
TORSDOF 5
