REMARK  Name = ZINC13139225
REMARK  12 active torsions:
REMARK  status: ('A' for Active; 'I' for Inactive)
REMARK    1  A    between atoms: C_1  and  C_2
REMARK    2  A    between atoms: C_4  and  C_23
REMARK    3  A    between atoms: C_7  and  C_13
REMARK    4  A    between atoms: N_11  and  O_12
REMARK    5  A    between atoms: C_15  and  O_21
REMARK    6  A    between atoms: C_18  and  O_19
REMARK    7  A    between atoms: O_19  and  C_20
REMARK    8  A    between atoms: O_21  and  C_22
REMARK    9  A    between atoms: C_25  and  O_31
REMARK   10  A    between atoms: C_28  and  O_29
REMARK   11  A    between atoms: O_29  and  C_30
REMARK   12  A    between atoms: O_31  and  C_32
REMARK                            x       y       z     vdW  Elec       q    Type
REMARK                         _______ _______ _______ _____ _____    ______ ____
ROOT
ATOM      1  C   UNL     1      -2.107   4.502  -2.337  0.00  0.00    +0.012 C 
ATOM      2  C   UNL     1      -3.139   3.914  -1.372  0.00  0.00    +0.024 C 
ATOM      3  C   UNL     1      -2.557   3.875   0.046  0.00  0.00    -0.028 C 
ATOM      4  N   UNL     1      -2.345   5.247   0.525  0.00  0.00    +0.389 N 
ATOM      5  C   UNL     1      -3.615   5.967   0.679  0.00  0.00    -0.031 C 
ATOM      6  C   UNL     1      -4.269   6.149  -0.696  0.00  0.00    +0.043 C 
ATOM      7  C   UNL     1      -4.375   4.788  -1.353  0.00  0.00    +0.058 C 
ATOM      8  N   UNL     1      -5.474   4.391  -1.874  0.00  0.00    -0.096 NA
ATOM      9  H   UNL     1      -1.839   5.221   1.501  0.00  0.00    -0.084 HD
ATOM     10  H   UNL     1      -1.720   5.795  -0.197  0.00  0.00    -0.084 HD
ENDROOT
BRANCH   5  11
ATOM     11  C   UNL     1      -3.355   7.318   1.294  0.00  0.00    -0.016 A 
ATOM     12  C   UNL     1      -2.118   7.916   1.151  0.00  0.00    +0.051 A 
ATOM     13  C   UNL     1      -1.879   9.159   1.717  0.00  0.00    +0.121 A 
ATOM     14  C   UNL     1      -2.882   9.803   2.426  0.00  0.00    +0.049 A 
ATOM     15  C   UNL     1      -4.119   9.206   2.568  0.00  0.00    +0.049 A 
ATOM     16  C   UNL     1      -4.360   7.964   1.999  0.00  0.00    +0.122 A 
BRANCH  16  17
ATOM     17  O   UNL     1      -5.580   7.379   2.135  0.00  0.00    -0.495 OA
ATOM     18  C   UNL     1      -6.567   8.101   2.873  0.00  0.00    +0.277 C 
ENDBRANCH  16  17
BRANCH  13  19
ATOM     19  O   UNL     1      -0.661   9.747   1.577  0.00  0.00    -0.495 OA
ATOM     20  C   UNL     1      -0.485  11.028   2.185  0.00  0.00    +0.277 C 
ENDBRANCH  13  19
ENDBRANCH   5  11
BRANCH   3  21
ATOM     21  C   UNL     1      -1.242   3.140   0.030  0.00  0.00    -0.016 A 
ATOM     22  C   UNL     1      -0.055   3.847   0.023  0.00  0.00    +0.051 A 
ATOM     23  C   UNL     1       1.155   3.170   0.008  0.00  0.00    +0.121 A 
ATOM     24  C   UNL     1       1.174   1.783   0.000  0.00  0.00    +0.049 A 
ATOM     25  C   UNL     1      -0.013   1.076   0.008  0.00  0.00    +0.049 A 
ATOM     26  C   UNL     1      -1.223   1.753   0.017  0.00  0.00    +0.122 A 
BRANCH  26  27
ATOM     27  O   UNL     1      -2.392   1.057   0.019  0.00  0.00    -0.495 OA
ATOM     28  C   UNL     1      -2.297  -0.369   0.012  0.00  0.00    +0.277 C 
ENDBRANCH  26  27
BRANCH  23  29
ATOM     29  O   UNL     1       2.323   3.865   0.001  0.00  0.00    -0.495 OA
ATOM     30  C   UNL     1       3.532   3.104  -0.015  0.00  0.00    +0.277 C 
ENDBRANCH  23  29
ENDBRANCH   3  21
BRANCH   8  31
ATOM     31  O   UNL     1      -6.616   5.227  -1.843  0.00  0.00    -0.409 OA
ATOM     32  H   UNL     1      -7.561   4.885  -2.291  0.00  0.00    +0.328 HD
ENDBRANCH   8  31
TORSDOF 7
