REMARK  Name = ZINC09173186
REMARK  10 active torsions:
REMARK  status: ('A' for Active; 'I' for Inactive)
REMARK    1  A    between atoms: C_1  and  C_2
REMARK    2  A    between atoms: C_2  and  N_3
REMARK    3  A    between atoms: C_6  and  C_19
REMARK    4  A    between atoms: C_7  and  N_18
REMARK    5  A    between atoms: N_8  and  C_11
REMARK    6  A    between atoms: C_11  and  C_12
REMARK    7  A    between atoms: N_24  and  C_25
REMARK    8  A    between atoms: C_25  and  C_26
REMARK    9  A    between atoms: C_31  and  O_32
REMARK   10  A    between atoms: O_32  and  C_33
REMARK                            x       y       z     vdW  Elec       q    Type
REMARK                         _______ _______ _______ _____ _____    ______ ____
ROOT
ATOM      1  N   UNL     1       3.980   1.633  -3.269  0.00  0.00    -0.261 N 
ATOM      2  C   UNL     1       3.697   0.538  -4.001  0.00  0.00    +0.268 A 
ATOM      3  O   UNL     1       4.054   0.467  -5.164  0.00  0.00    -0.267 OA
ATOM      4  C   UNL     1       2.982  -0.529  -3.409  0.00  0.00    +0.103 A 
ATOM      5  C   UNL     1       2.597  -0.416  -2.080  0.00  0.00    +0.115 A 
ATOM      6  N   UNL     1       2.910   0.728  -1.388  0.00  0.00    -0.277 N 
ATOM      7  C   UNL     1       3.591   1.722  -1.985  0.00  0.00    +0.334 A 
ATOM      8  O   UNL     1       3.862   2.723  -1.350  0.00  0.00    -0.246 OA
ENDROOT
BRANCH   4   9
ATOM      9  C   UNL     1       2.656  -1.747  -4.190  0.00  0.00    +0.089 A 
ATOM     10  C   UNL     1       1.874  -1.678  -5.307  0.00  0.00    +0.077 A 
ATOM     11  S   UNL     1       1.839  -3.396  -5.797  0.00  0.00    -0.060 S 
ATOM     12  C   UNL     1       2.824  -4.022  -4.513  0.00  0.00    +0.159 A 
ATOM     13  N   UNL     1       3.112  -2.937  -3.821  0.00  0.00    -0.225 NA
ATOM     14  N   UNL     1       3.210  -5.331  -4.274  0.00  0.00    -0.319 N 
ATOM     15  H   UNL     1       3.769  -5.540  -3.509  0.00  0.00    +0.148 HD
BRANCH  14  16
ATOM     16  C   UNL     1       2.775  -6.399  -5.177  0.00  0.00    +0.142 C 
BRANCH  16  17
ATOM     17  C   UNL     1       3.327  -7.718  -4.699  0.00  0.00    +0.011 A 
ATOM     18  C   UNL     1       4.447  -8.258  -5.301  0.00  0.00    +0.009 A 
ATOM     19  C   UNL     1       4.956  -9.465  -4.859  0.00  0.00    +0.001 A 
ATOM     20  C   UNL     1       4.340 -10.140  -3.821  0.00  0.00    +0.004 A 
ATOM     21  C   UNL     1       3.217  -9.607  -3.220  0.00  0.00    +0.046 A 
ATOM     22  C   UNL     1       2.707  -8.393  -3.658  0.00  0.00    +0.125 A 
BRANCH  22  23
ATOM     23  O   UNL     1       1.601  -7.867  -3.068  0.00  0.00    -0.495 OA
ATOM     24  C   UNL     1       1.015  -8.617  -2.002  0.00  0.00    +0.277 C 
ENDBRANCH  22  23
ENDBRANCH  16  17
ENDBRANCH  14  16
ENDBRANCH   4   9
BRANCH   5  25
ATOM     25  N   UNL     1       1.908  -1.431  -1.468  0.00  0.00    -0.344 N 
ATOM     26  H   UNL     1       1.594  -1.323  -0.557  0.00  0.00    +0.144 HD
ATOM     27  H   UNL     1       1.734  -2.256  -1.947  0.00  0.00    +0.144 HD
ENDBRANCH   5  25
BRANCH   1  29
ATOM     28  C   UNL     1       6.221   2.525  -3.674  0.00  0.00    +0.027 C 
ATOM     29  C   UNL     1       4.720   2.740  -3.879  0.00  0.00    +0.126 C 
ENDBRANCH   1  29
BRANCH   6  30
ATOM     30  C   UNL     1       2.506   0.863   0.014  0.00  0.00    +0.163 C 
BRANCH  30  31
ATOM     31  C   UNL     1       1.142   1.501   0.083  0.00  0.00    -0.028 A 
ATOM     32  C   UNL     1       0.008   0.711   0.072  0.00  0.00    +0.005 A 
ATOM     33  C   UNL     1      -1.243   1.297   0.131  0.00  0.00    +0.000 A 
ATOM     34  C   UNL     1      -1.359   2.672   0.209  0.00  0.00    +0.000 A 
ATOM     35  C   UNL     1      -0.225   3.462   0.221  0.00  0.00    +0.000 A 
ATOM     36  C   UNL     1       1.026   2.877   0.158  0.00  0.00    +0.005 A 
ENDBRANCH  30  31
ENDBRANCH   6  30
TORSDOF 8
