REMARK  Name = ZINC10243900
REMARK  5 active torsions:
REMARK  status: ('A' for Active; 'I' for Inactive)
REMARK    1  A    between atoms: C_1  and  C_2
REMARK    2  A    between atoms: C_8  and  C_10
REMARK    3  A    between atoms: C_10  and  S_11
REMARK    4  A    between atoms: S_11  and  C_12
REMARK    5  A    between atoms: N_26  and  C_27
REMARK                            x       y       z     vdW  Elec       q    Type
REMARK                         _______ _______ _______ _____ _____    ______ ____
ROOT
ATOM      1  C   UNL     1       0.558   4.037   0.019  0.00  0.00    +0.177 A 
ATOM      2  N   UNL     1       1.542   3.166   0.005  0.00  0.00    -0.221 NA
ATOM      3  C   UNL     1       1.298   1.846  -0.000  0.00  0.00    +0.104 A 
ATOM      4  C   UNL     1       2.160   0.655  -0.015  0.00  0.00    +0.026 A 
ATOM      5  C   UNL     1       3.543   0.470  -0.029  0.00  0.00    +0.012 A 
ATOM      6  C   UNL     1       4.061  -0.795  -0.040  0.00  0.00    +0.001 A 
ATOM      7  C   UNL     1       3.220  -1.899  -0.037  0.00  0.00    +0.002 A 
ATOM      8  C   UNL     1       1.853  -1.739  -0.024  0.00  0.00    +0.026 A 
ATOM      9  C   UNL     1       1.303  -0.459  -0.013  0.00  0.00    +0.049 A 
ATOM     10  N   UNL     1       0.002  -0.004   0.002  0.00  0.00    -0.349 N 
ATOM     11  H   UNL     1      -0.785  -0.571   0.006  0.00  0.00    +0.166 HD
ATOM     12  C   UNL     1      -0.017   1.382   0.010  0.00  0.00    +0.132 A 
ATOM     13  C   UNL     1      -1.063   2.327   0.030  0.00  0.00    +0.283 A 
ATOM     14  O   UNL     1      -2.228   1.965   0.044  0.00  0.00    -0.265 OA
ATOM     15  N   UNL     1      -0.749   3.640   0.030  0.00  0.00    -0.251 N 
ENDROOT
BRANCH  15  16
ATOM     16  C   UNL     1      -1.770   4.601   0.045  0.00  0.00    +0.087 A 
ATOM     17  C   UNL     1      -2.284   5.089  -1.149  0.00  0.00    +0.029 A 
ATOM     18  C   UNL     1      -3.292   6.033  -1.131  0.00  0.00    +0.002 A 
ATOM     19  C   UNL     1      -3.784   6.500   0.075  0.00  0.00    +0.003 A 
ATOM     20  C   UNL     1      -3.272   6.020   1.266  0.00  0.00    +0.040 A 
ATOM     21  C   UNL     1      -2.265   5.072   1.256  0.00  0.00    +0.147 A 
ATOM     22  F   UNL     1      -1.764   4.604   2.420  0.00  0.00    -0.203 F 
ENDBRANCH  15  16
BRANCH   1  23
ATOM     23  S   UNL     1       0.933   5.758   0.026  0.00  0.00    -0.078 S 
BRANCH  23  24
ATOM     24  C   UNL     1       2.742   5.685   0.009  0.00  0.00    +0.173 C 
BRANCH  24  32
ATOM     25  C   UNL     1       8.210   7.809  -2.245  0.00  0.00    +0.007 C 
ATOM     26  C   UNL     1       7.216   7.658  -1.092  0.00  0.00    -0.011 C 
ATOM     27  C   UNL     1       6.168   8.770  -1.173  0.00  0.00    +0.022 C 
ATOM     28  C   UNL     1       5.195   8.636   0.003  0.00  0.00    +0.108 C 
ATOM     29  N   UNL     1       4.635   7.277   0.000  0.00  0.00    -0.301 N 
ATOM     30  C   UNL     1       5.556   6.133  -0.009  0.00  0.00    +0.108 C 
ATOM     31  C   UNL     1       6.525   6.296  -1.190  0.00  0.00    +0.022 C 
ATOM     32  C   UNL     1       3.301   7.085   0.012  0.00  0.00    +0.226 C 
ATOM     33  O   UNL     1       2.551   8.038   0.024  0.00  0.00    -0.275 OA
ENDBRANCH  24  32
ENDBRANCH  23  24
ENDBRANCH   1  23
TORSDOF 4
