REMARK  Name = ZINC25151312
REMARK  6 active torsions:
REMARK  status: ('A' for Active; 'I' for Inactive)
REMARK    1  A    between atoms: C_1  and  C_2
REMARK    2  A    between atoms: C_3  and  C_30
REMARK    3  A    between atoms: C_7  and  N_16
REMARK    4  A    between atoms: C_9  and  C_11
REMARK    5  A    between atoms: N_16  and  C_17
REMARK    6  A    between atoms: C_23  and  C_25
REMARK                            x       y       z     vdW  Elec       q    Type
REMARK                         _______ _______ _______ _____ _____    ______ ____
ROOT
ATOM      1  C   UNL     1       1.538  -1.895  -0.165  0.00  0.00    +0.045 C 
ATOM      2  C   UNL     1       1.077  -0.460  -0.137  0.00  0.00    -0.028 A 
ATOM      3  C   UNL     1      -0.207  -0.165   0.115  0.00  0.00    -0.008 A 
ATOM      4  S   UNL     1      -0.248   1.615   0.038  0.00  0.00    -0.073 S 
ATOM      5  C   UNL     1       1.460   1.916  -0.331  0.00  0.00    +0.114 A 
ATOM      6  C   UNL     1       2.018   0.618  -0.385  0.00  0.00    +0.051 A 
ATOM      7  C   UNL     1       3.411   0.560  -0.671  0.00  0.00    +0.131 A 
ATOM      8  N   UNL     1       4.080   1.682  -0.865  0.00  0.00    -0.212 NA
ATOM      9  C   UNL     1       3.492   2.875  -0.800  0.00  0.00    +0.169 A 
ATOM     10  N   UNL     1       2.194   2.990  -0.536  0.00  0.00    -0.219 NA
ATOM     11  C   UNL     1      -1.344  -1.113   0.397  0.00  0.00    +0.052 C 
ENDROOT
BRANCH   9  12
ATOM     12  C   UNL     1       4.295   4.092  -1.025  0.00  0.00    +0.056 A 
ATOM     13  C   UNL     1       3.899   5.404  -1.006  0.00  0.00    +0.019 A 
ATOM     14  C   UNL     1       4.837   6.382  -1.248  0.00  0.00    +0.008 A 
ATOM     15  C   UNL     1       6.122   6.019  -1.498  0.00  0.00    +0.046 A 
ATOM     16  S   UNL     1       6.037   4.239  -1.387  0.00  0.00    -0.094 S 
ENDBRANCH   9  12
BRANCH   7  17
ATOM     17  N   UNL     1       4.058  -0.660  -0.747  0.00  0.00    -0.326 N 
ATOM     18  H   UNL     1       3.480  -1.594  -0.679  0.00  0.00    +0.148 HD
BRANCH  17  19
ATOM     19  C   UNL     1       5.512  -0.709  -0.917  0.00  0.00    +0.075 C 
ATOM     20  C   UNL     1       5.856  -0.600  -2.404  0.00  0.00    +0.041 C 
ATOM     21  C   UNL     1       7.378  -0.616  -2.575  0.00  0.00    +0.110 C 
ATOM     22  N   UNL     1       7.915  -1.816  -1.919  0.00  0.00    -0.295 N 
ATOM     23  C   UNL     1       7.570  -2.065  -0.512  0.00  0.00    +0.110 C 
ATOM     24  C   UNL     1       6.046  -2.033  -0.365  0.00  0.00    +0.041 C 
ATOM     25  C   UNL     1       8.708  -2.671  -2.594  0.00  0.00    +0.282 C 
ATOM     26  O   UNL     1       9.050  -2.413  -3.733  0.00  0.00    -0.267 OA
BRANCH  25  27
ATOM     27  C   UNL     1       9.159  -3.912  -1.956  0.00  0.00    +0.189 A 
ATOM     28  C   UNL     1       9.849  -4.922  -2.563  0.00  0.00    +0.054 A 
ATOM     29  C   UNL     1      10.070  -5.904  -1.585  0.00  0.00    +0.042 A 
ATOM     30  C   UNL     1       9.513  -5.457  -0.438  0.00  0.00    +0.196 A 
ATOM     31  O   UNL     1       8.969  -4.254  -0.664  0.00  0.00    -0.458 OA
ENDBRANCH  25  27
ENDBRANCH  17  19
ENDBRANCH   7  17
TORSDOF 4
