REMARK  Name = ZINC39494040
REMARK  10 active torsions:
REMARK  status: ('A' for Active; 'I' for Inactive)
REMARK    1  A    between atoms: C_4  and  C_7
REMARK    2  A    between atoms: C_7  and  C_8
REMARK    3  A    between atoms: C_8  and  C_10
REMARK    4  A    between atoms: C_8  and  C_28
REMARK    5  A    between atoms: C_10  and  C_12
REMARK    6  A    between atoms: C_10  and  N_18
REMARK    7  A    between atoms: C_19  and  C_21
REMARK    8  A    between atoms: C_26  and  O_27
REMARK    9  A    between atoms: C_28  and  S_30
REMARK   10  A    between atoms: S_30  and  C_33
REMARK                            x       y       z     vdW  Elec       q    Type
REMARK                         _______ _______ _______ _____ _____    ______ ____
ROOT
ATOM      1  C   UNL     1       3.611  -0.597   1.595  0.00  0.00    +0.108 C 
ENDROOT
BRANCH   1   2
ATOM      2  C   UNL     1       5.097  -0.806   1.455  0.00  0.00    +0.278 C 
ATOM      3  O   UNL     1       5.597  -1.845   1.813  0.00  0.00    -0.271 OA
BRANCH   2   4
ATOM      4  S   UNL     1       6.104   0.466   0.767  0.00  0.00    +0.058 S 
ATOM      5  O   UNL     1       5.428   1.693   1.007  0.00  0.00    -0.162 OA
ATOM      6  O   UNL     1       7.429   0.225   1.221  0.00  0.00    -0.162 OA
BRANCH   4   7
ATOM      7  C   UNL     1       6.119   0.232  -0.979  0.00  0.00    +0.097 A 
ATOM      8  C   UNL     1       6.997  -0.671  -1.548  0.00  0.00    +0.027 A 
ATOM      9  C   UNL     1       7.009  -0.855  -2.918  0.00  0.00    +0.002 A 
ATOM     10  C   UNL     1       6.143  -0.135  -3.719  0.00  0.00    +0.000 A 
ATOM     11  C   UNL     1       5.264   0.768  -3.150  0.00  0.00    +0.002 A 
ATOM     12  C   UNL     1       5.249   0.948  -1.780  0.00  0.00    +0.027 A 
ENDBRANCH   4   7
ENDBRANCH   2   4
ENDBRANCH   1   2
BRANCH   1  13
ATOM     13  C   UNL     1       2.987  -0.428   0.208  0.00  0.00    +0.050 C 
BRANCH  13  17
ATOM     14  C   UNL     1      -1.140   0.599   0.617  0.00  0.00    +0.000 A 
ATOM     15  C   UNL     1      -0.172   1.584   0.685  0.00  0.00    +0.000 A 
ATOM     16  C   UNL     1       1.163   1.252   0.553  0.00  0.00    +0.003 A 
ATOM     17  C   UNL     1       1.531  -0.066   0.353  0.00  0.00    -0.047 A 
ATOM     18  C   UNL     1       0.564  -1.051   0.286  0.00  0.00    +0.003 A 
ATOM     19  C   UNL     1      -0.772  -0.719   0.416  0.00  0.00    +0.000 A 
ENDBRANCH  13  17
ENDBRANCH   1  13
BRANCH   1  20
ATOM     20  C   UNL     1       2.989  -1.811   2.289  0.00  0.00    +0.116 C 
BRANCH  20  21
ATOM     21  C   UNL     1       3.572  -1.951   3.672  0.00  0.00    -0.026 A 
ATOM     22  C   UNL     1       4.659  -2.779   3.882  0.00  0.00    +0.005 A 
ATOM     23  C   UNL     1       5.193  -2.909   5.151  0.00  0.00    +0.000 A 
ATOM     24  C   UNL     1       4.641  -2.209   6.208  0.00  0.00    +0.000 A 
ATOM     25  C   UNL     1       3.555  -1.381   5.997  0.00  0.00    +0.000 A 
ATOM     26  C   UNL     1       3.023  -1.248   4.728  0.00  0.00    +0.005 A 
ENDBRANCH  20  21
BRANCH  20  27
ATOM     27  N   UNL     1       3.277  -3.019   1.512  0.00  0.00    -0.304 N 
ATOM     28  C   UNL     1       2.460  -4.087   1.601  0.00  0.00    +0.248 C 
ATOM     29  O   UNL     1       1.431  -4.014   2.244  0.00  0.00    -0.270 OA
ATOM     30  H   UNL     1       4.055  -3.050   0.934  0.00  0.00    +0.150 HD
BRANCH  28  31
ATOM     31  C   UNL     1       2.815  -5.346   0.917  0.00  0.00    +0.078 A 
ATOM     32  C   UNL     1       4.048  -5.471   0.272  0.00  0.00    +0.017 A 
ATOM     33  C   UNL     1       4.374  -6.649  -0.364  0.00  0.00    +0.001 A 
ATOM     34  C   UNL     1       3.484  -7.711  -0.367  0.00  0.00    +0.004 A 
ATOM     35  C   UNL     1       2.262  -7.601   0.266  0.00  0.00    +0.046 A 
ATOM     36  C   UNL     1       1.920  -6.424   0.916  0.00  0.00    +0.129 A 
BRANCH  36  37
ATOM     37  O   UNL     1       0.722  -6.316   1.544  0.00  0.00    -0.506 OA
ATOM     38  H   UNL     1       0.011  -5.982   0.980  0.00  0.00    +0.292 HD
ENDBRANCH  36  37
ENDBRANCH  28  31
ENDBRANCH  20  27
ENDBRANCH   1  20
TORSDOF 10
