REMARK  Name = ZINC32126420
REMARK  10 active torsions:
REMARK  status: ('A' for Active; 'I' for Inactive)
REMARK    1  A    between atoms: C_1  and  C_2
REMARK    2  A    between atoms: C_2  and  C_3
REMARK    3  A    between atoms: C_2  and  C_4
REMARK    4  A    between atoms: N_9  and  C_12
REMARK    5  A    between atoms: C_17  and  N_18
REMARK    6  A    between atoms: N_18  and  C_19
REMARK    7  A    between atoms: C_19  and  N_21
REMARK    8  A    between atoms: C_22  and  C_24
REMARK    9  A    between atoms: C_27  and  O_31
REMARK   10  A    between atoms: O_31  and  C_32
REMARK                            x       y       z     vdW  Elec       q    Type
REMARK                         _______ _______ _______ _____ _____    ______ ____
ROOT
ATOM      1  C   UNL     1      -8.473   3.232   0.309  0.00  0.00    +0.051 A 
ATOM      2  C   UNL     1      -9.655   3.947   0.430  0.00  0.00    +0.025 A 
ATOM      3  C   UNL     1      -9.630   5.329   0.436  0.00  0.00    +0.002 A 
ATOM      4  C   UNL     1      -8.428   6.003   0.323  0.00  0.00    +0.002 A 
ATOM      5  C   UNL     1      -7.244   5.299   0.208  0.00  0.00    +0.025 A 
ATOM      6  C   UNL     1      -7.261   3.913   0.195  0.00  0.00    +0.054 A 
ENDROOT
BRANCH   1  12
ATOM      7  C   UNL     1     -10.390  -1.772   0.396  0.00  0.00    +0.218 C 
ATOM      8  O   UNL     1     -10.802  -2.167   1.466  0.00  0.00    -0.275 OA
ATOM      9  N   UNL     1      -9.492  -0.769   0.348  0.00  0.00    -0.298 N 
ATOM     10  C   UNL     1      -8.914  -0.213   1.581  0.00  0.00    +0.126 C 
ATOM     11  C   UNL     1      -9.071   1.311   1.549  0.00  0.00    +0.124 C 
ATOM     12  N   UNL     1      -8.496   1.833   0.303  0.00  0.00    -0.325 N 
ATOM     13  C   UNL     1      -9.216   1.324  -0.872  0.00  0.00    +0.124 C 
ATOM     14  C   UNL     1      -9.065  -0.199  -0.939  0.00  0.00    +0.126 C 
BRANCH   7  16
ATOM     15  C   UNL     1     -11.134  -3.896  -0.647  0.00  0.00    +0.017 C 
ATOM     16  C   UNL     1     -10.882  -2.405  -0.880  0.00  0.00    +0.069 C 
ATOM     17  C   UNL     1     -12.185  -1.730  -1.315  0.00  0.00    +0.017 C 
ENDBRANCH   7  16
ENDBRANCH   1  12
BRANCH   6  18
ATOM     18  N   UNL     1      -6.062   3.197   0.073  0.00  0.00    -0.295 N 
ATOM     19  H   UNL     1      -5.916   2.267   0.643  0.00  0.00    +0.154 HD
BRANCH  18  20
ATOM     20  C   UNL     1      -5.088   3.647  -0.741  0.00  0.00    +0.141 C 
ATOM     21  S   UNL     1      -5.345   5.050  -1.689  0.00  0.00    -0.018 S 
BRANCH  20  22
ATOM     22  N   UNL     1      -3.911   2.994  -0.810  0.00  0.00    -0.264 N 
ATOM     23  C   UNL     1      -2.936   3.445  -1.625  0.00  0.00    +0.250 C 
ATOM     24  O   UNL     1      -3.119   4.440  -2.298  0.00  0.00    -0.270 OA
ATOM     25  H   UNL     1      -3.745   2.093  -0.201  0.00  0.00    +0.157 HD
BRANCH  23  26
ATOM     26  C   UNL     1      -1.648   2.730  -1.700  0.00  0.00    +0.038 A 
ATOM     27  C   UNL     1      -1.438   1.581  -0.931  0.00  0.00    +0.017 A 
ATOM     28  C   UNL     1      -0.232   0.921  -0.998  0.00  0.00    +0.047 A 
ATOM     29  C   UNL     1       0.772   1.387  -1.839  0.00  0.00    +0.134 A 
ATOM     30  C   UNL     1       0.565   2.525  -2.611  0.00  0.00    +0.060 A 
ATOM     31  C   UNL     1      -0.636   3.196  -2.544  0.00  0.00    +0.032 A 
ATOM     32 BR   UNL     1       1.936   3.154  -3.752  0.00  0.00    -0.046 Br
BRANCH  29  33
ATOM     33  O   UNL     1       1.957   0.729  -1.907  0.00  0.00    -0.494 OA
ATOM     34  C   UNL     1       2.102  -0.433  -1.088  0.00  0.00    +0.277 C 
ENDBRANCH  29  33
ENDBRANCH  23  26
ENDBRANCH  20  22
ENDBRANCH  18  20
ENDBRANCH   6  18
TORSDOF 7
