REMARK  Name = ZINC14666182
REMARK  10 active torsions:
REMARK  status: ('A' for Active; 'I' for Inactive)
REMARK    1  A    between atoms: C_4  and  C_7
REMARK    2  A    between atoms: C_7  and  C_8
REMARK    3  A    between atoms: C_8  and  O_9
REMARK    4  A    between atoms: O_9  and  C_10
REMARK    5  A    between atoms: C_15  and  C_16
REMARK    6  A    between atoms: N_18  and  C_19
REMARK    7  A    between atoms: C_19  and  N_21
REMARK    8  A    between atoms: N_21  and  N_22
REMARK    9  A    between atoms: C_23  and  C_25
REMARK   10  A    between atoms: C_25  and  C_26
REMARK                            x       y       z     vdW  Elec       q    Type
REMARK                         _______ _______ _______ _____ _____    ______ ____
ROOT
ATOM      1  C   UNL     1      -1.156  -0.694   0.009  0.00  0.00    +0.253 C 
ATOM      2  O   UNL     1      -2.217  -0.100   0.023  0.00  0.00    -0.270 OA
ATOM      3  N   UNL     1       0.002  -0.004   0.002  0.00  0.00    -0.263 N 
ATOM      4  H   UNL     1       0.849  -0.478  -0.009  0.00  0.00    +0.157 HD
ENDROOT
BRANCH   1  10
ATOM      5  C   UNL     1      -2.338  -2.889   0.009  0.00  0.00    +0.133 A 
ATOM      6  C   UNL     1      -2.307  -4.276   0.001  0.00  0.00    +0.047 A 
ATOM      7  C   UNL     1      -1.098  -4.942  -0.015  0.00  0.00    +0.019 A 
ATOM      8  C   UNL     1       0.093  -4.233  -0.022  0.00  0.00    +0.019 A 
ATOM      9  C   UNL     1       0.081  -2.854  -0.020  0.00  0.00    +0.032 A 
ATOM     10  C   UNL     1      -1.136  -2.168   0.001  0.00  0.00    +0.080 A 
ATOM     11 BR   UNL     1       1.741  -5.160  -0.043  0.00  0.00    -0.050 Br
BRANCH   5  12
ATOM     12  O   UNL     1      -3.525  -2.234   0.025  0.00  0.00    -0.491 OA
BRANCH  12  13
ATOM     13  C   UNL     1      -4.708  -3.036   0.032  0.00  0.00    +0.233 C 
BRANCH  13  14
ATOM     14  C   UNL     1      -5.940  -2.127   0.049  0.00  0.00    +0.076 C 
BRANCH  14  18
ATOM     15  C   UNL     1      -9.476  -4.523   0.070  0.00  0.00    +0.000 A 
ATOM     16  C   UNL     1      -8.892  -4.142   1.264  0.00  0.00    +0.000 A 
ATOM     17  C   UNL     1      -7.748  -3.367   1.257  0.00  0.00    +0.004 A 
ATOM     18  C   UNL     1      -7.187  -2.973   0.057  0.00  0.00    -0.044 A 
ATOM     19  C   UNL     1      -7.775  -3.348  -1.137  0.00  0.00    +0.004 A 
ATOM     20  C   UNL     1      -8.916  -4.128  -1.130  0.00  0.00    +0.000 A 
ENDBRANCH  14  18
ENDBRANCH  13  14
ENDBRANCH  12  13
ENDBRANCH   5  12
ENDBRANCH   1  10
BRANCH   3  21
ATOM     21  C   UNL     1      -0.016   1.344   0.009  0.00  0.00    +0.153 C 
ATOM     22  S   UNL     1      -1.510   2.179   0.021  0.00  0.00    -0.017 S 
BRANCH  21  23
ATOM     23  N   UNL     1       1.142   2.033   0.002  0.00  0.00    -0.246 N 
ATOM     24  H   UNL     1       1.129   3.003   0.007  0.00  0.00    +0.172 HD
BRANCH  23  25
ATOM     25  N   UNL     1       2.364   1.349  -0.013  0.00  0.00    -0.235 N 
ATOM     26  C   UNL     1       3.522   2.039  -0.021  0.00  0.00    +0.233 C 
ATOM     27  O   UNL     1       3.506   3.252  -0.014  0.00  0.00    -0.274 OA
ATOM     28  H   UNL     1       2.377   0.379  -0.019  0.00  0.00    +0.173 HD
BRANCH  26  29
ATOM     29  C   UNL     1       4.837   1.303  -0.037  0.00  0.00    +0.132 C 
BRANCH  29  30
ATOM     30  C   UNL     1       5.969   2.298  -0.043  0.00  0.00    -0.039 A 
ATOM     31  C   UNL     1       6.481   2.757  -1.242  0.00  0.00    +0.004 A 
ATOM     32  C   UNL     1       7.516   3.673  -1.247  0.00  0.00    +0.000 A 
ATOM     33  C   UNL     1       8.046   4.123  -0.053  0.00  0.00    +0.000 A 
ATOM     34  C   UNL     1       7.539   3.660   1.147  0.00  0.00    +0.000 A 
ATOM     35  C   UNL     1       6.500   2.748   1.152  0.00  0.00    +0.004 A 
ENDBRANCH  29  30
ENDBRANCH  26  29
ENDBRANCH  23  25
ENDBRANCH  21  23
ENDBRANCH   3  21
TORSDOF 10
