REMARK  Name = ZINC66590403
REMARK  4 active torsions:
REMARK  status: ('A' for Active; 'I' for Inactive)
REMARK    1  A    between atoms: C_3  and  C_9
REMARK    2  A    between atoms: C_6  and  C_7
REMARK    3  A    between atoms: N_11  and  N_12
REMARK    4  A    between atoms: N_12  and  C_13
REMARK                            x       y       z     vdW  Elec       q    Type
REMARK                         _______ _______ _______ _____ _____    ______ ____
ROOT
ATOM      1  C   UNL     1       3.674   2.163  -0.328  0.00  0.00    +0.260 C 
ATOM      2  O   UNL     1       3.664   3.373  -0.438  0.00  0.00    -0.269 OA
ATOM      3  N   UNL     1       4.838   1.515  -0.127  0.00  0.00    -0.232 N 
ATOM      4  H   UNL     1       4.846   0.549  -0.039  0.00  0.00    +0.173 HD
ENDROOT
BRANCH   1   7
ATOM      5  C   UNL     1       0.023   1.366  -0.707  0.00  0.00    +0.012 A 
ATOM      6  C   UNL     1       1.202   2.074  -0.625  0.00  0.00    +0.014 A 
ATOM      7  C   UNL     1       2.408   1.401  -0.416  0.00  0.00    +0.038 A 
ATOM      8  C   UNL     1       2.420   0.011  -0.290  0.00  0.00    +0.014 A 
ATOM      9  C   UNL     1       1.242  -0.699  -0.372  0.00  0.00    +0.012 A 
ATOM     10  C   UNL     1       0.034  -0.026  -0.580  0.00  0.00    +0.014 A 
BRANCH  10  11
ATOM     11  C   UNL     1      -1.227  -0.785  -0.667  0.00  0.00    +0.258 C 
ATOM     12  O   UNL     1      -1.217  -1.992  -0.558  0.00  0.00    -0.296 OA
ENDBRANCH  10  11
ENDBRANCH   1   7
BRANCH   3  13
ATOM     13  N   UNL     1       6.037   2.236  -0.044  0.00  0.00    -0.261 N 
ATOM     14  H   UNL     1       6.021   3.205  -0.049  0.00  0.00    +0.170 HD
BRANCH  13  15
ATOM     15  C   UNL     1       7.256   1.557   0.047  0.00  0.00    +0.081 A 
ATOM     16  C   UNL     1       8.284   2.072   0.827  0.00  0.00    +0.066 A 
ATOM     17  C   UNL     1       9.488   1.399   0.914  0.00  0.00    +0.042 A 
ATOM     18  C   UNL     1       9.671   0.213   0.225  0.00  0.00    +0.044 A 
ATOM     19  C   UNL     1       8.649  -0.303  -0.552  0.00  0.00    +0.042 A 
ATOM     20  C   UNL     1       7.441   0.362  -0.639  0.00  0.00    +0.066 A 
ATOM     21 CL   UNL     1       6.157  -0.290  -1.608  0.00  0.00    -0.081 Cl
ATOM     22 CL   UNL     1      11.185  -0.629   0.336  0.00  0.00    -0.083 Cl
ATOM     23 CL   UNL     1       8.056   3.561   1.690  0.00  0.00    -0.081 Cl
ENDBRANCH  13  15
ENDBRANCH   3  13
TORSDOF 4
