REMARK  Name = ZINC53038923
REMARK  7 active torsions:
REMARK  status: ('A' for Active; 'I' for Inactive)
REMARK    1  A    between atoms: C_1  and  C_2
REMARK    2  A    between atoms: C_2  and  C_4
REMARK    3  A    between atoms: C_2  and  S_15
REMARK    4  A    between atoms: C_6  and  C_9
REMARK    5  A    between atoms: S_15  and  C_16
REMARK    6  A    between atoms: C_19  and  C_22
REMARK    7  A    between atoms: N_20  and  N_21
REMARK                            x       y       z     vdW  Elec       q    Type
REMARK                         _______ _______ _______ _____ _____    ______ ____
ROOT
ATOM      1  C   UNL     1      -0.019   1.526   0.010  0.00  0.00    +0.029 C 
ATOM      2  C   UNL     1       0.002  -0.004   0.002  0.00  0.00    +0.140 C 
ENDROOT
BRANCH   2   3
ATOM      3  C   UNL     1       0.731  -0.503   1.223  0.00  0.00    +0.241 A 
ATOM      4  N   UNL     1       0.177  -1.033   2.276  0.00  0.00    -0.190 NA
ATOM      5  C   UNL     1       1.122  -1.367   3.174  0.00  0.00    +0.202 A 
ATOM      6  N   UNL     1       2.295  -1.045   2.687  0.00  0.00    -0.056 NA
ATOM      7  O   UNL     1       2.058  -0.482   1.405  0.00  0.00    -0.337 OA
BRANCH   5   8
ATOM      8  C   UNL     1       0.876  -1.994   4.497  0.00  0.00    +0.022 A 
ATOM      9  C   UNL     1      -0.425  -2.292   4.898  0.00  0.00    +0.012 A 
ATOM     10  C   UNL     1      -0.648  -2.875   6.129  0.00  0.00    +0.001 A 
ATOM     11  C   UNL     1       0.417  -3.162   6.964  0.00  0.00    +0.000 A 
ATOM     12  C   UNL     1       1.710  -2.868   6.571  0.00  0.00    +0.001 A 
ATOM     13  C   UNL     1       1.945  -2.291   5.339  0.00  0.00    +0.012 A 
ENDBRANCH   5   8
ENDBRANCH   2   3
BRANCH   2  14
ATOM     14  S   UNL     1       0.851  -0.589  -1.490  0.00  0.00    -0.072 S 
BRANCH  14  15
ATOM     15  C   UNL     1      -0.189  -0.057  -2.809  0.00  0.00    +0.209 A 
ATOM     16  N   UNL     1      -1.312   0.614  -2.696  0.00  0.00    -0.121 NA
ATOM     17  N   UNL     1      -1.808   0.835  -3.860  0.00  0.00    -0.123 NA
ATOM     18  C   UNL     1      -1.040   0.322  -4.779  0.00  0.00    +0.255 A 
ATOM     19  N   UNL     1       0.022  -0.259  -4.143  0.00  0.00    -0.220 N 
BRANCH  18  20
ATOM     20  C   UNL     1      -1.274   0.367  -6.267  0.00  0.00    +0.454 C 
ATOM     21  F   UNL     1      -2.252   1.325  -6.556  0.00  0.00    -0.163 F 
ATOM     22  F   UNL     1      -0.082   0.706  -6.916  0.00  0.00    -0.163 F 
ATOM     23  F   UNL     1      -1.705  -0.888  -6.709  0.00  0.00    -0.163 F 
ENDBRANCH  18  20
BRANCH  19  24
ATOM     24  N   UNL     1       1.075  -0.910  -4.721  0.00  0.00    -0.295 N 
ATOM     25  H   UNL     1       0.878  -1.894  -4.827  0.00  0.00    +0.163 HD
ATOM     26  H   UNL     1       1.316  -0.492  -5.607  0.00  0.00    +0.163 HD
ENDBRANCH  19  24
ENDBRANCH  14  15
ENDBRANCH   2  14
TORSDOF 6
