REMARK  Name = ZINC12753416
REMARK  12 active torsions:
REMARK  status: ('A' for Active; 'I' for Inactive)
REMARK    1  A    between atoms: C_1  and  C_2
REMARK    2  A    between atoms: C_2  and  C_3
REMARK    3  A    between atoms: C_6  and  C_9
REMARK    4  A    between atoms: C_9  and  C_11
REMARK    5  A    between atoms: C_9  and  N_62
REMARK    6  A    between atoms: C_11  and  N_12
REMARK    7  A    between atoms: C_13  and  C_15
REMARK    8  A    between atoms: C_15  and  N_16
REMARK    9  A    between atoms: C_17  and  C_19
REMARK   10  A    between atoms: C_19  and  C_20
REMARK   11  A    between atoms: C_30  and  N_62
REMARK   12  A    between atoms: C_31  and  N_62
REMARK                            x       y       z     vdW  Elec       q    Type
REMARK                         _______ _______ _______ _____ _____    ______ ____
ROOT
ATOM      1  N   UNL     1      -0.114   0.857   0.392  0.00  0.00    -0.315 N 
ATOM      2  C   UNL     1       1.073   1.489   0.491  0.00  0.00    +0.230 C 
ATOM      3  O   UNL     1       1.141   2.684   0.299  0.00  0.00    -0.274 OA
ATOM      4  H   UNL     1      -0.169  -0.099   0.545  0.00  0.00    +0.149 HD
ENDROOT
BRANCH   1   5
ATOM      5  C   UNL     1      -1.320   1.614   0.045  0.00  0.00    +0.093 C 
BRANCH   5   6
ATOM      6  C   UNL     1      -2.485   0.646  -0.168  0.00  0.00    -0.021 C 
BRANCH   6  10
ATOM      7  C   UNL     1      -6.045   2.863  -0.982  0.00  0.00    -0.048 A 
ATOM      8  C   UNL     1      -5.858   2.288   0.261  0.00  0.00    +0.004 A 
ATOM      9  C   UNL     1      -4.706   1.570   0.524  0.00  0.00    +0.002 A 
ATOM     10  C   UNL     1      -3.741   1.428  -0.455  0.00  0.00    -0.059 A 
ATOM     11  C   UNL     1      -3.926   2.008  -1.696  0.00  0.00    +0.002 A 
ATOM     12  C   UNL     1      -5.080   2.721  -1.961  0.00  0.00    +0.004 A 
BRANCH   7  14
ATOM     13  C   UNL     1      -7.079   5.115  -0.905  0.00  0.00    +0.009 C 
ATOM     14  C   UNL     1      -7.300   3.646  -1.268  0.00  0.00    +0.032 C 
ENDBRANCH   7  14
ENDBRANCH   6  10
BRANCH   6  17
ATOM     15  C   UNL     1      -1.278   0.418  -2.254  0.00  0.00    -0.096 C 
ATOM     16  C   UNL     1      -1.636  -1.518  -0.845  0.00  0.00    -0.096 C 
ATOM     17  N   UNL     1      -2.212  -0.242  -1.318  0.00  0.00    +0.382 N 
ATOM     18  H   UNL     1      -3.094  -0.435  -1.807  0.00  0.00    -0.082 HD
ENDBRANCH   6  17
ENDBRANCH   5   6
ENDBRANCH   1   5
BRANCH   2  19
ATOM     19  C   UNL     1       2.314   0.709   0.842  0.00  0.00    +0.200 C 
BRANCH  19  20
ATOM     20  N   UNL     1       3.463   1.616   0.888  0.00  0.00    -0.306 N 
ATOM     21  C   UNL     1       4.688   1.138   1.184  0.00  0.00    +0.218 C 
ATOM     22  O   UNL     1       4.838  -0.044   1.412  0.00  0.00    -0.275 OA
ATOM     23  H   UNL     1       3.343   2.562   0.706  0.00  0.00    +0.149 HD
BRANCH  21  24
ATOM     24  C   UNL     1       5.870   2.071   1.232  0.00  0.00    +0.131 C 
BRANCH  24  25
ATOM     25  C   UNL     1       7.112   1.292   1.582  0.00  0.00    -0.031 A 
ATOM     26  C   UNL     1       7.531   1.218   2.875  0.00  0.00    +0.005 A 
ATOM     27  C   UNL     1       8.677   0.502   3.217  0.00  0.00    +0.001 A 
ATOM     28  C   UNL     1       9.409  -0.145   2.270  0.00  0.00    +0.008 A 
ATOM     29  C   UNL     1       9.006  -0.092   0.925  0.00  0.00    -0.018 A 
ATOM     30  C   UNL     1       7.838   0.632   0.576  0.00  0.00    -0.014 A 
ATOM     31  C   UNL     1       7.438   0.688  -0.770  0.00  0.00    +0.009 A 
ATOM     32  C   UNL     1       8.171   0.042  -1.717  0.00  0.00    +0.001 A 
ATOM     33  C   UNL     1       9.317  -0.674  -1.374  0.00  0.00    +0.001 A 
ATOM     34  C   UNL     1       9.736  -0.747  -0.082  0.00  0.00    +0.008 A 
ENDBRANCH  24  25
ENDBRANCH  21  24
ENDBRANCH  19  20
ENDBRANCH   2  19
TORSDOF 9
