REMARK  Name = ZINC06244888
REMARK  10 active torsions:
REMARK  status: ('A' for Active; 'I' for Inactive)
REMARK    1  A    between atoms: C_1  and  C_2
REMARK    2  A    between atoms: C_5  and  C_41
REMARK    3  A    between atoms: C_9  and  C_14
REMARK    4  A    between atoms: C_14  and  C_16
REMARK    5  A    between atoms: C_14  and  N_76
REMARK    6  A    between atoms: N_20  and  C_21
REMARK    7  A    between atoms: C_27  and  C_28
REMARK    8  A    between atoms: C_27  and  N_76
REMARK    9  A    between atoms: C_34  and  C_35
REMARK   10  A    between atoms: C_34  and  N_76
REMARK                            x       y       z     vdW  Elec       q    Type
REMARK                         _______ _______ _______ _____ _____    ______ ____
ROOT
ATOM      1  C   UNL     1       4.084  -0.018  -2.368  0.00  0.00    +0.039 C 
ENDROOT
BRANCH   1  10
ATOM      2  C   UNL     1       5.167   1.909  -7.083  0.00  0.00    +0.044 C 
ATOM      3  C   UNL     1       3.682   2.052  -6.871  0.00  0.00    -0.041 A 
ATOM      4  C   UNL     1       2.900   2.609  -7.843  0.00  0.00    +0.004 A 
ATOM      5  C   UNL     1       1.532   2.745  -7.658  0.00  0.00    +0.005 A 
ATOM      6  C   UNL     1       0.934   2.321  -6.490  0.00  0.00    -0.026 A 
ATOM      7  C   UNL     1       1.709   1.750  -5.486  0.00  0.00    +0.052 A 
ATOM      8  C   UNL     1       3.097   1.614  -5.678  0.00  0.00    +0.002 A 
ATOM      9  C   UNL     1       3.905   1.017  -4.613  0.00  0.00    +0.018 A 
ATOM     10  C   UNL     1       3.283   0.606  -3.481  0.00  0.00    +0.011 A 
ATOM     11  C   UNL     1       1.888   0.765  -3.339  0.00  0.00    +0.251 A 
ATOM     12  O   UNL     1       1.349   0.393  -2.311  0.00  0.00    -0.268 OA
ATOM     13  N   UNL     1       1.138   1.317  -4.309  0.00  0.00    -0.322 N 
ATOM     14  H   UNL     1       0.181   1.412  -4.178  0.00  0.00    +0.169 HD
ATOM     15  C   UNL     1      -0.553   2.475  -6.303  0.00  0.00    +0.046 C 
ENDBRANCH   1  10
BRANCH   1  16
ATOM     16  C   UNL     1       3.438  -1.314  -1.949  0.00  0.00    +0.143 A 
ATOM     17  N   UNL     1       2.154  -1.574  -1.919  0.00  0.00    -0.115 NA
ATOM     18  N   UNL     1       2.003  -2.786  -1.506  0.00  0.00    -0.023 NA
ATOM     19  N   UNL     1       3.158  -3.305  -1.273  0.00  0.00    -0.044 NA
ATOM     20  N   UNL     1       4.069  -2.430  -1.539  0.00  0.00    -0.227 N 
BRANCH  20  21
ATOM     21  C   UNL     1       5.516  -2.617  -1.415  0.00  0.00    +0.111 C 
ATOM     22  C   UNL     1       5.963  -3.763  -2.325  0.00  0.00    +0.027 C 
ATOM     23  C   UNL     1       7.475  -3.958  -2.195  0.00  0.00    +0.002 C 
ATOM     24  C   UNL     1       7.824  -4.293  -0.744  0.00  0.00    +0.000 C 
ATOM     25  C   UNL     1       7.377  -3.146   0.166  0.00  0.00    +0.002 C 
ATOM     26  C   UNL     1       5.865  -2.952   0.036  0.00  0.00    +0.027 C 
ENDBRANCH  20  21
ENDBRANCH   1  16
BRANCH   1  27
ATOM     27  N   UNL     1       4.145   0.888  -1.202  0.00  0.00    +0.394 N 
ATOM     28  H   UNL     1       4.749   0.469  -0.484  0.00  0.00    -0.080 HD
BRANCH  27  29
ATOM     29  C   UNL     1       2.792   1.079  -0.639  0.00  0.00    -0.040 C 
BRANCH  29  30
ATOM     30  C   UNL     1       2.921   1.661   0.745  0.00  0.00    -0.046 A 
ATOM     31  C   UNL     1       2.929   3.035   0.931  0.00  0.00    +0.005 A 
ATOM     32  C   UNL     1       3.056   3.526   2.221  0.00  0.00    +0.020 A 
ATOM     33  C   UNL     1       3.159   2.635   3.273  0.00  0.00    +0.111 A 
ATOM     34  N   UNL     1       3.147   1.334   3.059  0.00  0.00    -0.263 NA
ATOM     35  C   UNL     1       3.034   0.832   1.845  0.00  0.00    +0.112 A 
ENDBRANCH  29  30
ENDBRANCH  27  29
BRANCH  27  36
ATOM     36  C   UNL     1       4.713   2.192  -1.604  0.00  0.00    -0.045 C 
BRANCH  36  37
ATOM     37  C   UNL     1       6.235   2.124  -1.464  0.00  0.00    +0.102 C 
ATOM     38  C   UNL     1       6.884   3.413  -2.015  0.00  0.00    +0.032 C 
ATOM     39  C   UNL     1       8.181   2.920  -2.695  0.00  0.00    +0.030 C 
ATOM     40  C   UNL     1       8.163   1.391  -2.474  0.00  0.00    +0.160 C 
ATOM     41  O   UNL     1       6.769   1.062  -2.285  0.00  0.00    -0.378 OA
ENDBRANCH  36  37
ENDBRANCH  27  36
ENDBRANCH   1  27
TORSDOF 8
