REMARK  Name = ZINC44711228
REMARK  6 active torsions:
REMARK  status: ('A' for Active; 'I' for Inactive)
REMARK    1  A    between atoms: C_1  and  C_2
REMARK    2  A    between atoms: C_2  and  N_3
REMARK    3  A    between atoms: N_3  and  C_4
REMARK    4  A    between atoms: C_9  and  C_10
REMARK    5  A    between atoms: C_11  and  C_13
REMARK    6  A    between atoms: C_13  and  N_14
REMARK                            x       y       z     vdW  Elec       q    Type
REMARK                         _______ _______ _______ _____ _____    ______ ____
ROOT
ATOM      1  C   UNL     1       2.801  -0.427  -0.132  0.00  0.00    +0.210 C 
ENDROOT
BRANCH   1   2
ATOM      2  N   UNL     1       4.220  -0.727   0.073  0.00  0.00    -0.258 N 
ATOM      3  C   UNL     1       5.167   0.186   0.523  0.00  0.00    +0.046 A 
ATOM      4  C   UNL     1       5.190   1.515   0.901  0.00  0.00    +0.024 A 
ATOM      5  C   UNL     1       6.387   2.103   1.310  0.00  0.00    +0.002 A 
ATOM      6  C   UNL     1       7.575   1.426   1.363  0.00  0.00    +0.008 A 
ATOM      7  C   UNL     1       7.594   0.073   0.986  0.00  0.00    -0.015 A 
ATOM      8  C   UNL     1       6.382  -0.489   0.582  0.00  0.00    +0.016 A 
ATOM      9  C   UNL     1       6.226  -1.822   0.174  0.00  0.00    +0.047 A 
ATOM     10  C   UNL     1       7.362  -2.612   0.184  0.00  0.00    +0.014 A 
ATOM     11  C   UNL     1       8.581  -2.067   0.586  0.00  0.00    +0.001 A 
ATOM     12  C   UNL     1       8.723  -0.763   0.981  0.00  0.00    +0.008 A 
ATOM     13  C   UNL     1       4.798  -1.938  -0.143  0.00  0.00    +0.252 C 
ATOM     14  O   UNL     1       4.231  -2.941  -0.535  0.00  0.00    -0.270 OA
ENDBRANCH   1   2
BRANCH   1  16
ATOM     15  N   UNL     1       0.711  -0.489   1.189  0.00  0.00    -0.270 N 
ATOM     16  C   UNL     1       2.042  -0.696   1.142  0.00  0.00    +0.238 C 
ATOM     17  O   UNL     1       2.628  -1.097   2.124  0.00  0.00    -0.274 OA
BRANCH  15  18
ATOM     18  C   UNL     1       0.005  -0.739   2.372  0.00  0.00    +0.039 A 
ATOM     19  C   UNL     1      -0.529  -1.998   2.611  0.00  0.00    +0.024 A 
ATOM     20  C   UNL     1      -1.224  -2.241   3.779  0.00  0.00    +0.002 A 
ATOM     21  C   UNL     1      -1.389  -1.232   4.710  0.00  0.00    +0.000 A 
ATOM     22  C   UNL     1      -0.859   0.023   4.474  0.00  0.00    +0.005 A 
ATOM     23  C   UNL     1      -0.157   0.271   3.311  0.00  0.00    -0.029 A 
ATOM     24  C   UNL     1       0.426   1.637   3.058  0.00  0.00    +0.045 C 
ENDBRANCH  15  18
BRANCH  15  26
ATOM     25  C   UNL     1      -0.019   1.526   0.010  0.00  0.00    +0.025 C 
ATOM     26  C   UNL     1       0.002  -0.004   0.002  0.00  0.00    +0.110 C 
ENDBRANCH  15  26
ENDBRANCH   1  16
TORSDOF 4
