REMARK  Name = ZINC14475670
REMARK  8 active torsions:
REMARK  status: ('A' for Active; 'I' for Inactive)
REMARK    1  A    between atoms: C_4  and  C_7
REMARK    2  A    between atoms: C_7  and  C_8
REMARK    3  A    between atoms: C_8  and  N_9
REMARK    4  A    between atoms: N_9  and  S_10
REMARK    5  A    between atoms: S_10  and  C_13
REMARK    6  A    between atoms: C_26  and  C_29
REMARK    7  A    between atoms: C_31  and  N_36
REMARK    8  A    between atoms: C_34  and  O_35
REMARK                            x       y       z     vdW  Elec       q    Type
REMARK                         _______ _______ _______ _____ _____    ______ ____
ROOT
ATOM      1  C   UNL     1       1.404   2.798   1.424  0.00  0.00    +0.106 A 
ATOM      2  C   UNL     1       2.009   2.158   2.491  0.00  0.00    +0.030 A 
ATOM      3  C   UNL     1       2.113   2.804   3.706  0.00  0.00    +0.025 A 
ATOM      4  C   UNL     1       1.610   4.092   3.854  0.00  0.00    +0.031 A 
ATOM      5  C   UNL     1       1.002   4.734   2.790  0.00  0.00    -0.018 A 
ATOM      6  C   UNL     1       0.909   4.078   1.570  0.00  0.00    +0.034 A 
ATOM      7  C   UNL     1       0.442   6.137   2.886  0.00  0.00    +0.049 C 
ATOM      8  C   UNL     1      -1.050   6.036   2.562  0.00  0.00    -0.023 C 
ATOM      9  C   UNL     1      -1.757   5.961   3.661  0.00  0.00    -0.030 C 
ATOM     10  C   UNL     1      -0.852   5.992   4.879  0.00  0.00    +0.033 C 
ATOM     11  C   UNL     1       0.436   6.656   4.335  0.00  0.00    +0.029 C 
ATOM     12  C   UNL     1       1.655   6.198   5.113  0.00  0.00    +0.108 C 
ATOM     13  N   UNL     1       1.728   4.732   5.093  0.00  0.00    -0.336 N 
ATOM     14  H   UNL     1       1.871   4.176   6.031  0.00  0.00    +0.147 HD
ENDROOT
BRANCH  12  15
ATOM     15  C   UNL     1       2.898   6.771   4.482  0.00  0.00    +0.017 A 
ATOM     16  C   UNL     1       3.695   5.978   3.679  0.00  0.00    +0.041 A 
ATOM     17  C   UNL     1       4.835   6.503   3.100  0.00  0.00    +0.127 A 
ATOM     18  C   UNL     1       5.180   7.824   3.321  0.00  0.00    +0.036 A 
ATOM     19  C   UNL     1       4.387   8.621   4.123  0.00  0.00    +0.048 A 
ATOM     20  C   UNL     1       3.239   8.098   4.702  0.00  0.00    +0.122 A 
BRANCH  17  21
ATOM     21  N   UNL     1       5.686   5.651   2.240  0.00  0.00    +0.056 N 
ATOM     22  O   UNL     1       5.383   4.488   2.044  0.00  0.00    -0.126 OA
ATOM     23  O   UNL     1       6.691   6.113   1.729  0.00  0.00    -0.126 OA
ENDBRANCH  17  21
BRANCH  20  24
ATOM     24  O   UNL     1       2.454   8.882   5.486  0.00  0.00    -0.506 OA
ATOM     25  H   UNL     1       2.726   9.933   5.660  0.00  0.00    +0.292 HD
ENDBRANCH  20  24
ENDBRANCH  12  15
BRANCH   1  26
ATOM     26  S   UNL     1       1.271   1.978  -0.130  0.00  0.00    +0.058 S 
ATOM     27  O   UNL     1       2.301   1.000  -0.163  0.00  0.00    -0.153 OA
ATOM     28  O   UNL     1       1.153   2.994  -1.117  0.00  0.00    -0.153 OA
BRANCH  26  29
ATOM     29  N   UNL     1      -0.165   1.153  -0.126  0.00  0.00    -0.190 NA
ATOM     30  H   UNL     1      -0.157   0.060   0.004  0.00  0.00    +0.148 HD
BRANCH  29  31
ATOM     31  C   UNL     1      -1.432   1.887  -0.076  0.00  0.00    +0.110 C 
BRANCH  31  32
ATOM     32  C   UNL     1      -2.579   0.951  -0.462  0.00  0.00    +0.052 C 
BRANCH  32  36
ATOM     33  C   UNL     1      -6.273   3.091  -0.316  0.00  0.00    +0.000 A 
ATOM     34  C   UNL     1      -5.541   3.056  -1.488  0.00  0.00    +0.000 A 
ATOM     35  C   UNL     1      -4.346   2.363  -1.535  0.00  0.00    +0.003 A 
ATOM     36  C   UNL     1      -3.882   1.706  -0.410  0.00  0.00    -0.046 A 
ATOM     37  C   UNL     1      -4.617   1.738   0.760  0.00  0.00    +0.003 A 
ATOM     38  C   UNL     1      -5.810   2.434   0.809  0.00  0.00    +0.000 A 
ENDBRANCH  32  36
ENDBRANCH  31  32
ENDBRANCH  29  31
ENDBRANCH  26  29
ENDBRANCH   1  26
TORSDOF 8
