REMARK  Name = ZINC44893672
REMARK  2 active torsions:
REMARK  status: ('A' for Active; 'I' for Inactive)
REMARK    1  A    between atoms: C_8  and  C_10
REMARK    2  A    between atoms: C_11  and  C_12
REMARK                            x       y       z     vdW  Elec       q    Type
REMARK                         _______ _______ _______ _____ _____    ______ ____
ROOT
ATOM      1  C   UNL     1       3.796  -3.316  -0.053  0.00  0.00    +0.051 C 
ATOM      2  C   UNL     1       5.147  -3.213  -0.061  0.00  0.00    +0.071 C 
ENDROOT
BRANCH   2   3
ATOM      3  C   UNL     1       5.947  -4.384  -0.080  0.00  0.00    +0.240 C 
ATOM      4  O   UNL     1       5.423  -5.480   0.007  0.00  0.00    -0.271 OA
ATOM      5  N   UNL     1       7.286  -4.284  -0.194  0.00  0.00    -0.288 N 
ATOM      6  C   UNL     1       8.135  -5.480  -0.328  0.00  0.00    +0.127 C 
ATOM      7  C   UNL     1       8.861  -5.402  -1.672  0.00  0.00    +0.123 C 
ATOM      8  N   UNL     1       9.434  -4.079  -1.874  0.00  0.00    -0.313 N 
ATOM      9  C   UNL     1       9.021  -2.972  -1.255  0.00  0.00    +0.230 C 
ATOM     10  O   UNL     1       9.524  -1.913  -1.566  0.00  0.00    -0.274 OA
ATOM     11  C   UNL     1       7.958  -2.976  -0.196  0.00  0.00    +0.203 C 
ATOM     12  H   UNL     1      10.168  -3.996  -2.503  0.00  0.00    +0.149 HD
ENDBRANCH   2   3
BRANCH   1  20
ATOM     13  C   UNL     1      -0.015   1.364   0.025  0.00  0.00    +0.001 A 
ATOM     14  C   UNL     1       1.173   2.083   0.026  0.00  0.00    +0.004 A 
ATOM     15  C   UNL     1       2.389   1.435   0.011  0.00  0.00    +0.047 A 
ATOM     16  C   UNL     1       2.433   0.046  -0.005  0.00  0.00    +0.136 A 
ATOM     17  C   UNL     1       1.226  -0.679  -0.005  0.00  0.00    +0.021 A 
ATOM     18  C   UNL     1       0.003  -0.002   0.010  0.00  0.00    +0.011 A 
ATOM     19  C   UNL     1       1.610  -2.089  -0.024  0.00  0.00    +0.057 A 
ATOM     20  C   UNL     1       2.972  -2.109  -0.034  0.00  0.00    +0.129 A 
ATOM     21  O   UNL     1       3.445  -0.845  -0.022  0.00  0.00    -0.455 OA
ENDBRANCH   1  20
TORSDOF 2
