REMARK  Name = ZINC09158476
REMARK  8 active torsions:
REMARK  status: ('A' for Active; 'I' for Inactive)
REMARK    1  A    between atoms: C_1  and  O_2
REMARK    2  A    between atoms: O_2  and  C_3
REMARK    3  A    between atoms: C_6  and  C_9
REMARK    4  A    between atoms: C_14  and  O_38
REMARK    5  A    between atoms: C_22  and  C_27
REMARK    6  A    between atoms: C_27  and  O_28
REMARK    7  A    between atoms: O_28  and  N_29
REMARK    8  A    between atoms: C_30  and  C_31
REMARK                            x       y       z     vdW  Elec       q    Type
REMARK                         _______ _______ _______ _____ _____    ______ ____
ROOT
ATOM      1  C   UNL     1       0.015  -3.214  -2.982  0.00  0.00    +0.091 C 
ATOM      2  C   UNL     1       0.450  -4.551  -3.519  0.00  0.00    +0.007 A 
ATOM      3  C   UNL     1       0.850  -4.659  -4.838  0.00  0.00    +0.012 A 
ATOM      4  C   UNL     1       1.256  -5.878  -5.345  0.00  0.00    +0.046 A 
ATOM      5  C   UNL     1       1.264  -7.000  -4.528  0.00  0.00    +0.120 A 
ATOM      6  C   UNL     1       0.863  -6.895  -3.206  0.00  0.00    +0.092 A 
ATOM      7  C   UNL     1       0.452  -5.668  -2.698  0.00  0.00    +0.138 A 
ATOM      8  O   UNL     1       0.061  -5.585  -1.405  0.00  0.00    -0.437 OA
ATOM      9  C   UNL     1       0.052  -4.391  -0.768  0.00  0.00    +0.230 A 
ATOM     10  C   UNL     1       0.030  -3.224  -1.484  0.00  0.00    +0.070 A 
ATOM     11  C   UNL     1       0.022  -2.030  -0.746  0.00  0.00    +0.167 A 
ATOM     12  N   UNL     1      -0.003  -0.764  -1.091  0.00  0.00    -0.207 NA
ATOM     13  C   UNL     1       0.002  -0.004   0.002  0.00  0.00    +0.192 A 
ATOM     14  N   UNL     1       0.022  -0.767   1.074  0.00  0.00    -0.145 NA
ATOM     15  N   UNL     1       0.035  -2.083   0.636  0.00  0.00    -0.201 N 
ATOM     16  C   UNL     1       0.058  -3.273   1.287  0.00  0.00    +0.229 A 
ATOM     17  N   UNL     1       0.066  -4.373   0.574  0.00  0.00    -0.201 NA
ENDROOT
BRANCH   1  21
ATOM     18  C   UNL     1      -3.943  -2.360  -4.350  0.00  0.00    +0.120 A 
ATOM     19  C   UNL     1      -2.896  -1.510  -4.676  0.00  0.00    +0.046 A 
ATOM     20  C   UNL     1      -1.618  -1.788  -4.232  0.00  0.00    +0.008 A 
ATOM     21  C   UNL     1      -1.381  -2.913  -3.464  0.00  0.00    -0.035 A 
ATOM     22  C   UNL     1      -2.421  -3.765  -3.143  0.00  0.00    +0.008 A 
ATOM     23  C   UNL     1      -3.702  -3.488  -3.579  0.00  0.00    +0.046 A 
BRANCH  18  25
ATOM     24  C   UNL     1      -6.229  -3.008  -4.411  0.00  0.00    +0.277 C 
ATOM     25  O   UNL     1      -5.201  -2.088  -4.785  0.00  0.00    -0.495 OA
ENDBRANCH  18  25
ENDBRANCH   1  21
BRANCH   5  26
ATOM     26  O   UNL     1       1.665  -8.200  -5.024  0.00  0.00    -0.507 OA
ATOM     27  H   UNL     1       0.949  -8.726  -5.406  0.00  0.00    +0.292 HD
ENDBRANCH   5  26
BRANCH  13  28
ATOM     28  C   UNL     1      -0.018   1.503   0.010  0.00  0.00    +0.340 C 
BRANCH  28  29
ATOM     29  O   UNL     1       1.322   1.997   0.000  0.00  0.00    -0.386 OA
BRANCH  29  30
ATOM     30  N   UNL     1       1.415   3.410   0.007  0.00  0.00    -0.092 NA
ATOM     31  C   UNL     1       2.575   3.982  -0.001  0.00  0.00    +0.162 C 
BRANCH  31  32
ATOM     32  C   UNL     1       2.672   5.455   0.006  0.00  0.00    +0.014 A 
ATOM     33  C   UNL     1       3.922   6.076  -0.003  0.00  0.00    +0.011 A 
ATOM     34  C   UNL     1       4.005   7.453   0.003  0.00  0.00    +0.001 A 
ATOM     35  C   UNL     1       2.853   8.220   0.018  0.00  0.00    +0.001 A 
ATOM     36  C   UNL     1       1.611   7.612   0.026  0.00  0.00    +0.020 A 
ATOM     37  C   UNL     1       1.512   6.235   0.015  0.00  0.00    +0.050 A 
ATOM     38 CL   UNL     1      -0.048   5.474   0.019  0.00  0.00    -0.083 Cl
ENDBRANCH  31  32
ENDBRANCH  29  30
ENDBRANCH  28  29
ENDBRANCH  13  28
TORSDOF 7
