REMARK  Name = ZINC18193262
REMARK  7 active torsions:
REMARK  status: ('A' for Active; 'I' for Inactive)
REMARK    1  A    between atoms: C_9  and  N_11
REMARK    2  A    between atoms: N_11  and  N_12
REMARK    3  A    between atoms: C_13  and  C_14
REMARK    4  A    between atoms: C_17  and  O_21
REMARK    5  A    between atoms: O_21  and  C_22
REMARK    6  A    between atoms: C_22  and  C_23
REMARK    7  A    between atoms: C_28  and  C_29
REMARK                            x       y       z     vdW  Elec       q    Type
REMARK                         _______ _______ _______ _____ _____    ______ ____
ROOT
ATOM      1  C   UNL     1      -1.708   9.877   0.077  0.00  0.00    -0.004 A 
ATOM      2  C   UNL     1      -2.881   9.117   0.077  0.00  0.00    +0.013 A 
ATOM      3  C   UNL     1      -4.107   9.746   0.098  0.00  0.00    +0.047 A 
ATOM      4  C   UNL     1      -4.179  11.133   0.107  0.00  0.00    +0.135 A 
ATOM      5  C   UNL     1      -3.015  11.893   0.101  0.00  0.00    +0.060 A 
ATOM      6  C   UNL     1      -1.784  11.272   0.086  0.00  0.00    +0.028 A 
ATOM      7 BR   UNL     1      -3.121  13.781   0.114  0.00  0.00    -0.046 Br
ENDROOT
BRANCH   1   9
ATOM      8  N   UNL     1      -0.326   7.912   0.051  0.00  0.00    -0.189 NA
ATOM      9  C   UNL     1      -0.394   9.209   0.060  0.00  0.00    +0.138 C 
BRANCH   8  10
ATOM     10  N   UNL     1       0.923   7.277   0.035  0.00  0.00    -0.221 N 
ATOM     11  H   UNL     1       1.736   7.806   0.031  0.00  0.00    +0.176 HD
BRANCH  10  20
ATOM     12  C   UNL     1      -0.013   1.076   0.008  0.00  0.00    +0.001 A 
ATOM     13  C   UNL     1      -1.233   1.747   0.017  0.00  0.00    +0.002 A 
ATOM     14  C   UNL     1      -1.286   3.107   0.031  0.00  0.00    +0.028 A 
ATOM     15  C   UNL     1      -0.094   3.852   0.024  0.00  0.00    +0.073 A 
ATOM     16  C   UNL     1       1.146   3.167   0.008  0.00  0.00    +0.001 A 
ATOM     17  C   UNL     1       1.163   1.764   0.000  0.00  0.00    +0.010 A 
ATOM     18  C   UNL     1       2.342   3.914   0.001  0.00  0.00    +0.013 A 
ATOM     19  C   UNL     1       2.255   5.273   0.011  0.00  0.00    +0.046 A 
ATOM     20  C   UNL     1       0.996   5.893   0.026  0.00  0.00    +0.139 A 
ATOM     21  N   UNL     1      -0.118   5.189   0.032  0.00  0.00    -0.231 NA
ENDBRANCH  10  20
ENDBRANCH   8  10
ENDBRANCH   1   9
BRANCH   4  22
ATOM     22  O   UNL     1      -5.390  11.749   0.121  0.00  0.00    -0.486 OA
BRANCH  22  23
ATOM     23  C   UNL     1      -6.545  10.908   0.126  0.00  0.00    +0.265 C 
BRANCH  23  24
ATOM     24  C   UNL     1      -7.787  11.761   0.142  0.00  0.00    +0.007 A 
ATOM     25  C   UNL     1      -7.682  13.136   0.156  0.00  0.00    +0.008 A 
ATOM     26  C   UNL     1      -8.821  13.921   0.166  0.00  0.00    +0.000 A 
ATOM     27  C   UNL     1     -10.074  13.332   0.173  0.00  0.00    +0.001 A 
ATOM     28  C   UNL     1     -10.194  11.959   0.165  0.00  0.00    +0.019 A 
ATOM     29  C   UNL     1      -9.048  11.161   0.150  0.00  0.00    +0.058 A 
BRANCH  29  30
ATOM     30  C   UNL     1      -9.165   9.733   0.142  0.00  0.00    +0.100 C 
ATOM     31  N   UNL     1      -9.258   8.601   0.136  0.00  0.00    -0.191 NA
ENDBRANCH  29  30
ENDBRANCH  23  24
ENDBRANCH  22  23
ENDBRANCH   4  22
TORSDOF 7
