REMARK  Name = ZINC12857030
REMARK  6 active torsions:
REMARK  status: ('A' for Active; 'I' for Inactive)
REMARK    1  A    between atoms: C_1  and  C_2
REMARK    2  A    between atoms: C_2  and  C_14
REMARK    3  A    between atoms: N_6  and  C_8
REMARK    4  A    between atoms: N_23  and  N_26
REMARK    5  A    between atoms: N_26  and  C_27
REMARK    6  A    between atoms: C_31  and  C_34
REMARK                            x       y       z     vdW  Elec       q    Type
REMARK                         _______ _______ _______ _____ _____    ______ ____
ROOT
ATOM      1  C   UNL     1       6.896   2.376  -1.058  0.00  0.00    +0.113 C 
ATOM      2  N   UNL     1       7.641   2.485  -0.030  0.00  0.00    -0.089 NA
ATOM      3  O   UNL     1       7.345   3.619   0.757  0.00  0.00    -0.380 OA
ATOM      4  C   UNL     1       6.049   4.106   0.369  0.00  0.00    +0.309 C 
ATOM      5  C   UNL     1       5.894   3.548  -1.080  0.00  0.00    +0.180 C 
ATOM      6  C   UNL     1       4.482   2.995  -1.053  0.00  0.00    +0.252 C 
ATOM      7  O   UNL     1       3.805   2.735  -2.025  0.00  0.00    -0.273 OA
ATOM      8  N   UNL     1       4.106   2.843   0.225  0.00  0.00    -0.150 N 
ATOM      9  C   UNL     1       4.975   3.343   1.117  0.00  0.00    +0.283 C 
ATOM     10  O   UNL     1       4.911   3.207   2.320  0.00  0.00    -0.269 OA
ENDROOT
BRANCH   1  12
ATOM     11  C   UNL     1       7.331   1.860  -3.459  0.00  0.00    +0.057 C 
ATOM     12  C   UNL     1       6.978   1.279  -2.088  0.00  0.00    +0.143 C 
ATOM     13  N   UNL     1       5.710   0.536  -2.152  0.00  0.00    -0.274 N 
ATOM     14  C   UNL     1       5.987  -0.739  -1.820  0.00  0.00    +0.322 C 
ATOM     15  O   UNL     1       5.159  -1.627  -1.773  0.00  0.00    -0.251 OA
ATOM     16  N   UNL     1       7.288  -0.907  -1.549  0.00  0.00    -0.187 N 
ATOM     17  N   UNL     1       7.974   0.266  -1.685  0.00  0.00    -0.204 NA
ATOM     18  H   UNL     1       4.840   0.895  -2.388  0.00  0.00    +0.152 HD
ATOM     19  H   UNL     1       8.703   0.180  -2.377  0.00  0.00    +0.148 HD
BRANCH  16  20
ATOM     20  C   UNL     1       7.868  -2.125  -1.175  0.00  0.00    +0.054 A 
ATOM     21  C   UNL     1       8.734  -2.179  -0.091  0.00  0.00    +0.025 A 
ATOM     22  C   UNL     1       9.300  -3.384   0.279  0.00  0.00    +0.002 A 
ATOM     23  C   UNL     1       9.014  -4.532  -0.436  0.00  0.00    +0.000 A 
ATOM     24  C   UNL     1       8.156  -4.480  -1.519  0.00  0.00    +0.002 A 
ATOM     25  C   UNL     1       7.582  -3.280  -1.891  0.00  0.00    +0.025 A 
ENDBRANCH  16  20
ENDBRANCH   1  12
BRANCH   8  26
ATOM     26  N   UNL     1       2.911   2.213   0.598  0.00  0.00    -0.227 N 
ATOM     27  C   UNL     1       2.889   0.767   0.832  0.00  0.00    +0.156 C 
ATOM     28  C   UNL     1       1.748   2.959   0.745  0.00  0.00    +0.156 A 
ATOM     29  C   UNL     1       1.356   3.385   2.012  0.00  0.00    +0.083 A 
ATOM     30  C   UNL     1       0.193   4.123   2.144  0.00  0.00    +0.037 A 
ATOM     31  C   UNL     1      -0.537   4.420   1.000  0.00  0.00    +0.074 A 
ATOM     32  C   UNL     1      -0.090   3.966  -0.224  0.00  0.00    +0.125 A 
ATOM     33  N   UNL     1       1.021   3.259  -0.320  0.00  0.00    -0.237 NA
ATOM     34 CL   UNL     1       2.310   2.989   3.407  0.00  0.00    -0.080 Cl
BRANCH  31  35
ATOM     35  C   UNL     1      -1.806   5.226   1.095  0.00  0.00    +0.419 C 
ATOM     36  F   UNL     1      -2.355   5.385  -0.182  0.00  0.00    -0.166 F 
ATOM     37  F   UNL     1      -2.722   4.559   1.916  0.00  0.00    -0.166 F 
ATOM     38  F   UNL     1      -1.521   6.483   1.640  0.00  0.00    -0.166 F 
ENDBRANCH  31  35
ENDBRANCH   8  26
TORSDOF 4
