REMARK  Name = ZINC17640788
REMARK  9 active torsions:
REMARK  status: ('A' for Active; 'I' for Inactive)
REMARK    1  A    between atoms: C_1  and  C_2
REMARK    2  A    between atoms: C_3  and  C_34
REMARK    3  A    between atoms: C_11  and  C_13
REMARK    4  A    between atoms: C_13  and  S_14
REMARK    5  A    between atoms: S_14  and  C_15
REMARK    6  A    between atoms: C_15  and  C_17
REMARK    7  A    between atoms: C_15  and  C_18
REMARK    8  A    between atoms: N_20  and  N_21
REMARK    9  A    between atoms: C_22  and  C_24
REMARK                            x       y       z     vdW  Elec       q    Type
REMARK                         _______ _______ _______ _____ _____    ______ ____
ROOT
ATOM      1  C   UNL     1      -5.400   0.939   0.156  0.00  0.00    +0.242 C 
ATOM      2  O   UNL     1      -5.319  -0.237  -0.130  0.00  0.00    -0.273 OA
ATOM      3  N   UNL     1      -6.571   1.449   0.586  0.00  0.00    -0.233 N 
ATOM      4  H   UNL     1      -6.636   2.389   0.815  0.00  0.00    +0.173 HD
ENDROOT
BRANCH   3   5
ATOM      5  N   UNL     1      -7.695   0.621   0.702  0.00  0.00    -0.230 N 
ATOM      6  C   UNL     1      -8.866   1.131   1.131  0.00  0.00    +0.267 C 
ATOM      7  O   UNL     1      -8.948   2.311   1.419  0.00  0.00    -0.268 OA
ATOM      8  H   UNL     1      -7.630  -0.320   0.473  0.00  0.00    +0.173 HD
BRANCH   6   9
ATOM      9  C   UNL     1     -10.042   0.264   1.253  0.00  0.00    +0.076 A 
ATOM     10  C   UNL     1     -11.323   0.583   1.669  0.00  0.00    +0.024 A 
ATOM     11  C   UNL     1     -12.275  -0.429   1.689  0.00  0.00    -0.036 A 
ATOM     12  C   UNL     1     -11.856  -1.662   1.324  0.00  0.00    -0.006 A 
ATOM     13  S   UNL     1     -10.200  -1.478   0.895  0.00  0.00    -0.088 S 
ATOM     14  C   UNL     1     -12.680  -2.930   1.314  0.00  0.00    +0.043 C 
ATOM     15  C   UNL     1     -13.730  -2.780   0.200  0.00  0.00    +0.005 C 
ATOM     16  C   UNL     1     -14.875  -1.915   0.671  0.00  0.00    +0.001 C 
ATOM     17  C   UNL     1     -14.586  -0.444   0.822  0.00  0.00    +0.005 C 
ATOM     18  C   UNL     1     -13.736  -0.150   2.060  0.00  0.00    +0.036 C 
ENDBRANCH   6   9
ENDBRANCH   3   5
BRANCH   1  19
ATOM     19  C   UNL     1      -4.191   1.830   0.032  0.00  0.00    +0.131 C 
ATOM     20  C   UNL     1      -4.277   2.628  -1.271  0.00  0.00    +0.029 C 
BRANCH  19  21
ATOM     21  S   UNL     1      -2.689   0.813   0.019  0.00  0.00    -0.141 S 
BRANCH  21  22
ATOM     22  C   UNL     1      -1.338   2.024   0.019  0.00  0.00    +0.144 C 
BRANCH  22  33
ATOM     23  C   UNL     1       4.944  -0.317  -0.048  0.00  0.00    +0.045 C 
ATOM     24  C   UNL     1       3.551  -0.893  -0.037  0.00  0.00    -0.026 A 
ATOM     25  C   UNL     1       3.366  -2.222  -0.042  0.00  0.00    -0.008 A 
ATOM     26  S   UNL     1       1.591  -2.392  -0.026  0.00  0.00    -0.073 S 
ATOM     27  C   UNL     1       1.151  -0.673  -0.013  0.00  0.00    +0.116 A 
ATOM     28  C   UNL     1       2.395  -0.017  -0.021  0.00  0.00    +0.075 A 
ATOM     29  C   UNL     1       2.339   1.415  -0.012  0.00  0.00    +0.260 A 
ATOM     30  O   UNL     1       3.364   2.075  -0.018  0.00  0.00    -0.267 OA
ATOM     31  N   UNL     1       1.137   2.020   0.002  0.00  0.00    -0.310 N 
ATOM     32  H   UNL     1       1.092   2.989   0.008  0.00  0.00    +0.170 HD
ATOM     33  C   UNL     1      -0.016   1.302   0.009  0.00  0.00    +0.121 A 
ATOM     34  N   UNL     1       0.002  -0.004   0.002  0.00  0.00    -0.226 NA
ATOM     35  C   UNL     1       4.409  -3.311  -0.058  0.00  0.00    +0.052 C 
ENDBRANCH  22  33
ENDBRANCH  21  22
ENDBRANCH  19  21
ENDBRANCH   1  19
TORSDOF 6
