REMARK  Name = ZINC20750731
REMARK  3 active torsions:
REMARK  status: ('A' for Active; 'I' for Inactive)
REMARK    1  A    between atoms: C_1  and  C_2
REMARK    2  A    between atoms: C_5  and  N_24
REMARK    3  A    between atoms: C_9  and  C_18
REMARK                            x       y       z     vdW  Elec       q    Type
REMARK                         _______ _______ _______ _____ _____    ______ ____
ROOT
ATOM      1  C   UNL     1      -1.050   5.183  -3.153  0.00  0.00    +0.045 C 
ATOM      2  C   UNL     1      -0.599   6.022  -1.985  0.00  0.00    -0.029 A 
ATOM      3  C   UNL     1      -0.715   7.395  -2.041  0.00  0.00    +0.007 A 
ATOM      4  C   UNL     1      -0.301   8.164  -0.969  0.00  0.00    +0.033 A 
ATOM      5  C   UNL     1       0.226   7.557   0.153  0.00  0.00    +0.132 A 
ATOM      6  C   UNL     1       0.349   6.176   0.219  0.00  0.00    +0.011 A 
ATOM      7  C   UNL     1      -0.067   5.406  -0.853  0.00  0.00    +0.037 A 
ATOM      8  N   UNL     1       0.025   4.014  -0.849  0.00  0.00    -0.336 N 
ATOM      9  C   UNL     1       1.088   3.534   0.035  0.00  0.00    +0.106 C 
ATOM     10  C   UNL     1       0.836   4.040   1.457  0.00  0.00    +0.029 C 
ATOM     11  C   UNL     1       0.935   5.580   1.465  0.00  0.00    +0.051 C 
ATOM     12  C   UNL     1       2.420   5.854   1.539  0.00  0.00    -0.023 C 
ATOM     13  C   UNL     1       3.056   4.809   2.004  0.00  0.00    -0.030 C 
ATOM     14  C   UNL     1       2.083   3.689   2.316  0.00  0.00    +0.033 C 
ATOM     15  H   UNL     1      -0.588   3.296  -1.412  0.00  0.00    +0.147 HD
ENDROOT
BRANCH   9  16
ATOM     16  C   UNL     1       1.101   2.027   0.033  0.00  0.00    -0.009 A 
ATOM     17  C   UNL     1       2.303   1.335   0.030  0.00  0.00    +0.008 A 
ATOM     18  C   UNL     1       2.266  -0.051   0.029  0.00  0.00    +0.020 A 
ATOM     19  C   UNL     1       1.042  -0.692   0.030  0.00  0.00    +0.111 A 
ATOM     20  N   UNL     1      -0.081  -0.002   0.033  0.00  0.00    -0.263 NA
ATOM     21  C   UNL     1      -0.085   1.317   0.034  0.00  0.00    +0.116 A 
ENDBRANCH   9  16
BRANCH   5  22
ATOM     22  N   UNL     1       0.666   8.388   1.296  0.00  0.00    +0.057 N 
ATOM     23  O   UNL     1       0.561   9.600   1.245  0.00  0.00    -0.126 OA
ATOM     24  O   UNL     1       1.133   7.859   2.289  0.00  0.00    -0.126 OA
ENDBRANCH   5  22
TORSDOF 2
