REMARK  Name = ZINC19852428
REMARK  7 active torsions:
REMARK  status: ('A' for Active; 'I' for Inactive)
REMARK    1  A    between atoms: C_3  and  O_26
REMARK    2  A    between atoms: C_6  and  C_7
REMARK    3  A    between atoms: C_16  and  C_24
REMARK    4  A    between atoms: C_17  and  N_23
REMARK    5  A    between atoms: C_18  and  C_19
REMARK    6  A    between atoms: C_18  and  C_21
REMARK    7  A    between atoms: O_26  and  C_27
REMARK                            x       y       z     vdW  Elec       q    Type
REMARK                         _______ _______ _______ _____ _____    ______ ____
ROOT
ATOM      1  C   UNL     1       2.222   3.700  -0.996  0.00  0.00    +0.066 C 
ATOM      2  C   UNL     1       0.915   3.246  -0.344  0.00  0.00    +0.030 C 
ATOM      3  C   UNL     1      -0.286   3.956  -0.920  0.00  0.00    +0.009 C 
ATOM      4  C   UNL     1      -1.029   3.091  -1.936  0.00  0.00    +0.005 C 
ATOM      5  C   UNL     1      -1.464   1.794  -1.246  0.00  0.00    +0.027 C 
ATOM      6  C   UNL     1      -0.220   1.077  -0.788  0.00  0.00    -0.022 C 
ATOM      7  C   UNL     1       0.850   1.749  -0.411  0.00  0.00    -0.029 C 
ATOM      8  C   UNL     1       2.080   1.007  -0.028  0.00  0.00    +0.074 C 
ATOM      9  C   UNL     1       3.257   1.676   0.059  0.00  0.00    +0.054 C 
ATOM     10  C   UNL     1       3.396   3.148  -0.187  0.00  0.00    +0.188 C 
ENDROOT
BRANCH   1  16
ATOM     11  C   UNL     1       1.921   5.921   0.116  0.00  0.00    +0.007 A 
ATOM     12  C   UNL     1       1.981   7.302   0.108  0.00  0.00    +0.046 A 
ATOM     13  C   UNL     1       2.393   7.970  -1.036  0.00  0.00    +0.130 A 
ATOM     14  C   UNL     1       2.749   7.249  -2.167  0.00  0.00    +0.046 A 
ATOM     15  C   UNL     1       2.693   5.869  -2.151  0.00  0.00    +0.007 A 
ATOM     16  C   UNL     1       2.282   5.206  -1.010  0.00  0.00    -0.041 A 
BRANCH  13  17
ATOM     17  O   UNL     1       2.448   9.328  -1.049  0.00  0.00    -0.406 OA
BRANCH  17  18
ATOM     18  C   UNL     1       2.067  10.004   0.151  0.00  0.00    +0.575 C 
ATOM     19  F   UNL     1       2.904   9.603   1.198  0.00  0.00    -0.133 F 
ATOM     20  F   UNL     1       2.181  11.385  -0.036  0.00  0.00    -0.133 F 
ATOM     21  F   UNL     1       0.741   9.684   0.465  0.00  0.00    -0.133 F 
ENDBRANCH  17  18
ENDBRANCH  13  17
ENDBRANCH   1  16
BRANCH   9  22
ATOM     22  N   UNL     1       4.379   0.968   0.390  0.00  0.00    -0.358 N 
ATOM     23  H   UNL     1       5.349   1.481   0.469  0.00  0.00    +0.142 HD
ATOM     24  H   UNL     1       4.311  -0.114   0.577  0.00  0.00    +0.142 HD
ENDBRANCH   9  22
BRANCH  10  25
ATOM     25  C   UNL     1       3.458   3.846   1.107  0.00  0.00    +0.091 C 
ATOM     26  N   UNL     1       3.505   4.386   2.106  0.00  0.00    -0.194 NA
ENDBRANCH  10  25
BRANCH  10  27
ATOM     27  C   UNL     1       4.645   3.396  -0.925  0.00  0.00    +0.091 C 
ATOM     28  N   UNL     1       5.608   3.587  -1.496  0.00  0.00    -0.194 NA
ENDBRANCH  10  27
BRANCH   8  29
ATOM     29  C   UNL     1       2.023  -0.397   0.247  0.00  0.00    +0.101 C 
ATOM     30  N   UNL     1       1.977  -1.511   0.465  0.00  0.00    -0.191 NA
ENDBRANCH   8  29
TORSDOF 7
