REMARK  Name = ZINC08923367
REMARK  6 active torsions:
REMARK  status: ('A' for Active; 'I' for Inactive)
REMARK    1  A    between atoms: C_1  and  C_2
REMARK    2  A    between atoms: C_5  and  N_8
REMARK    3  A    between atoms: C_22  and  S_23
REMARK    4  A    between atoms: S_23  and  C_24
REMARK    5  A    between atoms: C_24  and  C_25
REMARK    6  A    between atoms: C_33  and  C_37
REMARK                            x       y       z     vdW  Elec       q    Type
REMARK                         _______ _______ _______ _____ _____    ______ ____
ROOT
ATOM      1  N   UNL     1       9.981   6.946  -0.057  0.00  0.00    -0.254 N 
ATOM      2  C   UNL     1      11.222   7.119  -0.560  0.00  0.00    +0.283 A 
ATOM      3  O   UNL     1      11.569   8.201  -1.004  0.00  0.00    -0.265 OA
ATOM      4  C   UNL     1      12.109   6.022  -0.562  0.00  0.00    +0.132 A 
ATOM      5  C   UNL     1      11.665   4.806  -0.043  0.00  0.00    +0.104 A 
ATOM      6  C   UNL     1      12.784   3.863  -0.175  0.00  0.00    +0.026 A 
ATOM      7  C   UNL     1      12.951   2.518   0.157  0.00  0.00    +0.012 A 
ATOM      8  C   UNL     1      14.142   1.897  -0.096  0.00  0.00    +0.001 A 
ATOM      9  C   UNL     1      15.189   2.595  -0.682  0.00  0.00    +0.002 A 
ATOM     10  C   UNL     1      15.045   3.923  -1.018  0.00  0.00    +0.026 A 
ATOM     11  C   UNL     1      13.840   4.575  -0.769  0.00  0.00    +0.049 A 
ATOM     12  N   UNL     1      13.417   5.868  -0.994  0.00  0.00    -0.349 N 
ATOM     13  H   UNL     1      13.956   6.567  -1.395  0.00  0.00    +0.166 HD
ATOM     14  N   UNL     1      10.419   4.704   0.447  0.00  0.00    -0.221 NA
ATOM     15  C   UNL     1       9.600   5.732   0.439  0.00  0.00    +0.177 A 
ENDROOT
BRANCH   1  20
ATOM     16  C   UNL     1       6.329  11.290   0.002  0.00  0.00    +0.044 C 
ATOM     17  C   UNL     1       7.299  10.136  -0.014  0.00  0.00    -0.050 A 
ATOM     18  C   UNL     1       7.346   9.288  -1.105  0.00  0.00    +0.005 A 
ATOM     19  C   UNL     1       8.233   8.230  -1.123  0.00  0.00    +0.026 A 
ATOM     20  C   UNL     1       9.080   8.019  -0.043  0.00  0.00    +0.052 A 
ATOM     21  C   UNL     1       9.027   8.869   1.054  0.00  0.00    +0.026 A 
ATOM     22  C   UNL     1       8.141   9.928   1.063  0.00  0.00    +0.005 A 
ENDBRANCH   1  20
BRANCH  15  23
ATOM     23  S   UNL     1       7.973   5.540   1.089  0.00  0.00    -0.078 S 
BRANCH  23  24
ATOM     24  C   UNL     1       8.033   3.799   1.578  0.00  0.00    +0.173 C 
BRANCH  24  25
ATOM     25  C   UNL     1       6.710   3.400   2.178  0.00  0.00    +0.229 C 
ATOM     26  O   UNL     1       5.814   4.213   2.267  0.00  0.00    -0.275 OA
ATOM     27  N   UNL     1       6.521   2.139   2.616  0.00  0.00    -0.264 N 
ATOM     28  C   UNL     1       5.305   1.772   3.168  0.00  0.00    +0.165 A 
ATOM     29  N   UNL     1       4.228   2.502   3.347  0.00  0.00    -0.225 NA
ATOM     30  C   UNL     1       3.101   2.009   3.903  0.00  0.00    +0.080 A 
ATOM     31  C   UNL     1       1.882   2.682   4.151  0.00  0.00    +0.029 A 
ATOM     32  C   UNL     1       0.826   2.028   4.728  0.00  0.00    +0.005 A 
ATOM     33  C   UNL     1       0.910   0.691   5.089  0.00  0.00    -0.049 A 
ATOM     34  C   UNL     1       2.087   0.002   4.862  0.00  0.00    +0.020 A 
ATOM     35  C   UNL     1       3.151   0.648   4.284  0.00  0.00    +0.041 A 
ATOM     36  S   UNL     1       4.801   0.185   3.818  0.00  0.00    -0.052 S 
ATOM     37  C   UNL     1      -0.268  -0.002   5.723  0.00  0.00    +0.044 C 
ATOM     38  H   UNL     1       7.237   1.489   2.546  0.00  0.00    +0.157 HD
ENDBRANCH  24  25
ENDBRANCH  23  24
ENDBRANCH  15  23
TORSDOF 4
