REMARK  Name = ZINC01283981
REMARK  10 active torsions:
REMARK  status: ('A' for Active; 'I' for Inactive)
REMARK    1  A    between atoms: C_1  and  C_2
REMARK    2  A    between atoms: C_9  and  N_13
REMARK    3  A    between atoms: C_10  and  C_11
REMARK    4  A    between atoms: C_14  and  C_16
REMARK    5  A    between atoms: C_16  and  C_17
REMARK    6  A    between atoms: C_17  and  C_18
REMARK    7  A    between atoms: C_20  and  O_27
REMARK    8  A    between atoms: C_21  and  O_25
REMARK    9  A    between atoms: O_25  and  C_26
REMARK   10  A    between atoms: O_27  and  C_28
REMARK                            x       y       z     vdW  Elec       q    Type
REMARK                         _______ _______ _______ _____ _____    ______ ____
ROOT
ATOM      1  N   UNL     1       0.696  -5.849   2.431  0.00  0.00    -0.279 N 
ATOM      2  C   UNL     1       1.678  -6.098   3.319  0.00  0.00    +0.218 C 
ATOM      3  O   UNL     1       2.384  -5.194   3.713  0.00  0.00    -0.275 OA
ATOM      4  H   UNL     1       0.132  -6.573   2.116  0.00  0.00    +0.155 HD
ENDROOT
BRANCH   1  12
ATOM      5  C   UNL     1      -0.019   1.526   0.010  0.00  0.00    +0.008 C 
ATOM      6  C   UNL     1       0.002  -0.004   0.002  0.00  0.00    -0.009 C 
ATOM      7  C   UNL     1      -1.434  -0.537   0.019  0.00  0.00    +0.008 C 
ATOM      8  C   UNL     1      -1.433  -2.045  -0.237  0.00  0.00    +0.037 C 
ATOM      9  C   UNL     1      -0.464  -2.704   0.734  0.00  0.00    -0.018 A 
ATOM     10  C   UNL     1       0.485  -1.986   1.374  0.00  0.00    -0.004 A 
ATOM     11  S   UNL     1       1.344  -3.168   2.371  0.00  0.00    -0.077 S 
ATOM     12  C   UNL     1       0.493  -4.558   1.966  0.00  0.00    +0.090 A 
ATOM     13  C   UNL     1      -0.459  -4.119   1.059  0.00  0.00    +0.084 A 
ATOM     14  C   UNL     1       0.739  -0.515   1.248  0.00  0.00    +0.046 C 
BRANCH  13  15
ATOM     15  C   UNL     1      -1.399  -5.024   0.469  0.00  0.00    +0.102 C 
ATOM     16  N   UNL     1      -2.144  -5.741   0.000  0.00  0.00    -0.191 NA
ENDBRANCH  13  15
ENDBRANCH   1  12
BRANCH   2  17
ATOM     17  C   UNL     1       1.900  -7.501   3.824  0.00  0.00    +0.101 C 
BRANCH  17  18
ATOM     18  C   UNL     1       3.066  -7.508   4.815  0.00  0.00    +0.045 C 
BRANCH  18  19
ATOM     19  C   UNL     1       3.287  -8.911   5.320  0.00  0.00    -0.029 A 
ATOM     20  C   UNL     1       4.301  -9.685   4.786  0.00  0.00    +0.054 A 
ATOM     21  C   UNL     1       4.506 -10.974   5.249  0.00  0.00    +0.162 A 
ATOM     22  C   UNL     1       3.690 -11.488   6.252  0.00  0.00    +0.163 A 
ATOM     23  C   UNL     1       2.675 -10.709   6.783  0.00  0.00    +0.065 A 
ATOM     24  C   UNL     1       2.479  -9.420   6.320  0.00  0.00    +0.025 A 
ATOM     25 BR   UNL     1       1.098  -8.354   7.051  0.00  0.00    -0.050 Br
BRANCH  22  26
ATOM     26  O   UNL     1       3.887 -12.754   6.710  0.00  0.00    -0.491 OA
ATOM     27  C   UNL     1       3.011 -13.215   7.740  0.00  0.00    +0.277 C 
ENDBRANCH  22  26
BRANCH  21  28
ATOM     28  O   UNL     1       5.503 -11.736   4.725  0.00  0.00    -0.491 OA
ATOM     29  C   UNL     1       6.302 -11.143   3.698  0.00  0.00    +0.277 C 
ENDBRANCH  21  28
ENDBRANCH  18  19
ENDBRANCH  17  18
ENDBRANCH   2  17
TORSDOF 7
