REMARK  Name = ZINC38577199
REMARK  7 active torsions:
REMARK  status: ('A' for Active; 'I' for Inactive)
REMARK    1  A    between atoms: C_1  and  C_2
REMARK    2  A    between atoms: C_2  and  S_3
REMARK    3  A    between atoms: S_3  and  C_4
REMARK    4  A    between atoms: C_10  and  C_12
REMARK    5  A    between atoms: C_15  and  C_18
REMARK    6  A    between atoms: C_21  and  C_25
REMARK    7  A    between atoms: C_23  and  O_24
REMARK                            x       y       z     vdW  Elec       q    Type
REMARK                         _______ _______ _______ _____ _____    ______ ____
ROOT
ATOM      1  C   UNL     1      -1.051  -8.765  -0.037  0.00  0.00    +0.239 C 
ATOM      2  C   UNL     1      -1.334  -9.253  -1.447  0.00  0.00    +0.041 C 
ATOM      3  C   UNL     1      -0.342 -10.130  -1.691  0.00  0.00    +0.095 C 
ATOM      4  N   UNL     1       0.484 -10.223  -0.616  0.00  0.00    -0.153 NA
ATOM      5  N   UNL     1       0.165  -9.506   0.340  0.00  0.00    -0.170 NA
ENDROOT
BRANCH   1  12
ATOM      6  C   UNL     1      -1.508  -2.383   0.004  0.00  0.00    +0.160 A 
ATOM      7  N   UNL     1      -0.406  -3.120  -0.005  0.00  0.00    -0.133 NA
ATOM      8  N   UNL     1      -0.447  -4.380  -0.012  0.00  0.00    -0.125 NA
ATOM      9  C   UNL     1      -1.591  -5.045  -0.012  0.00  0.00    +0.189 A 
ATOM     10  S   UNL     1      -2.746  -3.677   0.009  0.00  0.00    -0.024 S 
ATOM     11  N   UNL     1      -1.829  -6.417  -0.020  0.00  0.00    -0.261 N 
ATOM     12  C   UNL     1      -0.794  -7.281  -0.029  0.00  0.00    +0.249 C 
ATOM     13  O   UNL     1       0.345  -6.862  -0.030  0.00  0.00    -0.273 OA
ATOM     14  H   UNL     1      -2.739  -6.752  -0.019  0.00  0.00    +0.157 HD
BRANCH   6  15
ATOM     15  S   UNL     1      -1.700  -0.632   0.015  0.00  0.00    -0.097 S 
BRANCH  15  17
ATOM     16  C   UNL     1      -0.019   1.526   0.010  0.00  0.00    +0.016 C 
ATOM     17  C   UNL     1       0.002  -0.004   0.002  0.00  0.00    +0.073 C 
ENDBRANCH  15  17
ENDBRANCH   6  15
ENDBRANCH   1  12
BRANCH   3  18
ATOM     18  C   UNL     1      -0.173 -10.888  -2.955  0.00  0.00    +0.043 A 
ATOM     19  C   UNL     1       0.889 -11.777  -3.101  0.00  0.00    +0.014 A 
ATOM     20  C   UNL     1       1.040 -12.481  -4.279  0.00  0.00    +0.004 A 
ATOM     21  C   UNL     1       0.141 -12.305  -5.316  0.00  0.00    -0.047 A 
ATOM     22  C   UNL     1      -0.916 -11.426  -5.181  0.00  0.00    +0.049 A 
ATOM     23  C   UNL     1      -1.084 -10.717  -4.002  0.00  0.00    +0.126 A 
ATOM     24  C   UNL     1       0.316 -13.077  -6.599  0.00  0.00    +0.044 C 
BRANCH  23  25
ATOM     25  O   UNL     1      -2.126  -9.856  -3.866  0.00  0.00    -0.506 OA
ATOM     26  H   UNL     1      -1.930  -8.954  -4.153  0.00  0.00    +0.292 HD
ENDBRANCH  23  25
ENDBRANCH   3  18
TORSDOF 5
