REMARK  Name = ZINC21233662
REMARK  11 active torsions:
REMARK  status: ('A' for Active; 'I' for Inactive)
REMARK    1  A    between atoms: C_1  and  C_2
REMARK    2  A    between atoms: C_2  and  N_3
REMARK    3  A    between atoms: N_3  and  C_4
REMARK    4  A    between atoms: N_3  and  C_6
REMARK    5  A    between atoms: C_4  and  C_5
REMARK    6  A    between atoms: C_9  and  C_12
REMARK    7  A    between atoms: C_17  and  C_22
REMARK    8  A    between atoms: C_25  and  O_30
REMARK    9  A    between atoms: C_26  and  O_28
REMARK   10  A    between atoms: O_28  and  C_29
REMARK   11  A    between atoms: O_30  and  C_31
REMARK                            x       y       z     vdW  Elec       q    Type
REMARK                         _______ _______ _______ _____ _____    ______ ____
ROOT
ATOM      1  C   UNL     1      -2.624   2.361   2.570  0.00  0.00    +0.136 C 
ATOM      2  C   UNL     1      -2.153   1.840   1.232  0.00  0.00    +0.036 C 
ATOM      3  C   UNL     1      -2.918   1.661   0.143  0.00  0.00    +0.017 C 
ATOM      4  C   UNL     1      -2.316   1.104  -1.137  0.00  0.00    +0.059 C 
ATOM      5  C   UNL     1      -0.863   1.560  -1.269  0.00  0.00    +0.032 C 
ATOM      6  C   UNL     1      -0.097   1.034  -0.050  0.00  0.00    +0.088 C 
ATOM      7  C   UNL     1      -0.768   1.535   1.194  0.00  0.00    +0.163 C 
ATOM      8  O   UNL     1      -0.102   1.685   2.199  0.00  0.00    -0.292 OA
ATOM      9  N   UNL     1      -4.244   1.940   0.070  0.00  0.00    -0.316 N 
ATOM     10  C   UNL     1      -5.185   1.568   1.023  0.00  0.00    +0.052 A 
ATOM     11  C   UNL     1      -6.240   0.722   0.728  0.00  0.00    +0.025 A 
ATOM     12  C   UNL     1      -7.204   0.478   1.691  0.00  0.00    +0.002 A 
ATOM     13  C   UNL     1      -7.112   1.073   2.936  0.00  0.00    +0.002 A 
ATOM     14  C   UNL     1      -6.046   1.903   3.240  0.00  0.00    +0.025 A 
ATOM     15  C   UNL     1      -5.071   2.135   2.283  0.00  0.00    +0.049 A 
ATOM     16  N   UNL     1      -3.956   2.926   2.557  0.00  0.00    -0.331 N 
ATOM     17  H   UNL     1      -4.643   2.498  -0.790  0.00  0.00    +0.152 HD
ATOM     18  H   UNL     1      -4.102   3.996   2.766  0.00  0.00    +0.147 HD
ENDROOT
BRANCH   1  22
ATOM     19  C   UNL     1      -2.553  -0.860   5.379  0.00  0.00    +0.030 A 
ATOM     20  C   UNL     1      -1.733   0.246   5.566  0.00  0.00    +0.023 A 
ATOM     21  C   UNL     1      -1.758   1.285   4.657  0.00  0.00    +0.007 A 
ATOM     22  C   UNL     1      -2.599   1.225   3.560  0.00  0.00    -0.023 A 
ATOM     23  C   UNL     1      -3.420   0.129   3.373  0.00  0.00    +0.007 A 
ATOM     24  C   UNL     1      -3.396  -0.916   4.276  0.00  0.00    +0.023 A 
BRANCH  19  25
ATOM     25  N   UNL     1      -2.530  -1.912   6.296  0.00  0.00    -0.330 N 
BRANCH  25  27
ATOM     26  C   UNL     1      -2.655  -4.126   5.264  0.00  0.00    +0.024 C 
ATOM     27  C   UNL     1      -3.395  -3.077   6.097  0.00  0.00    +0.102 C 
ENDBRANCH  25  27
BRANCH  25  28
ATOM     28  C   UNL     1      -1.640  -1.851   7.458  0.00  0.00    +0.102 C 
ATOM     29  C   UNL     1      -2.371  -1.187   8.627  0.00  0.00    +0.024 C 
ENDBRANCH  25  28
ENDBRANCH  19  25
ENDBRANCH   1  22
BRANCH   5  30
ATOM     30  C   UNL     1      -0.263   0.997  -2.531  0.00  0.00    -0.040 A 
ATOM     31  C   UNL     1      -0.229  -0.371  -2.728  0.00  0.00    +0.008 A 
ATOM     32  C   UNL     1       0.320  -0.893  -3.885  0.00  0.00    +0.049 A 
ATOM     33  C   UNL     1       0.838  -0.044  -4.850  0.00  0.00    +0.161 A 
ATOM     34  C   UNL     1       0.804   1.333  -4.652  0.00  0.00    +0.162 A 
ATOM     35  C   UNL     1       0.247   1.849  -3.493  0.00  0.00    +0.053 A 
BRANCH  34  36
ATOM     36  O   UNL     1       1.310   2.170  -5.596  0.00  0.00    -0.491 OA
ATOM     37  C   UNL     1       1.241   3.571  -5.325  0.00  0.00    +0.277 C 
ENDBRANCH  34  36
BRANCH  33  38
ATOM     38  O   UNL     1       1.378  -0.555  -5.989  0.00  0.00    -0.491 OA
ATOM     39  C   UNL     1       1.378  -1.978  -6.124  0.00  0.00    +0.277 C 
ENDBRANCH  33  38
ENDBRANCH   5  30
TORSDOF 7
