REMARK  Name = ZINC11068308
REMARK  7 active torsions:
REMARK  status: ('A' for Active; 'I' for Inactive)
REMARK    1  A    between atoms: C_1  and  C_2
REMARK    2  A    between atoms: C_15  and  C_17
REMARK    3  A    between atoms: C_17  and  N_52
REMARK    4  A    between atoms: C_18  and  N_52
REMARK    5  A    between atoms: C_19  and  C_20
REMARK    6  A    between atoms: C_19  and  N_52
REMARK    7  A    between atoms: N_22  and  C_23
REMARK                            x       y       z     vdW  Elec       q    Type
REMARK                         _______ _______ _______ _____ _____    ______ ____
ROOT
ATOM      1  C   UNL     1       7.890   0.043   1.122  0.00  0.00    +0.029 C 
ATOM      2  C   UNL     1       7.122   0.019  -0.201  0.00  0.00    +0.087 C 
ATOM      3  C   UNL     1       8.079   0.340  -1.356  0.00  0.00    +0.118 C 
ATOM      4  C   UNL     1       7.300   0.717  -2.589  0.00  0.00    +0.219 C 
ATOM      5  O   UNL     1       7.196  -0.076  -3.501  0.00  0.00    -0.275 OA
ATOM      6  N   UNL     1       6.717   1.932  -2.685  0.00  0.00    -0.284 N 
ATOM      7  C   UNL     1       6.747   2.821  -1.605  0.00  0.00    +0.055 A 
ATOM      8  C   UNL     1       7.105   4.147  -1.786  0.00  0.00    +0.025 A 
ATOM      9  C   UNL     1       7.073   5.021  -0.715  0.00  0.00    +0.002 A 
ATOM     10  C   UNL     1       6.687   4.575   0.536  0.00  0.00    +0.002 A 
ATOM     11  C   UNL     1       6.340   3.250   0.728  0.00  0.00    +0.025 A 
ATOM     12  C   UNL     1       6.377   2.367  -0.339  0.00  0.00    +0.058 A 
ATOM     13  N   UNL     1       6.050   1.016  -0.159  0.00  0.00    -0.268 N 
ATOM     14  C   UNL     1       4.773   0.641   0.053  0.00  0.00    +0.204 C 
ATOM     15  O   UNL     1       4.503  -0.532   0.207  0.00  0.00    -0.277 OA
ATOM     16  H   UNL     1       6.275   2.189  -3.509  0.00  0.00    +0.155 HD
ENDROOT
BRANCH  14  17
ATOM     17  C   UNL     1       3.681   1.678   0.100  0.00  0.00    +0.019 C 
BRANCH  17  19
ATOM     18  C   UNL     1       2.353   0.412   1.680  0.00  0.00    -0.095 C 
ATOM     19  N   UNL     1       2.387   0.999   0.324  0.00  0.00    +0.389 N 
ATOM     20  H   UNL     1       2.281   0.247  -0.368  0.00  0.00    -0.081 HD
BRANCH  19  21
ATOM     21  C   UNL     1       1.277   1.961   0.161  0.00  0.00    +0.019 C 
BRANCH  21  22
ATOM     22  C   UNL     1      -0.027   1.205   0.175  0.00  0.00    +0.201 C 
ATOM     23  O   UNL     1      -0.028   0.001   0.322  0.00  0.00    -0.278 OA
ATOM     24  N   UNL     1      -1.191   1.867   0.018  0.00  0.00    -0.287 N 
ATOM     25  H   UNL     1      -1.196   2.836  -0.023  0.00  0.00    +0.155 HD
BRANCH  24  26
ATOM     26  C   UNL     1      -2.391   1.155  -0.086  0.00  0.00    +0.033 A 
ATOM     27  C   UNL     1      -2.412  -0.088  -0.704  0.00  0.00    +0.023 A 
ATOM     28  C   UNL     1      -3.597  -0.791  -0.799  0.00  0.00    +0.002 A 
ATOM     29  C   UNL     1      -4.765  -0.252  -0.291  0.00  0.00    +0.000 A 
ATOM     30  C   UNL     1      -4.748   0.989   0.320  0.00  0.00    +0.002 A 
ATOM     31  C   UNL     1      -3.565   1.694   0.423  0.00  0.00    +0.023 A 
ENDBRANCH  24  26
ENDBRANCH  21  22
ENDBRANCH  19  21
ENDBRANCH  17  19
ENDBRANCH  14  17
TORSDOF 5
