REMARK  Name = ZINC25108007
REMARK  14 active torsions:
REMARK  status: ('A' for Active; 'I' for Inactive)
REMARK    1  A    between atoms: C_1  and  C_2
REMARK    2  A    between atoms: C_2  and  C_3
REMARK    3  A    between atoms: C_2  and  C_4
REMARK    4  A    between atoms: C_4  and  C_6
REMARK    5  A    between atoms: C_4  and  C_31
REMARK    6  A    between atoms: C_6  and  C_7
REMARK    7  A    between atoms: C_7  and  N_8
REMARK    8  A    between atoms: C_9  and  C_11
REMARK    9  A    between atoms: C_11  and  C_13
REMARK   10  A    between atoms: C_11  and  N_16
REMARK   11  A    between atoms: C_13  and  C_14
REMARK   12  A    between atoms: C_13  and  C_15
REMARK   13  A    between atoms: C_17  and  C_19
REMARK   14  A    between atoms: C_19  and  C_20
REMARK                            x       y       z     vdW  Elec       q    Type
REMARK                         _______ _______ _______ _____ _____    ______ ____
ROOT
ATOM      1  C   UNL     1       0.214   1.014   2.567  0.00  0.00    +0.161 C 
ENDROOT
BRANCH   1   3
ATOM      2  N   UNL     1       0.956  -1.038   1.401  0.00  0.00    -0.314 N 
ATOM      3  C   UNL     1       0.226  -0.482   2.389  0.00  0.00    +0.234 C 
ATOM      4  O   UNL     1      -0.420  -1.187   3.135  0.00  0.00    -0.274 OA
ATOM      5  H   UNL     1       1.474  -0.396   0.673  0.00  0.00    +0.149 HD
BRANCH   2   6
ATOM      6  C   UNL     1       1.058  -2.495   1.296  0.00  0.00    +0.105 C 
BRANCH   6   7
ATOM      7  C   UNL     1       1.936  -2.860   0.098  0.00  0.00    +0.027 C 
BRANCH   7   8
ATOM      8  C   UNL     1       1.942  -4.379  -0.087  0.00  0.00    +0.023 C 
BRANCH   8   9
ATOM      9  C   UNL     1       2.601  -5.027   1.103  0.00  0.00    -0.044 A 
ATOM     10  C   UNL     1       3.915  -4.728   1.414  0.00  0.00    +0.005 A 
ATOM     11  C   UNL     1       4.518  -5.317   2.509  0.00  0.00    +0.020 A 
ATOM     12  C   UNL     1       3.811  -6.216   3.287  0.00  0.00    +0.041 A 
ATOM     13  C   UNL     1       2.498  -6.519   2.973  0.00  0.00    +0.020 A 
ATOM     14  C   UNL     1       1.894  -5.925   1.881  0.00  0.00    +0.005 A 
ATOM     15 CL   UNL     1       4.570  -6.963   4.658  0.00  0.00    -0.084 Cl
ENDBRANCH   8   9
BRANCH   8  17
ATOM     16  C   UNL     1       2.744  -6.256  -1.528  0.00  0.00    +0.008 C 
ATOM     17  C   UNL     1       2.718  -4.735  -1.356  0.00  0.00    -0.010 C 
ATOM     18  C   UNL     1       2.035  -4.097  -2.568  0.00  0.00    +0.008 C 
ENDBRANCH   8  17
ENDBRANCH   7   8
ENDBRANCH   6   7
ENDBRANCH   2   6
ENDBRANCH   1   3
BRANCH   1  19
ATOM     19  N   UNL     1      -0.183   1.339   3.939  0.00  0.00    -0.303 N 
ATOM     20  C   UNL     1       0.199   2.507   4.492  0.00  0.00    +0.220 C 
ATOM     21  O   UNL     1       0.872   3.289   3.855  0.00  0.00    -0.275 OA
ATOM     22  H   UNL     1      -0.794   0.630   4.518  0.00  0.00    +0.149 HD
BRANCH  20  23
ATOM     23  C   UNL     1      -0.210   2.842   5.904  0.00  0.00    +0.153 C 
BRANCH  23  24
ATOM     24  C   UNL     1       0.342   4.193   6.280  0.00  0.00    +0.078 A 
ATOM     25  C   UNL     1      -0.406   5.361   6.040  0.00  0.00    +0.011 A 
ATOM     26  C   UNL     1      -1.677   5.340   5.452  0.00  0.00    +0.010 A 
ATOM     27  C   UNL     1      -2.341   6.513   5.251  0.00  0.00    +0.001 A 
ATOM     28  C   UNL     1      -1.775   7.731   5.622  0.00  0.00    +0.001 A 
ATOM     29  C   UNL     1      -0.540   7.788   6.197  0.00  0.00    +0.014 A 
ATOM     30  C   UNL     1       0.170   6.602   6.418  0.00  0.00    +0.050 A 
ATOM     31  C   UNL     1       1.452   6.578   7.007  0.00  0.00    +0.272 A 
ATOM     32  N   UNL     1       2.051   5.415   7.178  0.00  0.00    -0.242 N 
ATOM     33  N   UNL     1       1.525   4.297   6.840  0.00  0.00    -0.175 NA
ATOM     34  O   UNL     1       2.057   7.729   7.390  0.00  0.00    -0.266 OA
ATOM     35  H   UNL     1       3.052   5.373   7.631  0.00  0.00    +0.192 HD
ENDBRANCH  23  24
ENDBRANCH  20  23
ENDBRANCH   1  19
BRANCH   1  36
ATOM     36  C   UNL     1      -0.782   1.636   1.587  0.00  0.00    +0.012 C 
ATOM     37  C   UNL     1      -0.725   3.161   1.700  0.00  0.00    +0.009 C 
ATOM     38  C   UNL     1      -2.195   1.152   1.919  0.00  0.00    +0.009 C 
ENDBRANCH   1  36
TORSDOF 10
