REMARK  Name = ZINC00065678
REMARK  1 active torsions:
REMARK  status: ('A' for Active; 'I' for Inactive)
REMARK    1  A    between atoms: C_6  and  C_7
REMARK                            x       y       z     vdW  Elec       q    Type
REMARK                         _______ _______ _______ _____ _____    ______ ____
ROOT
ATOM      1  C   UNL     1      -1.293  -0.775   0.011  0.00  0.00    +0.175 C 
ATOM      2  C   UNL     1      -1.374  -1.634  -1.232  0.00  0.00    +0.041 C 
ATOM      3  C   UNL     1      -1.201  -2.973  -1.192  0.00  0.00    +0.020 C 
ATOM      4  C   UNL     1      -1.270  -3.802  -2.452  0.00  0.00    +0.052 C 
ATOM      5  C   UNL     1      -2.247  -3.159  -3.438  0.00  0.00    +0.014 C 
ATOM      6  C   UNL     1      -1.762  -1.736  -3.739  0.00  0.00    +0.080 C 
ATOM      7  C   UNL     1      -1.642  -0.978  -2.447  0.00  0.00    +0.163 C 
ATOM      8  O   UNL     1      -1.780   0.230  -2.452  0.00  0.00    -0.292 OA
ATOM      9  N   UNL     1      -0.961  -3.637  -0.013  0.00  0.00    -0.287 N 
ATOM     10  C   UNL     1      -1.186  -2.960   1.174  0.00  0.00    +0.218 A 
ATOM     11  N   UNL     1      -1.347  -1.615   1.200  0.00  0.00    -0.221 N 
ATOM     12  N   UNL     1      -1.558  -1.271   2.534  0.00  0.00    -0.156 NA
ATOM     13  C   UNL     1      -1.509  -2.384   3.224  0.00  0.00    +0.247 A 
ATOM     14  N   UNL     1      -1.283  -3.402   2.398  0.00  0.00    -0.201 NA
ATOM     15  H   UNL     1      -0.644  -4.554  -0.012  0.00  0.00    +0.155 HD
ENDROOT
BRANCH   1  21
ATOM     16  C   UNL     1      -0.017   1.378   0.010  0.00  0.00    +0.007 A 
ATOM     17  C   UNL     1       1.171   2.086   0.002  0.00  0.00    +0.020 A 
ATOM     18  C   UNL     1       2.378   1.410  -0.013  0.00  0.00    +0.041 A 
ATOM     19  C   UNL     1       2.396   0.027  -0.021  0.00  0.00    +0.020 A 
ATOM     20  C   UNL     1       1.208  -0.679  -0.013  0.00  0.00    +0.007 A 
ATOM     21  C   UNL     1       0.002  -0.004   0.002  0.00  0.00    -0.018 A 
ATOM     22 CL   UNL     1       3.870   2.298  -0.023  0.00  0.00    -0.084 Cl
ENDBRANCH   1  21
TORSDOF 1
