REMARK  Name = ZINC43042386
REMARK  5 active torsions:
REMARK  status: ('A' for Active; 'I' for Inactive)
REMARK    1  A    between atoms: C_1  and  C_2
REMARK    2  A    between atoms: C_7  and  N_12
REMARK    3  A    between atoms: C_9  and  C_11
REMARK    4  A    between atoms: N_18  and  C_21
REMARK    5  A    between atoms: C_21  and  C_22
REMARK                            x       y       z     vdW  Elec       q    Type
REMARK                         _______ _______ _______ _____ _____    ______ ____
ROOT
ATOM      1  N   UNL     1       1.472  -2.526   2.420  0.00  0.00    -0.296 N 
ATOM      2  C   UNL     1       2.056  -3.740   2.406  0.00  0.00    +0.303 C 
ATOM      3  O   UNL     1       1.920  -4.470   1.443  0.00  0.00    -0.253 OA
ATOM      4  N   UNL     1       2.793  -4.145   3.459  0.00  0.00    -0.283 N 
ATOM      5  C   UNL     1       2.877  -3.329   4.680  0.00  0.00    +0.124 C 
ATOM      6  C   UNL     1       4.355  -3.141   5.039  0.00  0.00    +0.104 C 
ATOM      7  N   UNL     1       5.006  -4.455   5.124  0.00  0.00    -0.291 NA
ATOM      8  C   UNL     1       4.986  -5.145   3.827  0.00  0.00    +0.104 C 
ATOM      9  C   UNL     1       3.529  -5.418   3.421  0.00  0.00    +0.124 C 
ATOM     10  H   UNL     1       1.519  -1.974   3.216  0.00  0.00    +0.151 HD
ENDROOT
BRANCH   1  16
ATOM     11  C   UNL     1      -0.015   1.527   0.011  0.00  0.00    +0.008 C 
ATOM     12  C   UNL     1       0.005  -0.003   0.002  0.00  0.00    -0.009 C 
ATOM     13  C   UNL     1      -1.430  -0.532   0.011  0.00  0.00    +0.003 C 
ATOM     14  C   UNL     1      -1.410  -2.062   0.002  0.00  0.00    +0.002 C 
ATOM     15  C   UNL     1      -0.671  -2.570   1.242  0.00  0.00    +0.022 C 
ATOM     16  C   UNL     1       0.764  -2.040   1.232  0.00  0.00    +0.078 C 
ATOM     17  C   UNL     1       0.744  -0.510   1.242  0.00  0.00    +0.009 C 
ATOM     18  C   UNL     1       0.026  -0.017   2.500  0.00  0.00    +0.009 C 
ENDBRANCH   1  16
BRANCH   7  19
ATOM     19  C   UNL     1       6.379  -4.331   5.632  0.00  0.00    +0.180 C 
BRANCH  19  20
ATOM     20  C   UNL     1       6.928  -5.701   5.938  0.00  0.00    +0.230 C 
ATOM     21  O   UNL     1       6.243  -6.684   5.751  0.00  0.00    -0.274 OA
ATOM     22  N   UNL     1       8.179  -5.833   6.420  0.00  0.00    -0.300 N 
ATOM     23  C   UNL     1       9.019  -4.651   6.657  0.00  0.00    +0.108 C 
ATOM     24  C   UNL     1       9.527  -4.690   8.102  0.00  0.00    +0.019 C 
ATOM     25  C   UNL     1      10.233  -6.024   8.355  0.00  0.00    +0.003 C 
ATOM     26  C   UNL     1       9.241  -7.173   8.161  0.00  0.00    +0.019 C 
ATOM     27  C   UNL     1       8.728  -7.162   6.722  0.00  0.00    +0.108 C 
ENDBRANCH  19  20
ENDBRANCH   7  19
TORSDOF 3
