REMARK  Name = ZINC27401049
REMARK  3 active torsions:
REMARK  status: ('A' for Active; 'I' for Inactive)
REMARK    1  A    between atoms: C_1  and  C_2
REMARK    2  A    between atoms: N_6  and  C_10
REMARK    3  A    between atoms: C_10  and  C_11
REMARK                            x       y       z     vdW  Elec       q    Type
REMARK                         _______ _______ _______ _____ _____    ______ ____
ROOT
ATOM      1  C   UNL     1      -3.290  -0.496   2.978  0.00  0.00    +0.163 C 
ENDROOT
BRANCH   1   2
ATOM      2  C   UNL     1      -4.144   0.400   3.878  0.00  0.00    +0.228 C 
ATOM      3  C   UNL     1      -5.343  -0.395   4.411  0.00  0.00    +0.275 C 
ATOM      4  O   UNL     1      -6.112   0.467   5.258  0.00  0.00    -0.485 OA
ATOM      5  C   UNL     1      -5.419   1.204   6.168  0.00  0.00    +0.162 A 
ATOM      6  C   UNL     1      -6.094   1.773   7.238  0.00  0.00    +0.049 A 
ATOM      7  C   UNL     1      -5.406   2.528   8.169  0.00  0.00    +0.004 A 
ATOM      8  C   UNL     1      -4.043   2.719   8.036  0.00  0.00    +0.004 A 
ATOM      9  C   UNL     1      -3.364   2.154   6.973  0.00  0.00    +0.049 A 
ATOM     10  C   UNL     1      -4.049   1.394   6.036  0.00  0.00    +0.163 A 
ATOM     11  O   UNL     1      -3.366   0.842   4.996  0.00  0.00    -0.480 OA
ENDBRANCH   1   2
BRANCH   1  16
ATOM     12  C   UNL     1      -0.013   1.086   0.008  0.00  0.00    +0.038 C 
ATOM     13  C   UNL     1      -0.729   1.579   1.267  0.00  0.00    +0.155 C 
ATOM     14  C   UNL     1      -2.119   0.982   1.358  0.00  0.00    +0.241 C 
ATOM     15  O   UNL     1      -3.031   1.126   0.572  0.00  0.00    -0.273 OA
ATOM     16  N   UNL     1      -2.131   0.259   2.495  0.00  0.00    -0.248 N 
ATOM     17  C   UNL     1      -0.954   0.316   3.129  0.00  0.00    +0.140 C 
ATOM     18  S   UNL     1      -0.628  -0.489   4.604  0.00  0.00    -0.018 S 
ATOM     19  N   UNL     1      -0.056   1.076   2.477  0.00  0.00    -0.315 N 
ATOM     20  H   UNL     1       0.989   1.353   2.680  0.00  0.00    +0.148 HD
ENDBRANCH   1  16
TORSDOF 2
