REMARK  Name = ZINC38596378
REMARK  11 active torsions:
REMARK  status: ('A' for Active; 'I' for Inactive)
REMARK    1  A    between atoms: C_1  and  C_2
REMARK    2  A    between atoms: C_2  and  C_4
REMARK    3  A    between atoms: C_2  and  N_24
REMARK    4  A    between atoms: C_4  and  C_6
REMARK    5  A    between atoms: C_4  and  N_11
REMARK    6  A    between atoms: N_14  and  C_17
REMARK    7  A    between atoms: C_17  and  C_18
REMARK    8  A    between atoms: N_24  and  S_25
REMARK    9  A    between atoms: S_25  and  C_28
REMARK   10  A    between atoms: C_33  and  O_34
REMARK   11  A    between atoms: O_34  and  C_35
REMARK                            x       y       z     vdW  Elec       q    Type
REMARK                         _______ _______ _______ _____ _____    ______ ____
ROOT
ATOM      1  C   UNL     1       0.411  -0.855  -1.291  0.00  0.00    +0.112 C 
ENDROOT
BRANCH   1   2
ATOM      2  N   UNL     1      -0.336  -0.442  -2.487  0.00  0.00    -0.297 NA
ATOM      3  C   UNL     1      -1.761  -0.776  -2.359  0.00  0.00    +0.066 C 
ATOM      4  C   UNL     1      -2.512  -0.278  -3.595  0.00  0.00    -0.063 C 
ATOM      5  N   UNL     1      -1.950  -0.909  -4.797  0.00  0.00    +0.384 N 
ATOM      6  C   UNL     1      -0.532  -0.546  -4.925  0.00  0.00    -0.063 C 
ATOM      7  C   UNL     1       0.235  -1.046  -3.699  0.00  0.00    +0.066 C 
ATOM      8  H   UNL     1      -2.035  -1.911  -4.721  0.00  0.00    -0.081 HD
BRANCH   5   9
ATOM      9  C   UNL     1      -2.683  -0.444  -5.982  0.00  0.00    -0.043 C 
BRANCH   9  10
ATOM     10  C   UNL     1      -2.189  -1.182  -7.200  0.00  0.00    -0.064 A 
ATOM     11  C   UNL     1      -1.133  -0.675  -7.933  0.00  0.00    +0.002 A 
ATOM     12  C   UNL     1      -0.679  -1.352  -9.050  0.00  0.00    +0.000 A 
ATOM     13  C   UNL     1      -1.282  -2.536  -9.433  0.00  0.00    +0.000 A 
ATOM     14  C   UNL     1      -2.338  -3.043  -8.699  0.00  0.00    +0.000 A 
ATOM     15  C   UNL     1      -2.788  -2.368  -7.580  0.00  0.00    +0.002 A 
ENDBRANCH   9  10
ENDBRANCH   5   9
ENDBRANCH   1   2
BRANCH   1  16
ATOM     16  C   UNL     1       1.847  -0.415  -1.420  0.00  0.00    +0.008 A 
ATOM     17  C   UNL     1       2.977  -1.080  -1.075  0.00  0.00    +0.013 A 
ATOM     18  C   UNL     1       4.202  -0.475  -1.287  0.00  0.00    +0.008 A 
ATOM     19  C   UNL     1       4.236   0.765  -1.833  0.00  0.00    +0.045 A 
ATOM     20  S   UNL     1       2.502   1.112  -2.072  0.00  0.00    -0.100 S 
ENDBRANCH   1  16
BRANCH   1  22
ATOM     21  C   UNL     1      -0.267   1.310  -0.243  0.00  0.00    +0.027 C 
ATOM     22  C   UNL     1      -0.211  -0.207  -0.052  0.00  0.00    +0.095 C 
BRANCH  22  23
ATOM     23  N   UNL     1       0.603  -0.521   1.124  0.00  0.00    -0.185 NA
ATOM     24  H   UNL     1       1.569  -0.575   1.045  0.00  0.00    +0.148 HD
BRANCH  23  25
ATOM     25  S   UNL     1      -0.124  -0.784   2.588  0.00  0.00    +0.062 S 
ATOM     26  O   UNL     1      -1.183  -1.704   2.357  0.00  0.00    -0.153 OA
ATOM     27  O   UNL     1       0.918  -1.042   3.519  0.00  0.00    -0.153 OA
BRANCH  25  28
ATOM     28  C   UNL     1      -0.873   0.733   3.078  0.00  0.00    +0.148 A 
ATOM     29  C   UNL     1      -2.247   0.818   3.201  0.00  0.00    +0.052 A 
ATOM     30  C   UNL     1      -2.835   2.010   3.585  0.00  0.00    +0.043 A 
ATOM     31  C   UNL     1      -2.050   3.119   3.848  0.00  0.00    +0.024 A 
ATOM     32  C   UNL     1      -0.676   3.038   3.726  0.00  0.00    +0.049 A 
ATOM     33  C   UNL     1      -0.084   1.842   3.346  0.00  0.00    +0.146 A 
ATOM     34 CL   UNL     1      -4.561   2.114   3.738  0.00  0.00    -0.083 Cl
BRANCH  33  35
ATOM     35  O   UNL     1       1.268   1.758   3.232  0.00  0.00    -0.493 OA
ATOM     36  C   UNL     1       2.018   2.939   3.524  0.00  0.00    +0.277 C 
ENDBRANCH  33  35
ENDBRANCH  25  28
ENDBRANCH  23  25
ENDBRANCH  22  23
ENDBRANCH   1  22
TORSDOF 9
