REMARK  Name = ZINC06196774
REMARK  9 active torsions:
REMARK  status: ('A' for Active; 'I' for Inactive)
REMARK    1  A    between atoms: C_1  and  C_2
REMARK    2  A    between atoms: C_2  and  O_3
REMARK    3  A    between atoms: O_3  and  C_4
REMARK    4  A    between atoms: C_11  and  C_16
REMARK    5  A    between atoms: C_16  and  C_18
REMARK    6  A    between atoms: C_16  and  N_74
REMARK    7  A    between atoms: N_22  and  C_23
REMARK    8  A    between atoms: C_30  and  C_33
REMARK    9  A    between atoms: C_33  and  C_34
REMARK                            x       y       z     vdW  Elec       q    Type
REMARK                         _______ _______ _______ _____ _____    ______ ____
ROOT
ATOM      1  C   UNL     1       4.958   1.184  -0.038  0.00  0.00    +0.039 C 
ENDROOT
BRANCH   1   9
ATOM      2  C   UNL     1      -1.215   1.754   0.017  0.00  0.00    +0.121 A 
ATOM      3  C   UNL     1      -1.236   3.147   0.031  0.00  0.00    +0.047 A 
ATOM      4  C   UNL     1      -0.062   3.867   0.024  0.00  0.00    +0.030 A 
ATOM      5  C   UNL     1       1.160   3.203   0.008  0.00  0.00    +0.049 A 
ATOM      6  C   UNL     1       1.187   1.796   0.000  0.00  0.00    +0.002 A 
ATOM      7  C   UNL     1      -0.013   1.076   0.008  0.00  0.00    +0.055 A 
ATOM      8  C   UNL     1       2.480   1.110  -0.015  0.00  0.00    +0.017 A 
ATOM      9  C   UNL     1       3.611   1.859  -0.021  0.00  0.00    +0.011 A 
ATOM     10  C   UNL     1       3.530   3.268  -0.013  0.00  0.00    +0.251 A 
ATOM     11  O   UNL     1       4.559   3.922  -0.019  0.00  0.00    -0.268 OA
ATOM     12  N   UNL     1       2.347   3.907   0.002  0.00  0.00    -0.322 N 
ATOM     13  H   UNL     1       2.328   4.907   0.008  0.00  0.00    +0.169 HD
BRANCH   2  14
ATOM     14  O   UNL     1      -2.383   1.060   0.019  0.00  0.00    -0.492 OA
BRANCH  14  16
ATOM     15  C   UNL     1      -4.793   0.875   0.028  0.00  0.00    +0.048 C 
ATOM     16  C   UNL     1      -3.591   1.823   0.028  0.00  0.00    +0.225 C 
ENDBRANCH  14  16
ENDBRANCH   2  14
ENDBRANCH   1   9
BRANCH   1  22
ATOM     17  C   UNL     1       5.012   1.573   2.351  0.00  0.00    -0.077 C 
ATOM     18  C   UNL     1       5.822   2.218   3.478  0.00  0.00    -0.015 C 
ATOM     19  C   UNL     1       7.168   1.500   3.609  0.00  0.00    -0.010 C 
ATOM     20  C   UNL     1       7.908   1.572   2.270  0.00  0.00    -0.015 C 
ATOM     21  C   UNL     1       7.038   0.946   1.178  0.00  0.00    -0.077 C 
ATOM     22  N   UNL     1       5.768   1.697   1.086  0.00  0.00    +0.389 N 
ATOM     23  H   UNL     1       5.979   2.688   0.920  0.00  0.00    -0.080 HD
BRANCH  19  24
ATOM     24  C   UNL     1       8.006   2.179   4.694  0.00  0.00    +0.038 C 
BRANCH  24  25
ATOM     25  C   UNL     1       7.336   2.001   6.032  0.00  0.00    -0.047 A 
ATOM     26  C   UNL     1       6.426   2.940   6.479  0.00  0.00    +0.003 A 
ATOM     27  C   UNL     1       5.808   2.774   7.705  0.00  0.00    +0.000 A 
ATOM     28  C   UNL     1       6.107   1.674   8.486  0.00  0.00    +0.000 A 
ATOM     29  C   UNL     1       7.021   0.737   8.041  0.00  0.00    +0.000 A 
ATOM     30  C   UNL     1       7.636   0.901   6.813  0.00  0.00    +0.003 A 
ENDBRANCH  24  25
ENDBRANCH  19  24
ENDBRANCH   1  22
BRANCH   1  31
ATOM     31  C   UNL     1       5.664   1.503  -1.331  0.00  0.00    +0.143 A 
ATOM     32  N   UNL     1       6.229   2.641  -1.653  0.00  0.00    -0.115 NA
ATOM     33  N   UNL     1       6.725   2.518  -2.836  0.00  0.00    -0.023 NA
ATOM     34  N   UNL     1       6.484   1.333  -3.279  0.00  0.00    -0.044 NA
ATOM     35  N   UNL     1       5.832   0.677  -2.380  0.00  0.00    -0.227 N 
BRANCH  35  36
ATOM     36  C   UNL     1       5.361  -0.706  -2.482  0.00  0.00    +0.111 C 
ATOM     37  C   UNL     1       6.552  -1.651  -2.745  0.00  0.00    +0.027 C 
ATOM     38  C   UNL     1       5.984  -2.715  -3.718  0.00  0.00    +0.002 C 
ATOM     39  C   UNL     1       5.055  -1.881  -4.634  0.00  0.00    +0.002 C 
ATOM     40  C   UNL     1       4.409  -0.852  -3.682  0.00  0.00    +0.027 C 
ENDBRANCH  35  36
ENDBRANCH   1  31
TORSDOF 8
