REMARK  Name = ZINC40824585
REMARK  9 active torsions:
REMARK  status: ('A' for Active; 'I' for Inactive)
REMARK    1  A    between atoms: C_1  and  C_2
REMARK    2  A    between atoms: C_6  and  C_7
REMARK    3  A    between atoms: C_7  and  O_9
REMARK    4  A    between atoms: O_9  and  C_10
REMARK    5  A    between atoms: C_13  and  C_16
REMARK    6  A    between atoms: C_19  and  C_22
REMARK    7  A    between atoms: N_28  and  N_29
REMARK    8  A    between atoms: N_29  and  C_30
REMARK    9  A    between atoms: C_30  and  N_32
REMARK                            x       y       z     vdW  Elec       q    Type
REMARK                         _______ _______ _______ _____ _____    ______ ____
ROOT
ATOM      1  C   UNL     1       0.108   1.494   0.003  0.00  0.00    +0.048 C 
ATOM      2  C   UNL     1       0.079  -0.013  -0.002  0.00  0.00    +0.011 A 
ATOM      3  C   UNL     1       0.070  -0.850  -1.123  0.00  0.00    +0.042 A 
ATOM      4  C   UNL     1       0.041  -2.148  -0.670  0.00  0.00    +0.115 A 
ATOM      5  O   UNL     1       0.037  -2.119   0.660  0.00  0.00    -0.452 OA
ATOM      6  C   UNL     1       0.064  -0.837   1.090  0.00  0.00    +0.215 A 
ATOM      7  C   UNL     1       0.018  -3.339  -1.594  0.00  0.00    +0.075 C 
ATOM      8  C   UNL     1      -0.479  -2.902  -2.975  0.00  0.00    +0.014 C 
ATOM      9  C   UNL     1       0.336  -1.712  -3.491  0.00  0.00    +0.058 C 
ATOM     10  C   UNL     1       0.087  -0.528  -2.568  0.00  0.00    +0.070 C 
ATOM     11  N   UNL     1      -0.098   0.676  -3.015  0.00  0.00    -0.185 NA
ENDROOT
BRANCH   6  12
ATOM     12  C   UNL     1       0.071  -0.404   2.490  0.00  0.00    +0.380 C 
ATOM     13  O   UNL     1       0.092   0.782   2.759  0.00  0.00    -0.241 OA
BRANCH  12  14
ATOM     14  O   UNL     1       0.054  -1.320   3.480  0.00  0.00    -0.420 OA
BRANCH  14  15
ATOM     15  C   UNL     1       0.164  -0.878   4.760  0.00  0.00    +0.132 A 
ATOM     16  C   UNL     1      -0.932  -0.306   5.392  0.00  0.00    +0.047 A 
ATOM     17  C   UNL     1      -0.824   0.143   6.691  0.00  0.00    +0.012 A 
ATOM     18  C   UNL     1       0.389   0.023   7.370  0.00  0.00    -0.018 A 
ATOM     19  C   UNL     1       1.488  -0.552   6.732  0.00  0.00    +0.012 A 
ATOM     20  C   UNL     1       1.371  -1.005   5.435  0.00  0.00    +0.047 A 
BRANCH  18  21
ATOM     21  C   UNL     1       0.509   0.506   8.766  0.00  0.00    -0.018 A 
ATOM     22  C   UNL     1      -0.593   1.077   9.404  0.00  0.00    +0.010 A 
ATOM     23  C   UNL     1      -0.482   1.525  10.700  0.00  0.00    +0.019 A 
ATOM     24  C   UNL     1       0.735   1.409  11.378  0.00  0.00    +0.052 A 
ATOM     25  C   UNL     1       1.838   0.837  10.738  0.00  0.00    +0.019 A 
ATOM     26  C   UNL     1       1.723   0.385   9.443  0.00  0.00    +0.010 A 
BRANCH  24  27
ATOM     27  C   UNL     1       0.852   1.876  12.727  0.00  0.00    +0.099 C 
ATOM     28  N   UNL     1       0.944   2.247  13.796  0.00  0.00    -0.191 NA
ENDBRANCH  24  27
ENDBRANCH  18  21
ENDBRANCH  14  15
ENDBRANCH  12  14
ENDBRANCH   6  12
BRANCH  11  29
ATOM     29  N   UNL     1      -0.071   0.924  -4.393  0.00  0.00    -0.218 N 
ATOM     30  H   UNL     1       0.085   0.195  -5.014  0.00  0.00    +0.176 HD
BRANCH  29  31
ATOM     31  C   UNL     1      -0.263   2.174  -4.857  0.00  0.00    +0.147 C 
ATOM     32  S   UNL     1      -0.230   2.477  -6.542  0.00  0.00    -0.017 S 
BRANCH  31  33
ATOM     33  N   UNL     1      -0.479   3.187  -3.995  0.00  0.00    -0.339 N 
ATOM     34  H   UNL     1      -0.498   3.016  -3.041  0.00  0.00    +0.144 HD
ATOM     35  H   UNL     1      -0.617   4.088  -4.329  0.00  0.00    +0.144 HD
ENDBRANCH  31  33
ENDBRANCH  29  31
ENDBRANCH  11  29
TORSDOF 8
