REMARK  Name = ZINC39676956
REMARK  10 active torsions:
REMARK  status: ('A' for Active; 'I' for Inactive)
REMARK    1  A    between atoms: C_1  and  C_2
REMARK    2  A    between atoms: C_5  and  C_36
REMARK    3  A    between atoms: C_6  and  C_8
REMARK    4  A    between atoms: C_8  and  C_9
REMARK    5  A    between atoms: C_9  and  N_10
REMARK    6  A    between atoms: C_11  and  C_13
REMARK    7  A    between atoms: C_24  and  C_26
REMARK    8  A    between atoms: C_26  and  C_28
REMARK    9  A    between atoms: C_26  and  O_29
REMARK   10  A    between atoms: O_29  and  C_30
REMARK                            x       y       z     vdW  Elec       q    Type
REMARK                         _______ _______ _______ _____ _____    ______ ____
ROOT
ATOM      1  C   UNL     1       2.669  -5.075   5.945  0.00  0.00    +0.100 C 
ATOM      2  C   UNL     1       2.240  -4.173   7.123  0.00  0.00    +0.121 C 
ATOM      3  N   UNL     1       3.105  -4.593   8.251  0.00  0.00    -0.297 N 
ATOM      4  C   UNL     1       4.429  -4.835   7.630  0.00  0.00    +0.115 C 
ATOM      5  C   UNL     1       4.106  -5.508   6.281  0.00  0.00    -0.004 C 
ATOM      6  C   UNL     1       5.070  -5.019   5.204  0.00  0.00    -0.010 C 
ATOM      7  C   UNL     1       6.484  -5.510   5.530  0.00  0.00    -0.082 C 
ATOM      8  N   UNL     1       6.491  -6.977   5.593  0.00  0.00    +0.379 N 
ATOM      9  C   UNL     1       5.633  -7.435   6.691  0.00  0.00    -0.082 C 
ATOM     10  C   UNL     1       4.184  -7.025   6.415  0.00  0.00    -0.010 C 
ATOM     11  C   UNL     1       2.764  -4.726   9.548  0.00  0.00    +0.256 C 
ATOM     12  O   UNL     1       1.609  -4.584   9.889  0.00  0.00    -0.272 OA
ATOM     13  H   UNL     1       6.148  -7.351   4.721  0.00  0.00    -0.086 HD
ATOM     14  H   UNL     1       7.434  -7.301   5.747  0.00  0.00    -0.086 HD
ENDROOT
BRANCH   1  16
ATOM     15  N   UNL     1       2.558  -4.953   3.477  0.00  0.00    -0.315 N 
ATOM     16  C   UNL     1       2.643  -4.300   4.653  0.00  0.00    +0.218 C 
ATOM     17  O   UNL     1       2.697  -3.088   4.672  0.00  0.00    -0.275 OA
ATOM     18  H   UNL     1       2.514  -5.921   3.462  0.00  0.00    +0.149 HD
BRANCH  15  19
ATOM     19  C   UNL     1       2.533  -4.199   2.221  0.00  0.00    +0.109 C 
BRANCH  19  20
ATOM     20  C   UNL     1       2.434  -5.171   1.044  0.00  0.00    +0.054 C 
BRANCH  20  26
ATOM     21  C   UNL     1      -0.143  -3.020  -2.667  0.00  0.00    +0.044 C 
ATOM     22  C   UNL     1       1.174  -3.367  -2.024  0.00  0.00    -0.050 A 
ATOM     23  C   UNL     1       2.359  -2.974  -2.619  0.00  0.00    +0.003 A 
ATOM     24  C   UNL     1       3.568  -3.293  -2.028  0.00  0.00    +0.004 A 
ATOM     25  C   UNL     1       3.592  -4.004  -0.843  0.00  0.00    -0.047 A 
ATOM     26  C   UNL     1       2.407  -4.396  -0.248  0.00  0.00    -0.043 A 
ATOM     27  C   UNL     1       1.198  -4.074  -0.836  0.00  0.00    +0.007 A 
ATOM     28  C   UNL     1       4.909  -4.352  -0.200  0.00  0.00    +0.044 C 
ENDBRANCH  20  26
ENDBRANCH  19  20
ENDBRANCH  15  19
ENDBRANCH   1  16
BRANCH  11  29
ATOM     29  C   UNL     1       3.818  -5.053  10.575  0.00  0.00    +0.256 C 
ATOM     30  C   UNL     1       4.760  -3.858  10.735  0.00  0.00    +0.062 C 
BRANCH  29  31
ATOM     31  O   UNL     1       3.191  -5.337  11.827  0.00  0.00    -0.480 OA
BRANCH  31  32
ATOM     32  C   UNL     1       3.876  -6.127  12.694  0.00  0.00    +0.122 A 
ATOM     33  C   UNL     1       3.278  -6.546  13.874  0.00  0.00    +0.045 A 
ATOM     34  C   UNL     1       3.977  -7.350  14.754  0.00  0.00    +0.004 A 
ATOM     35  C   UNL     1       5.271  -7.737  14.460  0.00  0.00    +0.000 A 
ATOM     36  C   UNL     1       5.870  -7.321  13.285  0.00  0.00    +0.004 A 
ATOM     37  C   UNL     1       5.173  -6.522  12.399  0.00  0.00    +0.045 A 
ENDBRANCH  31  32
ENDBRANCH  29  31
ENDBRANCH  11  29
TORSDOF 7
