REMARK  Name = ZINC15324230
REMARK  12 active torsions:
REMARK  status: ('A' for Active; 'I' for Inactive)
REMARK    1  A    between atoms: C_1  and  C_2
REMARK    2  A    between atoms: C_6  and  O_8
REMARK    3  A    between atoms: O_8  and  C_9
REMARK    4  A    between atoms: C_9  and  C_11
REMARK    5  A    between atoms: C_9  and  C_12
REMARK    6  A    between atoms: N_14  and  C_15
REMARK    7  A    between atoms: N_14  and  C_23
REMARK    8  A    between atoms: C_15  and  C_16
REMARK    9  A    between atoms: C_16  and  C_17
REMARK   10  A    between atoms: C_24  and  N_39
REMARK   11  A    between atoms: N_25  and  C_32
REMARK   12  A    between atoms: C_32  and  C_33
REMARK                            x       y       z     vdW  Elec       q    Type
REMARK                         _______ _______ _______ _____ _____    ______ ____
ROOT
ATOM      1  C   UNL     1      -0.644  -0.407  -0.943  0.00  0.00    +0.260 C 
ATOM      2  O   UNL     1       0.404   0.074  -0.567  0.00  0.00    -0.271 OA
ATOM      3  N   UNL     1      -0.919  -1.704  -0.693  0.00  0.00    -0.261 N 
ENDROOT
BRANCH   3   4
ATOM      4  C   UNL     1      -2.092  -2.290  -1.214  0.00  0.00    +0.140 A 
ATOM      5  C   UNL     1      -2.017  -3.272  -2.180  0.00  0.00    +0.128 A 
ATOM      6  N   UNL     1      -3.178  -3.827  -2.666  0.00  0.00    -0.276 N 
ATOM      7  C   UNL     1      -4.374  -3.411  -2.210  0.00  0.00    +0.331 A 
ATOM      8  O   UNL     1      -5.389  -3.911  -2.655  0.00  0.00    -0.246 OA
ATOM      9  N   UNL     1      -4.467  -2.451  -1.273  0.00  0.00    -0.273 N 
ATOM     10  H   UNL     1      -5.368  -2.160  -0.952  0.00  0.00    +0.173 HD
ATOM     11  C   UNL     1      -3.360  -1.879  -0.761  0.00  0.00    +0.277 A 
ATOM     12  O   UNL     1      -3.455  -1.010   0.089  0.00  0.00    -0.266 OA
BRANCH   5  13
ATOM     13  N   UNL     1      -0.796  -3.694  -2.649  0.00  0.00    -0.343 N 
ATOM     14  H   UNL     1       0.021  -3.340  -2.263  0.00  0.00    +0.144 HD
ATOM     15  H   UNL     1      -0.750  -4.347  -3.365  0.00  0.00    +0.144 HD
ENDBRANCH   5  13
BRANCH   6  16
ATOM     16  C   UNL     1      -3.113  -4.874  -3.688  0.00  0.00    +0.163 C 
BRANCH  16  17
ATOM     17  C   UNL     1      -3.133  -4.243  -5.056  0.00  0.00    -0.028 A 
ATOM     18  C   UNL     1      -4.337  -4.021  -5.698  0.00  0.00    +0.005 A 
ATOM     19  C   UNL     1      -4.356  -3.437  -6.951  0.00  0.00    +0.000 A 
ATOM     20  C   UNL     1      -3.169  -3.084  -7.566  0.00  0.00    +0.000 A 
ATOM     21  C   UNL     1      -1.965  -3.311  -6.927  0.00  0.00    +0.000 A 
ATOM     22  C   UNL     1      -1.946  -3.890  -5.672  0.00  0.00    +0.005 A 
ENDBRANCH  16  17
ENDBRANCH   6  16
ENDBRANCH   3   4
BRANCH   1  23
ATOM     23  C   UNL     1      -1.639   0.444  -1.689  0.00  0.00    +0.256 C 
ATOM     24  C   UNL     1      -1.677   0.015  -3.158  0.00  0.00    +0.062 C 
BRANCH  23  25
ATOM     25  O   UNL     1      -1.252   1.816  -1.603  0.00  0.00    -0.480 OA
BRANCH  25  31
ATOM     26  C   UNL     1      -5.971   2.854  -2.293  0.00  0.00    +0.044 C 
ATOM     27  C   UNL     1      -4.542   3.289  -2.097  0.00  0.00    -0.047 A 
ATOM     28  C   UNL     1      -4.226   4.636  -2.077  0.00  0.00    +0.003 A 
ATOM     29  C   UNL     1      -2.916   5.038  -1.897  0.00  0.00    +0.004 A 
ATOM     30  C   UNL     1      -1.919   4.096  -1.734  0.00  0.00    +0.046 A 
ATOM     31  C   UNL     1      -2.232   2.745  -1.759  0.00  0.00    +0.122 A 
ATOM     32  C   UNL     1      -3.548   2.343  -1.939  0.00  0.00    +0.049 A 
ENDBRANCH  25  31
ENDBRANCH  23  25
ENDBRANCH   1  23
BRANCH   3  33
ATOM     33  C   UNL     1       0.001  -2.505   0.119  0.00  0.00    +0.118 C 
BRANCH  33  34
ATOM     34  C   UNL     1      -0.457  -2.483   1.579  0.00  0.00    +0.050 C 
BRANCH  34  35
ATOM     35  C   UNL     1       0.554  -3.203   2.433  0.00  0.00    -0.072 C 
ATOM     36  C   UNL     1       1.466  -2.496   3.020  0.00  0.00    -0.028 C 
ATOM     37  C   UNL     1       2.544  -3.071   3.892  0.00  0.00    +0.027 C 
ATOM     38  C   UNL     1       2.171  -4.490   4.325  0.00  0.00    +0.004 C 
ATOM     39  C   UNL     1       1.750  -5.283   3.081  0.00  0.00    +0.005 C 
ATOM     40  C   UNL     1       0.437  -4.694   2.557  0.00  0.00    +0.030 C 
ENDBRANCH  34  35
ENDBRANCH  33  34
ENDBRANCH   3  33
TORSDOF 10
