REMARK  Name = ZINC20393448
REMARK  6 active torsions:
REMARK  status: ('A' for Active; 'I' for Inactive)
REMARK    1  A    between atoms: C_4  and  C_7
REMARK    2  A    between atoms: C_7  and  C_8
REMARK    3  A    between atoms: C_8  and  N_9
REMARK    4  A    between atoms: C_18  and  C_28
REMARK    5  A    between atoms: C_18  and  C_32
REMARK    6  A    between atoms: C_20  and  C_22
REMARK                            x       y       z     vdW  Elec       q    Type
REMARK                         _______ _______ _______ _____ _____    ______ ____
ROOT
ATOM      1  N   UNL     1       4.638  -2.139   0.755  0.00  0.00    -0.281 N 
ATOM      2  C   UNL     1       4.984  -3.434   1.049  0.00  0.00    +0.119 A 
ATOM      3  C   UNL     1       6.296  -3.805   1.024  0.00  0.00    +0.100 A 
ATOM      4  C   UNL     1       7.269  -2.848   0.688  0.00  0.00    +0.262 A 
ATOM      5  O   UNL     1       8.448  -3.156   0.653  0.00  0.00    -0.267 OA
ATOM      6  N   UNL     1       6.887  -1.587   0.404  0.00  0.00    -0.275 N 
ATOM      7  H   UNL     1       7.556  -0.923   0.172  0.00  0.00    +0.173 HD
ATOM      8  C   UNL     1       5.587  -1.240   0.435  0.00  0.00    +0.331 A 
ATOM      9  O   UNL     1       5.266  -0.097   0.173  0.00  0.00    -0.246 OA
ATOM     10  C   UNL     1       6.697  -5.214   1.356  0.00  0.00    +0.285 C 
ATOM     11  N   UNL     1       5.551  -6.112   1.312  0.00  0.00    -0.244 NA
ATOM     12  C   UNL     1       4.335  -5.701   1.321  0.00  0.00    +0.100 C 
ATOM     13  N   UNL     1       4.023  -4.365   1.365  0.00  0.00    -0.289 N 
ATOM     14  H   UNL     1       3.131  -4.080   1.618  0.00  0.00    +0.155 HD
ENDROOT
BRANCH  12  15
ATOM     15  C   UNL     1       3.219  -6.713   1.280  0.00  0.00    +0.052 C 
ATOM     16  C   UNL     1       2.750  -7.013   2.705  0.00  0.00    +0.011 C 
ATOM     17  C   UNL     1       1.617  -8.040   2.664  0.00  0.00    +0.001 C 
ATOM     18  C   UNL     1       2.121  -9.329   2.011  0.00  0.00    +0.000 C 
ATOM     19  C   UNL     1       2.590  -9.030   0.586  0.00  0.00    +0.001 C 
ATOM     20  C   UNL     1       3.723  -8.002   0.627  0.00  0.00    +0.011 C 
ENDBRANCH  12  15
BRANCH  10  21
ATOM     21  C   UNL     1       7.745  -5.688   0.347  0.00  0.00    +0.428 C 
ATOM     22  F   UNL     1       8.977  -5.094   0.641  0.00  0.00    -0.167 F 
ATOM     23  F   UNL     1       7.869  -7.080   0.423  0.00  0.00    -0.167 F 
ATOM     24  F   UNL     1       7.348  -5.324  -0.944  0.00  0.00    -0.167 F 
ENDBRANCH  10  21
BRANCH  10  25
ATOM     25  C   UNL     1       7.305  -5.245   2.760  0.00  0.00    +0.428 C 
ATOM     26  F   UNL     1       6.359  -4.794   3.688  0.00  0.00    -0.167 F 
ATOM     27  F   UNL     1       7.681  -6.554   3.077  0.00  0.00    -0.167 F 
ATOM     28  F   UNL     1       8.430  -4.414   2.800  0.00  0.00    -0.167 F 
ENDBRANCH  10  25
BRANCH   1  29
ATOM     29  C   UNL     1       3.229  -1.736   0.784  0.00  0.00    +0.133 C 
BRANCH  29  30
ATOM     30  C   UNL     1       2.608  -1.953  -0.597  0.00  0.00    +0.057 C 
BRANCH  30  34
ATOM     31  C   UNL     1      -1.498  -0.777  -0.515  0.00  0.00    +0.000 A 
ATOM     32  C   UNL     1      -0.521   0.145  -0.843  0.00  0.00    +0.000 A 
ATOM     33  C   UNL     1       0.808  -0.235  -0.869  0.00  0.00    +0.004 A 
ATOM     34  C   UNL     1       1.160  -1.538  -0.567  0.00  0.00    -0.046 A 
ATOM     35  C   UNL     1       0.183  -2.459  -0.239  0.00  0.00    +0.004 A 
ATOM     36  C   UNL     1      -1.145  -2.079  -0.214  0.00  0.00    +0.000 A 
ENDBRANCH  30  34
ENDBRANCH  29  30
ENDBRANCH   1  29
TORSDOF 6
