REMARK  Name = ZINC36595462
REMARK  17 active torsions:
REMARK  status: ('A' for Active; 'I' for Inactive)
REMARK    1  A    between atoms: C_1  and  C_2
REMARK    2  A    between atoms: C_5  and  C_8
REMARK    3  A    between atoms: C_8  and  C_10
REMARK    4  A    between atoms: C_8  and  N_21
REMARK    5  A    between atoms: N_12  and  C_13
REMARK    6  A    between atoms: C_13  and  C_14
REMARK    7  A    between atoms: C_13  and  C_15
REMARK    8  A    between atoms: C_13  and  C_16
REMARK    9  A    between atoms: C_16  and  C_17
REMARK   10  A    between atoms: C_17  and  C_18
REMARK   11  A    between atoms: C_17  and  C_19
REMARK   12  A    between atoms: C_17  and  C_20
REMARK   13  A    between atoms: N_21  and  C_22
REMARK   14  A    between atoms: C_22  and  C_23
REMARK   15  A    between atoms: C_26  and  C_28
REMARK   16  A    between atoms: C_29  and  C_31
REMARK   17  A    between atoms: C_36  and  O_37
REMARK                            x       y       z     vdW  Elec       q    Type
REMARK                         _______ _______ _______ _____ _____    ______ ____
ROOT
ATOM      1  C   UNL     1      -0.693  -5.140  -0.943  0.00  0.00    +0.193 C 
ENDROOT
BRANCH   1   6
ATOM      2  C   UNL     1      -4.891  -2.065   1.570  0.00  0.00    +0.044 C 
ATOM      3  C   UNL     1      -3.796  -2.867   0.915  0.00  0.00    -0.050 A 
ATOM      4  C   UNL     1      -3.710  -2.921  -0.464  0.00  0.00    +0.004 A 
ATOM      5  C   UNL     1      -2.705  -3.656  -1.065  0.00  0.00    +0.006 A 
ATOM      6  C   UNL     1      -1.787  -4.337  -0.288  0.00  0.00    -0.018 A 
ATOM      7  C   UNL     1      -1.873  -4.282   1.091  0.00  0.00    +0.006 A 
ATOM      8  C   UNL     1      -2.875  -3.543   1.692  0.00  0.00    +0.004 A 
ENDBRANCH   1   6
BRANCH   1   9
ATOM      9  C   UNL     1      -1.268  -6.421  -1.489  0.00  0.00    +0.239 C 
ATOM     10  O   UNL     1      -0.897  -7.489  -1.047  0.00  0.00    -0.273 OA
ATOM     11  N   UNL     1      -2.194  -6.382  -2.467  0.00  0.00    -0.308 N 
ATOM     12  H   UNL     1      -2.490  -5.529  -2.821  0.00  0.00    +0.149 HD
BRANCH  11  13
ATOM     13  C   UNL     1      -2.752  -7.628  -2.998  0.00  0.00    +0.030 C 
ATOM     14  C   UNL     1      -1.627  -8.485  -3.579  0.00  0.00    +0.031 C 
ATOM     15  C   UNL     1      -3.448  -8.395  -1.871  0.00  0.00    +0.031 C 
BRANCH  13  16
ATOM     16  C   UNL     1      -3.767  -7.305  -4.097  0.00  0.00    +0.031 C 
BRANCH  16  17
ATOM     17  C   UNL     1      -4.632  -6.121  -3.660  0.00  0.00    -0.036 C 
ATOM     18  C   UNL     1      -3.962  -4.814  -4.090  0.00  0.00    +0.010 C 
ATOM     19  C   UNL     1      -6.010  -6.227  -4.315  0.00  0.00    +0.010 C 
ATOM     20  C   UNL     1      -4.788  -6.137  -2.138  0.00  0.00    +0.010 C 
ENDBRANCH  16  17
ENDBRANCH  13  16
ENDBRANCH  11  13
ENDBRANCH   1   9
BRANCH   1  21
ATOM     21  N   UNL     1       0.343  -5.451   0.045  0.00  0.00    -0.275 N 
ATOM     22  C   UNL     1       1.300  -4.545   0.325  0.00  0.00    +0.251 C 
ATOM     23  O   UNL     1       2.003  -4.687   1.307  0.00  0.00    -0.270 OA
BRANCH  22  24
ATOM     24  C   UNL     1       1.495  -3.379  -0.558  0.00  0.00    +0.078 A 
ATOM     25  C   UNL     1       0.406  -2.814  -1.226  0.00  0.00    +0.017 A 
ATOM     26  C   UNL     1       0.594  -1.725  -2.049  0.00  0.00    +0.001 A 
ATOM     27  C   UNL     1       1.860  -1.188  -2.219  0.00  0.00    +0.004 A 
ATOM     28  C   UNL     1       2.945  -1.737  -1.566  0.00  0.00    +0.046 A 
ATOM     29  C   UNL     1       2.773  -2.830  -0.729  0.00  0.00    +0.129 A 
BRANCH  29  30
ATOM     30  O   UNL     1       3.837  -3.367  -0.082  0.00  0.00    -0.506 OA
ATOM     31  H   UNL     1       4.288  -4.064  -0.578  0.00  0.00    +0.292 HD
ENDBRANCH  29  30
ENDBRANCH  22  24
BRANCH  21  32
ATOM     32  C   UNL     1       0.339  -6.747   0.727  0.00  0.00    +0.183 C 
BRANCH  32  33
ATOM     33  C   UNL     1       1.217  -7.714  -0.025  0.00  0.00    +0.122 A 
ATOM     34  C   UNL     1       2.531  -7.909   0.186  0.00  0.00    +0.046 A 
ATOM     35  C   UNL     1       2.951  -8.897  -0.735  0.00  0.00    +0.045 A 
ATOM     36  C   UNL     1       1.868  -9.246  -1.453  0.00  0.00    +0.102 A 
ATOM     37  O   UNL     1       0.820  -8.530  -1.014  0.00  0.00    -0.463 OA
ATOM     38  C   UNL     1       1.836 -10.270  -2.558  0.00  0.00    +0.086 C 
ENDBRANCH  32  33
ENDBRANCH  21  32
ENDBRANCH   1  21
TORSDOF 10
