REMARK  Name = ZINC38615170
REMARK  10 active torsions:
REMARK  status: ('A' for Active; 'I' for Inactive)
REMARK    1  A    between atoms: C_1  and  O_2
REMARK    2  A    between atoms: O_2  and  C_3
REMARK    3  A    between atoms: C_6  and  C_9
REMARK    4  A    between atoms: C_9  and  C_11
REMARK    5  A    between atoms: C_9  and  N_30
REMARK    6  A    between atoms: C_11  and  N_12
REMARK    7  A    between atoms: C_13  and  C_15
REMARK    8  A    between atoms: C_15  and  C_16
REMARK    9  A    between atoms: C_16  and  N_17
REMARK   10  A    between atoms: C_21  and  C_22
REMARK                            x       y       z     vdW  Elec       q    Type
REMARK                         _______ _______ _______ _____ _____    ______ ____
ROOT
ATOM      1  N   UNL     1       0.735  -1.752  -5.929  0.00  0.00    -0.316 N 
ATOM      2  C   UNL     1      -0.283  -1.886  -6.802  0.00  0.00    +0.214 C 
ATOM      3  O   UNL     1      -0.590  -2.986  -7.212  0.00  0.00    -0.276 OA
ATOM      4  H   UNL     1       0.980  -0.873  -5.601  0.00  0.00    +0.149 HD
ENDROOT
BRANCH   1   5
ATOM      5  C   UNL     1       1.470  -2.935  -5.474  0.00  0.00    +0.093 C 
BRANCH   5   6
ATOM      6  C   UNL     1       2.476  -2.526  -4.396  0.00  0.00    -0.020 C 
BRANCH   6   7
ATOM      7  N   UNL     1       3.277  -3.695  -4.006  0.00  0.00    +0.385 N 
ATOM      8  C   UNL     1       4.203  -3.315  -2.932  0.00  0.00    -0.078 C 
ATOM      9  C   UNL     1       4.982  -4.547  -2.466  0.00  0.00    -0.019 C 
ATOM     10  C   UNL     1       5.772  -5.120  -3.645  0.00  0.00    -0.004 C 
ATOM     11  C   UNL     1       4.804  -5.444  -4.787  0.00  0.00    -0.019 C 
ATOM     12  C   UNL     1       4.032  -4.179  -5.167  0.00  0.00    -0.078 C 
ATOM     13  H   UNL     1       2.664  -4.426  -3.676  0.00  0.00    -0.081 HD
ENDBRANCH   6   7
BRANCH   6  17
ATOM     14  C   UNL     1       0.381  -1.030  -0.986  0.00  0.00    +0.120 A 
ATOM     15  C   UNL     1       0.946  -0.148  -1.896  0.00  0.00    +0.046 A 
ATOM     16  C   UNL     1       1.623  -0.635  -2.998  0.00  0.00    +0.005 A 
ATOM     17  C   UNL     1       1.738  -1.999  -3.193  0.00  0.00    -0.059 A 
ATOM     18  C   UNL     1       1.176  -2.879  -2.288  0.00  0.00    +0.005 A 
ATOM     19  C   UNL     1       0.503  -2.398  -1.181  0.00  0.00    +0.046 A 
BRANCH  14  21
ATOM     20  C   UNL     1      -0.371   0.866   0.236  0.00  0.00    +0.277 C 
ATOM     21  O   UNL     1      -0.285  -0.554   0.099  0.00  0.00    -0.495 OA
ENDBRANCH  14  21
ENDBRANCH   6  17
ENDBRANCH   5   6
ENDBRANCH   1   5
BRANCH   2  22
ATOM     22  C   UNL     1      -1.040  -0.669  -7.270  0.00  0.00    +0.115 C 
BRANCH  22  23
ATOM     23  C   UNL     1      -2.135  -1.095  -8.249  0.00  0.00    +0.124 C 
BRANCH  23  24
ATOM     24  N   UNL     1      -2.871   0.087  -8.703  0.00  0.00    -0.255 N 
ATOM     25  C   UNL     1      -3.931   0.495  -8.027  0.00  0.00    +0.258 C 
ATOM     26  O   UNL     1      -4.305  -0.098  -7.031  0.00  0.00    -0.269 OA
ATOM     27  C   UNL     1      -4.623   1.651  -8.498  0.00  0.00    +0.078 C 
ATOM     28  C   UNL     1      -5.728   2.268  -7.990  0.00  0.00    +0.035 C 
ATOM     29  S   UNL     1      -3.648   2.070  -9.937  0.00  0.00    -0.061 S 
ATOM     30  C   UNL     1      -2.453   0.749  -9.805  0.00  0.00    +0.121 C 
ATOM     31  S   UNL     1      -1.117   0.405 -10.820  0.00  0.00    -0.027 S 
BRANCH  28  32
ATOM     32  C   UNL     1      -6.253   3.416  -8.627  0.00  0.00    +0.013 A 
ATOM     33  C   UNL     1      -7.354   4.189  -8.273  0.00  0.00    +0.015 A 
ATOM     34  C   UNL     1      -7.620   5.257  -9.097  0.00  0.00    +0.008 A 
ATOM     35  C   UNL     1      -6.818   5.481 -10.167  0.00  0.00    +0.046 A 
ATOM     36  S   UNL     1      -5.671   4.255 -10.089  0.00  0.00    -0.097 S 
ENDBRANCH  28  32
ENDBRANCH  23  24
ENDBRANCH  22  23
ENDBRANCH   2  22
TORSDOF 9
