REMARK  Name = ZINC00557501
REMARK  5 active torsions:
REMARK  status: ('A' for Active; 'I' for Inactive)
REMARK    1  A    between atoms: C_1  and  C_2
REMARK    2  A    between atoms: C_2  and  C_3
REMARK    3  A    between atoms: C_7  and  C_11
REMARK    4  A    between atoms: C_20  and  O_21
REMARK    5  A    between atoms: O_21  and  C_22
REMARK                            x       y       z     vdW  Elec       q    Type
REMARK                         _______ _______ _______ _____ _____    ______ ____
ROOT
ATOM      1  C   UNL     1      -1.665   0.279  -0.130  0.00  0.00    -0.005 C 
ATOM      2  C   UNL     1      -2.206  -0.279  -1.251  0.00  0.00    +0.022 C 
ATOM      3  C   UNL     1      -3.566  -0.611  -1.286  0.00  0.00    +0.068 C 
ATOM      4  C   UNL     1      -4.149  -1.210  -2.488  0.00  0.00    +0.177 C 
ATOM      5  C   UNL     1      -3.500  -1.393  -3.720  0.00  0.00    +0.065 C 
ATOM      6  C   UNL     1      -4.399  -1.991  -4.585  0.00  0.00    +0.133 C 
ATOM      7  N   UNL     1      -5.551  -2.173  -3.931  0.00  0.00    -0.228 N 
ATOM      8  O   UNL     1      -5.395  -1.687  -2.610  0.00  0.00    -0.379 OA
ATOM      9  C   UNL     1      -4.375  -0.363  -0.149  0.00  0.00    +0.193 C 
ATOM     10  O   UNL     1      -5.671  -0.673  -0.165  0.00  0.00    -0.287 OA
ATOM     11  C   UNL     1      -3.799   0.209   0.989  0.00  0.00    +0.097 C 
ATOM     12  C   UNL     1      -2.453   0.521   0.996  0.00  0.00    +0.127 C 
ATOM     13  H   UNL     1      -6.355  -2.572  -4.297  0.00  0.00    +0.206 HD
ENDROOT
BRANCH   5  14
ATOM     14  C   UNL     1      -2.103  -1.014  -4.037  0.00  0.00    +0.076 A 
ATOM     15  C   UNL     1      -1.146  -2.007  -4.242  0.00  0.00    +0.028 A 
ATOM     16  C   UNL     1       0.154  -1.637  -4.536  0.00  0.00    +0.004 A 
ATOM     17  C   UNL     1       0.457  -0.285  -4.617  0.00  0.00    +0.020 A 
ATOM     18  C   UNL     1      -0.541   0.647  -4.402  0.00  0.00    +0.111 A 
ATOM     19  N   UNL     1      -1.773   0.268  -4.128  0.00  0.00    -0.255 NA
ENDBRANCH   5  14
BRANCH   1  21
ATOM     20  C   UNL     1      -0.024   2.107  -0.468  0.00  0.00    +0.009 C 
ATOM     21  C   UNL     1      -0.200   0.631  -0.105  0.00  0.00    +0.035 C 
ENDBRANCH   1  21
BRANCH  12  22
ATOM     22  O   UNL     1      -1.894   1.072   2.103  0.00  0.00    -0.495 OA
ATOM     23  C   UNL     1      -2.755   1.295   3.222  0.00  0.00    +0.277 C 
ENDBRANCH  12  22
TORSDOF 3
