REMARK  Name = ZINC42267835
REMARK  4 active torsions:
REMARK  status: ('A' for Active; 'I' for Inactive)
REMARK    1  A    between atoms: C_5  and  C_7
REMARK    2  A    between atoms: C_7  and  O_8
REMARK    3  A    between atoms: O_8  and  C_9
REMARK    4  A    between atoms: C_14  and  N_15
REMARK                            x       y       z     vdW  Elec       q    Type
REMARK                         _______ _______ _______ _____ _____    ______ ____
ROOT
ATOM      1  C   UNL     1      -0.272  -4.030  -0.018  0.00  0.00    +0.154 A 
ATOM      2  C   UNL     1       0.839  -4.861  -0.028  0.00  0.00    +0.086 A 
ATOM      3  C   UNL     1       0.673  -6.234  -0.034  0.00  0.00    +0.127 A 
ATOM      4  C   UNL     1      -0.601  -6.778  -0.030  0.00  0.00    +0.041 A 
ATOM      5  C   UNL     1      -1.708  -5.951  -0.021  0.00  0.00    +0.039 A 
ATOM      6  C   UNL     1      -1.546  -4.579  -0.009  0.00  0.00    +0.168 A 
ATOM      7  F   UNL     1       1.754  -7.045  -0.044  0.00  0.00    -0.205 F 
ENDROOT
BRANCH   6   8
ATOM      8  N   UNL     1      -2.733  -3.694   0.008  0.00  0.00    +0.060 N 
ATOM      9  O   UNL     1      -3.843  -4.172   0.016  0.00  0.00    -0.126 OA
ATOM     10  O   UNL     1      -2.591  -2.493   0.014  0.00  0.00    -0.126 OA
ENDBRANCH   6   8
BRANCH   1  11
ATOM     11  O   UNL     1      -0.112  -2.680  -0.012  0.00  0.00    -0.485 OA
BRANCH  11  12
ATOM     12  C   UNL     1       1.229  -2.186  -0.022  0.00  0.00    +0.265 C 
BRANCH  12  17
ATOM     13  C   UNL     1      -0.017   1.378   0.010  0.00  0.00    +0.000 A 
ATOM     14  C   UNL     1       1.171   2.086   0.002  0.00  0.00    +0.001 A 
ATOM     15  C   UNL     1       2.377   1.412  -0.013  0.00  0.00    +0.015 A 
ATOM     16  C   UNL     1       2.397   0.029  -0.021  0.00  0.00    +0.024 A 
ATOM     17  C   UNL     1       1.208  -0.679  -0.013  0.00  0.00    +0.004 A 
ATOM     18  C   UNL     1       0.002  -0.004   0.002  0.00  0.00    +0.008 A 
ATOM     19 BR   UNL     1       4.047  -0.894  -0.042  0.00  0.00    -0.050 Br
ENDBRANCH  12  17
ENDBRANCH  11  12
ENDBRANCH   1  11
TORSDOF 4
