REMARK  Name = ZINC05800262
REMARK  9 active torsions:
REMARK  status: ('A' for Active; 'I' for Inactive)
REMARK    1  A    between atoms: C_1  and  C_2
REMARK    2  A    between atoms: C_2  and  C_3
REMARK    3  A    between atoms: C_2  and  C_4
REMARK    4  A    between atoms: C_2  and  C_5
REMARK    5  A    between atoms: C_13  and  C_25
REMARK    6  A    between atoms: C_15  and  C_21
REMARK    7  A    between atoms: C_15  and  C_23
REMARK    8  A    between atoms: C_16  and  N_20
REMARK    9  A    between atoms: C_17  and  C_18
REMARK                            x       y       z     vdW  Elec       q    Type
REMARK                         _______ _______ _______ _____ _____    ______ ____
ROOT
ATOM      1  C   UNL     1       3.709   4.854   3.101  0.00  0.00    -0.001 C 
ATOM      2  C   UNL     1       4.846   5.665   3.736  0.00  0.00    +0.031 C 
ATOM      3  C   UNL     1       5.847   5.978   2.654  0.00  0.00    -0.021 C 
ATOM      4  C   UNL     1       5.462   6.139   1.419  0.00  0.00    -0.029 C 
ATOM      5  C   UNL     1       4.035   6.127   0.954  0.00  0.00    +0.031 C 
ATOM      6  C   UNL     1       3.050   5.710   2.022  0.00  0.00    +0.013 C 
ATOM      7  C   UNL     1       3.942   5.238  -0.287  0.00  0.00    +0.066 C 
ATOM      8  C   UNL     1       4.790   5.849  -1.403  0.00  0.00    +0.188 C 
ATOM      9  C   UNL     1       6.176   6.172  -0.930  0.00  0.00    +0.054 C 
ATOM     10  C   UNL     1       6.507   6.321   0.377  0.00  0.00    +0.074 C 
ENDROOT
BRANCH   7  11
ATOM     11  C   UNL     1       2.506   5.148  -0.736  0.00  0.00    -0.039 A 
ATOM     12  C   UNL     1       1.703   6.272  -0.712  0.00  0.00    +0.004 A 
ATOM     13  C   UNL     1       0.386   6.191  -1.124  0.00  0.00    +0.002 A 
ATOM     14  C   UNL     1      -0.127   4.986  -1.565  0.00  0.00    +0.020 A 
ATOM     15  C   UNL     1       0.675   3.858  -1.585  0.00  0.00    +0.041 A 
ATOM     16  C   UNL     1       1.993   3.941  -1.173  0.00  0.00    +0.024 A 
ATOM     17 CL   UNL     1       0.030   2.343  -2.133  0.00  0.00    -0.084 Cl
ENDBRANCH   7  11
BRANCH   1  19
ATOM     18  C   UNL     1       5.562   3.908   1.717  0.00  0.00    +0.011 C 
ATOM     19  C   UNL     1       4.273   3.578   2.473  0.00  0.00    -0.035 C 
ATOM     20  C   UNL     1       4.575   2.558   3.574  0.00  0.00    +0.011 C 
ATOM     21  C   UNL     1       3.248   2.990   1.501  0.00  0.00    +0.011 C 
ENDBRANCH   1  19
BRANCH   9  22
ATOM     22  N   UNL     1       7.159   6.323  -1.867  0.00  0.00    -0.358 N 
ATOM     23  H   UNL     1       8.186   6.560  -1.553  0.00  0.00    +0.142 HD
ATOM     24  H   UNL     1       6.923   6.206  -2.935  0.00  0.00    +0.142 HD
ENDBRANCH   9  22
BRANCH  10  25
ATOM     25  C   UNL     1       7.849   6.651   0.750  0.00  0.00    +0.101 C 
ATOM     26  N   UNL     1       8.915   6.912   1.046  0.00  0.00    -0.191 NA
ENDBRANCH  10  25
BRANCH   8  27
ATOM     27  C   UNL     1       4.872   4.896  -2.522  0.00  0.00    +0.091 C 
ATOM     28  N   UNL     1       4.934   4.160  -3.385  0.00  0.00    -0.194 NA
ENDBRANCH   8  27
BRANCH   8  29
ATOM     29  C   UNL     1       4.145   7.085  -1.874  0.00  0.00    +0.091 C 
ATOM     30  N   UNL     1       3.647   8.040  -2.237  0.00  0.00    -0.194 NA
ENDBRANCH   8  29
TORSDOF 6
