REMARK  Name = ZINC67081489
REMARK  4 active torsions:
REMARK  status: ('A' for Active; 'I' for Inactive)
REMARK    1  A    between atoms: C_1  and  C_2
REMARK    2  A    between atoms: C_3  and  C_7
REMARK    3  A    between atoms: N_9  and  C_10
REMARK    4  A    between atoms: N_18  and  C_19
REMARK                            x       y       z     vdW  Elec       q    Type
REMARK                         _______ _______ _______ _____ _____    ______ ____
ROOT
ATOM      1  C   UNL     1      -4.979  -0.691   0.035  0.00  0.00    +0.076 C 
ATOM      2  C   UNL     1      -5.536  -0.261   1.394  0.00  0.00    +0.041 C 
ATOM      3  C   UNL     1      -7.022   0.083   1.246  0.00  0.00    +0.111 C 
ATOM      4  N   UNL     1      -7.715  -1.064   0.645  0.00  0.00    -0.286 N 
ATOM      5  C   UNL     1      -7.205  -1.615  -0.618  0.00  0.00    +0.111 C 
ATOM      6  C   UNL     1      -5.718  -1.940  -0.449  0.00  0.00    +0.041 C 
ATOM      7  C   UNL     1      -8.799  -1.601   1.241  0.00  0.00    +0.303 C 
ATOM      8  O   UNL     1      -9.156  -1.196   2.330  0.00  0.00    -0.253 OA
ATOM      9  N   UNL     1      -9.485  -2.586   0.629  0.00  0.00    -0.292 N 
ATOM     10  H   UNL     1      -9.160  -2.958  -0.205  0.00  0.00    +0.151 HD
ENDROOT
BRANCH   9  11
ATOM     11  C   UNL     1     -10.724  -3.094   1.224  0.00  0.00    +0.105 C 
ATOM     12  C   UNL     1     -11.049  -4.471   0.639  0.00  0.00    +0.027 C 
ATOM     13  C   UNL     1     -10.619  -4.559  -0.812  0.00  0.00    +0.002 C 
ATOM     14  C   UNL     1     -11.420  -3.684  -1.757  0.00  0.00    +0.005 C 
ATOM     15  C   UNL     1     -11.146  -2.201  -1.495  0.00  0.00    +0.035 C 
ATOM     16  C   UNL     1     -12.067  -1.732  -0.388  0.00  0.00    -0.042 A 
ATOM     17  C   UNL     1     -11.866  -2.152   0.905  0.00  0.00    -0.024 A 
ATOM     18  C   UNL     1     -12.703  -1.726   1.921  0.00  0.00    +0.006 A 
ATOM     19  C   UNL     1     -13.746  -0.865   1.631  0.00  0.00    +0.000 A 
ATOM     20  C   UNL     1     -13.949  -0.434   0.334  0.00  0.00    +0.000 A 
ATOM     21  C   UNL     1     -13.110  -0.873  -0.688  0.00  0.00    +0.004 A 
ENDBRANCH   9  11
BRANCH   1  24
ATOM     22  C   UNL     1      -2.644   0.004   0.081  0.00  0.00    +0.248 C 
ATOM     23  O   UNL     1      -3.012   1.149  -0.106  0.00  0.00    -0.270 OA
ATOM     24  N   UNL     1      -3.550  -0.989   0.166  0.00  0.00    -0.308 N 
ATOM     25  H   UNL     1      -3.257  -1.902   0.315  0.00  0.00    +0.149 HD
BRANCH  22  28
ATOM     26  C   UNL     1      -0.292   2.075  -0.071  0.00  0.00    +0.087 C 
ATOM     27  C   UNL     1      -0.171   0.590   0.150  0.00  0.00    +0.114 A 
ATOM     28  C   UNL     1      -1.207  -0.295   0.212  0.00  0.00    +0.077 A 
ATOM     29  C   UNL     1      -0.591  -1.611   0.439  0.00  0.00    +0.054 A 
ATOM     30  C   UNL     1       0.732  -1.395   0.490  0.00  0.00    +0.196 A 
ATOM     31  O   UNL     1       0.971  -0.086   0.312  0.00  0.00    -0.467 OA
ENDBRANCH  22  28
ENDBRANCH   1  24
TORSDOF 3
