REMARK  Name = ZINC43548731
REMARK  10 active torsions:
REMARK  status: ('A' for Active; 'I' for Inactive)
REMARK    1  A    between atoms: C_1  and  C_2
REMARK    2  A    between atoms: N_9  and  C_10
REMARK    3  A    between atoms: C_18  and  C_38
REMARK    4  A    between atoms: C_21  and  O_37
REMARK    5  A    between atoms: C_23  and  C_27
REMARK    6  A    between atoms: C_27  and  C_29
REMARK    7  A    between atoms: C_27  and  C_30
REMARK    8  A    between atoms: N_32  and  C_33
REMARK    9  A    between atoms: N_32  and  C_34
REMARK   10  A    between atoms: C_34  and  C_35
REMARK                            x       y       z     vdW  Elec       q    Type
REMARK                         _______ _______ _______ _____ _____    ______ ____
ROOT
ATOM      1  C   UNL     1       0.251  -0.142  -0.387  0.00  0.00    +0.014 C 
ATOM      2  C   UNL     1       0.834  -1.552  -0.513  0.00  0.00    +0.042 C 
ATOM      3  C   UNL     1      -0.292  -2.572  -0.466  0.00  0.00    +0.057 A 
ATOM      4  C   UNL     1      -0.147  -3.729   0.229  0.00  0.00    +0.015 A 
ATOM      5  S   UNL     1      -1.700  -4.537  -0.035  0.00  0.00    -0.057 S 
ATOM      6  C   UNL     1      -2.406  -3.348  -0.999  0.00  0.00    +0.163 A 
ATOM      7  N   UNL     1      -1.468  -2.429  -1.074  0.00  0.00    -0.229 NA
ATOM      8  N   UNL     1      -3.668  -3.340  -1.574  0.00  0.00    -0.294 N 
ATOM      9  C   UNL     1       1.040  -4.175   1.011  0.00  0.00    +0.051 C 
ATOM     10  C   UNL     1       2.231  -3.282   0.655  0.00  0.00    -0.022 C 
ATOM     11  C   UNL     1       1.803  -1.811   0.646  0.00  0.00    +0.033 C 
ATOM     12  C   UNL     1       3.060  -0.957   0.412  0.00  0.00    +0.123 C 
ATOM     13  C   UNL     1       3.643  -1.308  -0.959  0.00  0.00    +0.029 C 
ATOM     14  C   UNL     1       4.024  -2.788  -1.003  0.00  0.00    +0.007 C 
ATOM     15  C   UNL     1       2.789  -3.649  -0.718  0.00  0.00    +0.008 C 
ATOM     16  C   UNL     1       3.326  -3.460   1.708  0.00  0.00    +0.012 C 
ATOM     17  H   UNL     1      -3.918  -2.630  -2.185  0.00  0.00    +0.154 HD
ENDROOT
BRANCH   8  18
ATOM     18  C   UNL     1      -4.579  -4.357  -1.272  0.00  0.00    +0.033 A 
ATOM     19  C   UNL     1      -4.623  -4.896   0.007  0.00  0.00    +0.026 A 
ATOM     20  C   UNL     1      -5.524  -5.900   0.303  0.00  0.00    +0.040 A 
ATOM     21  C   UNL     1      -6.384  -6.369  -0.676  0.00  0.00    +0.124 A 
ATOM     22  C   UNL     1      -6.343  -5.834  -1.952  0.00  0.00    +0.040 A 
ATOM     23  C   UNL     1      -5.447  -4.826  -2.251  0.00  0.00    +0.026 A 
ATOM     24  F   UNL     1      -7.265  -7.351  -0.384  0.00  0.00    -0.205 F 
ENDBRANCH   8  18
BRANCH  13  25
ATOM     25  C   UNL     1       4.890  -0.458  -1.213  0.00  0.00    +0.078 C 
ATOM     26  C   UNL     1       4.511   1.025  -1.182  0.00  0.00    +0.017 C 
BRANCH  25  27
ATOM     27  C   UNL     1       5.466  -0.801  -2.562  0.00  0.00    +0.219 C 
ATOM     28  O   UNL     1       4.777  -1.356  -3.392  0.00  0.00    -0.275 OA
ATOM     29  N   UNL     1       6.746  -0.492  -2.847  0.00  0.00    -0.293 N 
ATOM     30  C   UNL     1       7.598   0.118  -1.823  0.00  0.00    +0.133 C 
BRANCH  29  31
ATOM     31  C   UNL     1       7.286  -0.765  -4.181  0.00  0.00    +0.196 C 
BRANCH  31  32
ATOM     32  C   UNL     1       7.069   0.405  -5.048  0.00  0.00    -0.086 C 
ATOM     33  C   UNL     1       6.896   1.338  -5.739  0.00  0.00    +0.005 C 
ENDBRANCH  31  32
ENDBRANCH  29  31
ENDBRANCH  25  27
ENDBRANCH  13  25
BRANCH  12  34
ATOM     34  O   UNL     1       4.023  -1.233   1.431  0.00  0.00    -0.391 OA
ATOM     35  H   UNL     1       4.843  -0.728   1.344  0.00  0.00    +0.210 HD
ENDBRANCH  12  34
TORSDOF 6
