REMARK  Name = ZINC09127344
REMARK  8 active torsions:
REMARK  status: ('A' for Active; 'I' for Inactive)
REMARK    1  A    between atoms: C_1  and  C_2
REMARK    2  A    between atoms: C_2  and  C_26
REMARK    3  A    between atoms: N_5  and  N_9
REMARK    4  A    between atoms: C_10  and  C_12
REMARK    5  A    between atoms: C_12  and  S_13
REMARK    6  A    between atoms: S_13  and  C_14
REMARK    7  A    between atoms: C_17  and  C_20
REMARK    8  A    between atoms: N_18  and  N_19
REMARK                            x       y       z     vdW  Elec       q    Type
REMARK                         _______ _______ _______ _____ _____    ______ ____
ROOT
ATOM      1  N   UNL     1       0.077  -7.269   0.003  0.00  0.00    -0.223 N 
ATOM      2  C   UNL     1      -0.332  -6.196   0.708  0.00  0.00    +0.240 C 
ATOM      3  O   UNL     1      -0.923  -6.348   1.757  0.00  0.00    -0.273 OA
ATOM      4  H   UNL     1       0.550  -7.146  -0.835  0.00  0.00    +0.174 HD
ENDROOT
BRANCH   1   9
ATOM      5  C   UNL     1      -0.678 -11.843  -0.097  0.00  0.00    +0.047 C 
ATOM      6  C   UNL     1      -1.038 -10.654   0.796  0.00  0.00    +0.137 C 
ATOM      7  C   UNL     1      -1.123  -9.380  -0.022  0.00  0.00    +0.267 C 
ATOM      8  O   UNL     1      -1.883  -9.147  -0.937  0.00  0.00    -0.271 OA
ATOM      9  N   UNL     1      -0.179  -8.560   0.481  0.00  0.00    -0.137 N 
ATOM     10  C   UNL     1       0.488  -9.135   1.489  0.00  0.00    +0.327 C 
ATOM     11  O   UNL     1       1.389  -8.594   2.098  0.00  0.00    -0.251 OA
ATOM     12  N   UNL     1       0.046 -10.378   1.754  0.00  0.00    -0.280 N 
ATOM     13  H   UNL     1       0.380 -10.977   2.440  0.00  0.00    +0.152 HD
BRANCH   6  14
ATOM     14  C   UNL     1      -2.335 -10.906   1.521  0.00  0.00    -0.015 A 
ATOM     15  C   UNL     1      -3.527 -10.466   0.978  0.00  0.00    +0.006 A 
ATOM     16  C   UNL     1      -4.718 -10.702   1.640  0.00  0.00    +0.000 A 
ATOM     17  C   UNL     1      -4.714 -11.369   2.851  0.00  0.00    +0.000 A 
ATOM     18  C   UNL     1      -3.521 -11.804   3.397  0.00  0.00    +0.000 A 
ATOM     19  C   UNL     1      -2.332 -11.573   2.732  0.00  0.00    +0.006 A 
ENDBRANCH   6  14
ENDBRANCH   1   9
BRANCH   2  20
ATOM     20  C   UNL     1      -0.056  -4.806   0.194  0.00  0.00    +0.174 C 
BRANCH  20  21
ATOM     21  S   UNL     1      -0.725  -3.590   1.356  0.00  0.00    -0.075 S 
BRANCH  21  22
ATOM     22  C   UNL     1      -0.275  -2.099   0.531  0.00  0.00    +0.209 A 
ATOM     23  N   UNL     1       0.368  -2.002  -0.610  0.00  0.00    -0.121 NA
ATOM     24  N   UNL     1       0.524  -0.764  -0.919  0.00  0.00    -0.132 NA
ATOM     25  C   UNL     1       0.002  -0.004   0.002  0.00  0.00    +0.154 A 
ATOM     26  N   UNL     1      -0.528  -0.827   0.957  0.00  0.00    -0.228 N 
BRANCH  25  27
ATOM     27  C   UNL     1      -0.018   1.503   0.010  0.00  0.00    +0.059 C 
ATOM     28  C   UNL     1      -0.758   2.010  -1.229  0.00  0.00    +0.011 C 
ATOM     29  C   UNL     1      -0.779   3.539  -1.221  0.00  0.00    +0.001 C 
ATOM     30  C   UNL     1       0.656   4.069  -1.232  0.00  0.00    +0.000 C 
ATOM     31  C   UNL     1       1.396   3.562   0.008  0.00  0.00    +0.001 C 
ATOM     32  C   UNL     1       1.417   2.032  -0.001  0.00  0.00    +0.011 C 
ENDBRANCH  25  27
BRANCH  26  33
ATOM     33  N   UNL     1      -1.177  -0.454   2.099  0.00  0.00    -0.295 N 
ATOM     34  H   UNL     1      -2.169  -0.363   1.939  0.00  0.00    +0.163 HD
ATOM     35  H   UNL     1      -0.990  -1.102   2.850  0.00  0.00    +0.163 HD
ENDBRANCH  26  33
ENDBRANCH  21  22
ENDBRANCH  20  21
ENDBRANCH   2  20
TORSDOF 7
