REMARK  Name = ZINC50770810
REMARK  6 active torsions:
REMARK  status: ('A' for Active; 'I' for Inactive)
REMARK    1  A    between atoms: C_1  and  C_2
REMARK    2  A    between atoms: C_8  and  C_10
REMARK    3  A    between atoms: C_11  and  C_13
REMARK    4  A    between atoms: C_15  and  N_21
REMARK    5  A    between atoms: C_18  and  N_19
REMARK    6  A    between atoms: N_19  and  C_20
REMARK                            x       y       z     vdW  Elec       q    Type
REMARK                         _______ _______ _______ _____ _____    ______ ____
ROOT
ATOM      1  C   UNL     1       0.419  -4.287   1.877  0.00  0.00    +0.060 A 
ATOM      2  C   UNL     1       1.632  -4.969   1.742  0.00  0.00    +0.047 A 
ATOM      3  C   UNL     1       1.637  -6.333   1.555  0.00  0.00    +0.127 A 
ATOM      4  C   UNL     1       0.443  -7.037   1.500  0.00  0.00    +0.034 A 
ATOM      5  C   UNL     1      -0.762  -6.379   1.631  0.00  0.00    +0.026 A 
ATOM      6  C   UNL     1      -0.787  -5.003   1.826  0.00  0.00    +0.039 A 
ENDROOT
BRANCH   1  15
ATOM      7  C   UNL     1       0.481   1.537   0.034  0.00  0.00    +0.009 C 
ATOM      8  C   UNL     1       0.467   0.008  -0.026  0.00  0.00    +0.006 C 
ATOM      9  C   UNL     1       1.409  -0.469  -1.133  0.00  0.00    +0.006 C 
ATOM     10  C   UNL     1       1.371  -1.996  -1.216  0.00  0.00    +0.019 C 
ATOM     11  C   UNL     1       1.850  -2.588   0.114  0.00  0.00    +0.108 C 
ATOM     12  N   UNL     1       1.041  -2.021   1.202  0.00  0.00    -0.294 N 
ATOM     13  C   UNL     1       0.935  -0.560   1.318  0.00  0.00    +0.076 C 
ATOM     14  C   UNL     1      -0.079  -0.204   2.407  0.00  0.00    +0.028 C 
ATOM     15  C   UNL     1       0.407  -2.827   2.077  0.00  0.00    +0.249 C 
ATOM     16  O   UNL     1      -0.175  -2.349   3.032  0.00  0.00    -0.270 OA
ENDBRANCH   1  15
BRANCH   6  17
ATOM     17  N   UNL     1      -1.999  -4.340   1.964  0.00  0.00    -0.346 N 
ATOM     18  C   UNL     1      -3.257  -5.071   1.798  0.00  0.00    +0.125 C 
ATOM     19  H   UNL     1      -2.012  -3.392   2.172  0.00  0.00    +0.146 HD
ENDBRANCH   6  17
BRANCH   3  20
ATOM     20  N   UNL     1       2.922  -7.052   1.412  0.00  0.00    +0.056 N 
ATOM     21  O   UNL     1       3.965  -6.442   1.460  0.00  0.00    -0.126 OA
ATOM     22  O   UNL     1       2.930  -8.250   1.248  0.00  0.00    -0.126 OA
ENDBRANCH   3  20
TORSDOF 3
