REMARK  Name = ZINC63872213
REMARK  5 active torsions:
REMARK  status: ('A' for Active; 'I' for Inactive)
REMARK    1  A    between atoms: C_1  and  C_2
REMARK    2  A    between atoms: N_8  and  C_9
REMARK    3  A    between atoms: C_12  and  N_15
REMARK    4  A    between atoms: C_18  and  N_21
REMARK    5  A    between atoms: C_24  and  N_27
REMARK                            x       y       z     vdW  Elec       q    Type
REMARK                         _______ _______ _______ _____ _____    ______ ____
ROOT
ATOM      1  N   UNL     1       0.445   1.020   6.451  0.00  0.00    -0.330 N 
ATOM      2  C   UNL     1      -0.643   1.902   6.893  0.00  0.00    +0.106 C 
ATOM      3  C   UNL     1      -0.037   3.115   7.605  0.00  0.00    +0.038 C 
ATOM      4  C   UNL     1       0.879   2.634   8.733  0.00  0.00    +0.060 C 
ATOM      5  C   UNL     1       2.019   1.799   8.145  0.00  0.00    +0.038 C 
ATOM      6  C   UNL     1       1.433   0.567   7.440  0.00  0.00    +0.106 C 
ENDROOT
BRANCH   1  10
ATOM      7  C   UNL     1       0.717  -0.189   2.471  0.00  0.00    +0.037 A 
ATOM      8  C   UNL     1       1.583  -0.719   3.419  0.00  0.00    +0.025 A 
ATOM      9  C   UNL     1       1.493  -0.319   4.737  0.00  0.00    +0.025 A 
ATOM     10  C   UNL     1       0.537   0.614   5.116  0.00  0.00    +0.030 A 
ATOM     11  C   UNL     1      -0.329   1.144   4.168  0.00  0.00    +0.025 A 
ATOM     12  C   UNL     1      -0.236   0.748   2.849  0.00  0.00    +0.025 A 
BRANCH   7  19
ATOM     13  C   UNL     1       2.399   1.143   0.427  0.00  0.00    +0.028 C 
ATOM     14  C   UNL     1       1.197   0.285   0.025  0.00  0.00    +0.079 C 
ATOM     15  C   UNL     1       1.578  -0.657  -1.138  0.00  0.00    +0.032 C 
ATOM     16  C   UNL     1       0.760  -1.924  -0.799  0.00  0.00    +0.098 C 
ATOM     17  C   UNL     1       0.553  -1.843   0.698  0.00  0.00    +0.220 C 
ATOM     18  O   UNL     1       0.206  -2.767   1.402  0.00  0.00    -0.275 OA
ATOM     19  N   UNL     1       0.808  -0.595   1.133  0.00  0.00    -0.269 N 
ENDBRANCH   7  19
ENDBRANCH   1  10
BRANCH   4  20
ATOM     20  N   UNL     1       1.437   3.795   9.439  0.00  0.00    -0.299 NA
ATOM     21  C   UNL     1       0.368   4.673   9.933  0.00  0.00    +0.083 C 
ATOM     22  C   UNL     1       0.984   5.940  10.533  0.00  0.00    -0.001 C 
ATOM     23  C   UNL     1       1.922   5.552  11.679  0.00  0.00    -0.073 C 
ATOM     24  C   UNL     1       2.997   4.599  11.149  0.00  0.00    -0.001 C 
ATOM     25  C   UNL     1       2.323   3.371  10.531  0.00  0.00    +0.083 C 
BRANCH  23  26
ATOM     26  N   UNL     1       2.561   6.759  12.221  0.00  0.00    +0.380 N 
ATOM     27  H   UNL     1       1.852   7.388  12.566  0.00  0.00    -0.090 HD
ATOM     28  H   UNL     1       3.179   6.502  12.976  0.00  0.00    -0.090 HD
ATOM     29  H   UNL     1       3.090   7.215  11.493  0.00  0.00    -0.090 HD
ENDBRANCH  23  26
ENDBRANCH   4  20
TORSDOF 4
