REMARK  Name = ZINC39711182
REMARK  11 active torsions:
REMARK  status: ('A' for Active; 'I' for Inactive)
REMARK    1  A    between atoms: C_1  and  C_2
REMARK    2  A    between atoms: C_7  and  N_8
REMARK    3  A    between atoms: N_11  and  C_14
REMARK    4  A    between atoms: C_14  and  C_16
REMARK    5  A    between atoms: C_14  and  C_30
REMARK    6  A    between atoms: C_21  and  C_29
REMARK    7  A    between atoms: C_22  and  C_28
REMARK    8  A    between atoms: N_35  and  C_36
REMARK    9  A    between atoms: C_36  and  C_37
REMARK   10  A    between atoms: C_36  and  C_38
REMARK   11  A    between atoms: C_36  and  C_39
REMARK                            x       y       z     vdW  Elec       q    Type
REMARK                         _______ _______ _______ _____ _____    ______ ____
ROOT
ATOM      1  C   UNL     1       1.484   2.879   5.780  0.00  0.00    -0.009 C 
ENDROOT
BRANCH   1   2
ATOM      2  C   UNL     1       2.501   3.971   6.117  0.00  0.00    +0.088 C 
ATOM      3  C   UNL     1       1.977   5.282   5.565  0.00  0.00    -0.006 C 
ATOM      4  C   UNL     1       1.794   6.304   6.449  0.00  0.00    -0.007 A 
ATOM      5  C   UNL     1       1.292   7.604   6.000  0.00  0.00    +0.013 A 
ATOM      6  C   UNL     1       1.126   8.593   6.916  0.00  0.00    -0.047 A 
ATOM      7  C   UNL     1       1.424   8.392   8.264  0.00  0.00    -0.046 A 
ATOM      8  C   UNL     1       1.892   7.210   8.743  0.00  0.00    +0.027 A 
ATOM      9  C   UNL     1       2.100   6.120   7.878  0.00  0.00    +0.041 A 
ATOM     10  N   UNL     1       2.559   4.966   8.359  0.00  0.00    -0.285 N 
ATOM     11  C   UNL     1       2.777   3.904   7.602  0.00  0.00    +0.223 C 
ATOM     12  O   UNL     1       3.198   2.877   8.100  0.00  0.00    -0.275 OA
ATOM     13  C   UNL     1       1.217   9.532   9.228  0.00  0.00    +0.044 C 
ATOM     14  C   UNL     1       0.610   9.935   6.466  0.00  0.00    +0.044 C 
ATOM     15  H   UNL     1       2.743   4.902   9.310  0.00  0.00    +0.155 HD
ENDBRANCH   1   2
BRANCH   1  19
ATOM     16  N   UNL     1       3.068  -0.992   5.665  0.00  0.00    -0.333 N 
ATOM     17  C   UNL     1       1.668  -0.855   6.096  0.00  0.00    +0.086 C 
ATOM     18  C   UNL     1       1.149   0.510   5.634  0.00  0.00    -0.059 C 
ATOM     19  N   UNL     1       2.041   1.566   6.129  0.00  0.00    +0.387 N 
ATOM     20  C   UNL     1       3.370   1.423   5.522  0.00  0.00    -0.059 C 
ATOM     21  C   UNL     1       4.001   0.100   5.984  0.00  0.00    +0.086 C 
ATOM     22  H   UNL     1       2.121   1.493   7.132  0.00  0.00    -0.081 HD
BRANCH  16  29
ATOM     23  C   UNL     1       2.930  -0.975   2.824  0.00  0.00    +0.045 C 
ATOM     24  C   UNL     1       3.451  -2.163   3.591  0.00  0.00    -0.029 A 
ATOM     25  C   UNL     1       3.885  -3.287   2.913  0.00  0.00    +0.006 A 
ATOM     26  C   UNL     1       4.363  -4.378   3.615  0.00  0.00    +0.020 A 
ATOM     27  C   UNL     1       4.408  -4.348   4.998  0.00  0.00    +0.043 A 
ATOM     28  C   UNL     1       3.975  -3.228   5.681  0.00  0.00    +0.043 A 
ATOM     29  C   UNL     1       3.500  -2.128   4.978  0.00  0.00    +0.034 A 
ATOM     30 CL   UNL     1       5.009  -5.721   5.875  0.00  0.00    -0.083 Cl
ENDBRANCH  16  29
ENDBRANCH   1  19
BRANCH   1  31
ATOM     31  C   UNL     1       0.198   3.116   6.575  0.00  0.00    +0.205 C 
ATOM     32  N   UNL     1       0.406   2.791   7.993  0.00  0.00    -0.152 NA
ATOM     33  N   UNL     1      -0.360   1.877   8.308  0.00  0.00    -0.070 NA
ATOM     34  N   UNL     1      -1.160   1.450   7.249  0.00  0.00    -0.179 N 
ATOM     35  N   UNL     1      -0.862   2.188   6.130  0.00  0.00    -0.183 NA
ATOM     36  H   UNL     1      -1.823   0.744   7.295  0.00  0.00    +0.191 HD
BRANCH  35  37
ATOM     37  C   UNL     1      -2.040   2.924   5.653  0.00  0.00    +0.035 C 
ATOM     38  C   UNL     1      -1.631   3.855   4.510  0.00  0.00    +0.029 C 
ATOM     39  C   UNL     1      -3.093   1.933   5.153  0.00  0.00    +0.029 C 
ATOM     40  C   UNL     1      -2.623   3.752   6.800  0.00  0.00    +0.029 C 
ENDBRANCH  35  37
ENDBRANCH   1  31
TORSDOF 5
