REMARK  Name = ZINC39970917
REMARK  10 active torsions:
REMARK  status: ('A' for Active; 'I' for Inactive)
REMARK    1  A    between atoms: C_1  and  C_2
REMARK    2  A    between atoms: C_5  and  C_35
REMARK    3  A    between atoms: N_8  and  S_10
REMARK    4  A    between atoms: S_10  and  C_13
REMARK    5  A    between atoms: C_16  and  N_19
REMARK    6  A    between atoms: N_19  and  C_20
REMARK    7  A    between atoms: C_20  and  N_22
REMARK    8  A    between atoms: N_22  and  C_23
REMARK    9  A    between atoms: C_26  and  N_29
REMARK   10  A    between atoms: C_30  and  C_32
REMARK                            x       y       z     vdW  Elec       q    Type
REMARK                         _______ _______ _______ _____ _____    ______ ____
ROOT
ATOM      1  N   UNL     1       2.283   6.474   1.276  0.00  0.00    -0.297 N 
ATOM      2  H   UNL     1       1.916   7.002   2.002  0.00  0.00    +0.154 HD
ENDROOT
BRANCH   1   6
ATOM      3  C   UNL     1       3.860   2.695   2.039  0.00  0.00    +0.106 A 
ATOM      4  C   UNL     1       4.474   3.525   1.120  0.00  0.00    +0.030 A 
ATOM      5  C   UNL     1       3.954   4.779   0.864  0.00  0.00    +0.025 A 
ATOM      6  C   UNL     1       2.813   5.205   1.532  0.00  0.00    +0.033 A 
ATOM      7  C   UNL     1       2.199   4.368   2.455  0.00  0.00    +0.025 A 
ATOM      8  C   UNL     1       2.721   3.113   2.702  0.00  0.00    +0.030 A 
BRANCH   3   9
ATOM      9  S   UNL     1       4.527   1.096   2.362  0.00  0.00    +0.061 S 
ATOM     10  O   UNL     1       4.080   0.724   3.659  0.00  0.00    -0.153 OA
ATOM     11  O   UNL     1       5.905   1.154   2.019  0.00  0.00    -0.153 OA
BRANCH   9  17
ATOM     12  C   UNL     1       1.181   1.090   0.510  0.00  0.00    +0.009 C 
ATOM     13  C   UNL     1       1.540  -0.397   0.544  0.00  0.00    +0.002 C 
ATOM     14  C   UNL     1       2.131  -0.811  -0.805  0.00  0.00    +0.009 C 
ATOM     15  C   UNL     1       3.371   0.035  -1.102  0.00  0.00    +0.002 C 
ATOM     16  C   UNL     1       4.424  -0.212  -0.017  0.00  0.00    +0.112 C 
ATOM     17  N   UNL     1       3.818   0.045   1.297  0.00  0.00    -0.176 NA
ATOM     18  C   UNL     1       2.571  -0.649   1.649  0.00  0.00    +0.112 C 
ATOM     19  C   UNL     1       3.942  -0.356  -2.466  0.00  0.00    +0.009 C 
ENDBRANCH   9  17
ENDBRANCH   3   9
ENDBRANCH   1   6
BRANCH   1  20
ATOM     20  C   UNL     1       2.284   6.963   0.020  0.00  0.00    +0.139 C 
ATOM     21  S   UNL     1       2.790   5.976  -1.283  0.00  0.00    -0.018 S 
BRANCH  20  22
ATOM     22  N   UNL     1       1.885   8.230  -0.209  0.00  0.00    -0.297 N 
ATOM     23  H   UNL     1       1.655   8.809   0.535  0.00  0.00    +0.154 HD
BRANCH  22  24
ATOM     24  C   UNL     1       1.803   8.711  -1.522  0.00  0.00    +0.033 A 
ATOM     25  C   UNL     1       0.680   9.416  -1.934  0.00  0.00    +0.025 A 
ATOM     26  C   UNL     1       0.599   9.891  -3.228  0.00  0.00    +0.025 A 
ATOM     27  C   UNL     1       1.642   9.664  -4.117  0.00  0.00    +0.034 A 
ATOM     28  C   UNL     1       2.765   8.959  -3.705  0.00  0.00    +0.025 A 
ATOM     29  C   UNL     1       2.848   8.489  -2.409  0.00  0.00    +0.025 A 
BRANCH  27  30
ATOM     30  N   UNL     1       1.560  10.145  -5.430  0.00  0.00    -0.285 N 
ATOM     31  C   UNL     1       0.903  11.293  -5.687  0.00  0.00    +0.220 C 
ATOM     32  O   UNL     1       0.481  11.969  -4.772  0.00  0.00    -0.275 OA
ATOM     33  H   UNL     1       1.975   9.651  -6.155  0.00  0.00    +0.155 HD
BRANCH  31  34
ATOM     34  C   UNL     1       0.693  11.739  -7.112  0.00  0.00    +0.075 C 
ATOM     35  C   UNL     1       1.449  12.983  -7.582  0.00  0.00    +0.013 C 
ATOM     36  C   UNL     1      -0.060  13.051  -7.338  0.00  0.00    +0.013 C 
ENDBRANCH  31  34
ENDBRANCH  27  30
ENDBRANCH  22  24
ENDBRANCH  20  22
ENDBRANCH   1  20
TORSDOF 8
