REMARK  Name = ZINC49937478
REMARK  7 active torsions:
REMARK  status: ('A' for Active; 'I' for Inactive)
REMARK    1  A    between atoms: C_1  and  O_2
REMARK    2  A    between atoms: O_2  and  C_3
REMARK    3  A    between atoms: C_8  and  C_13
REMARK    4  A    between atoms: N_15  and  C_16
REMARK    5  A    between atoms: C_16  and  C_17
REMARK    6  A    between atoms: C_17  and  C_18
REMARK    7  A    between atoms: C_18  and  N_20
REMARK                            x       y       z     vdW  Elec       q    Type
REMARK                         _______ _______ _______ _____ _____    ______ ____
ROOT
ATOM      1  C   UNL     1       2.704  -5.242   4.305  0.00  0.00    +0.260 C 
ATOM      2  O   UNL     1       3.325  -5.179   5.349  0.00  0.00    -0.269 OA
ATOM      3  N   UNL     1       2.401  -6.442   3.772  0.00  0.00    -0.310 N 
ATOM      4  H   UNL     1       1.906  -6.492   2.939  0.00  0.00    +0.149 HD
ENDROOT
BRANCH   1  10
ATOM      5  C   UNL     1       0.680  -0.620   0.997  0.00  0.00    +0.122 A 
ATOM      6  C   UNL     1       1.269   0.148   2.001  0.00  0.00    +0.046 A 
ATOM      7  C   UNL     1       1.901  -0.449   3.051  0.00  0.00    +0.013 A 
ATOM      8  C   UNL     1       1.962  -1.848   3.126  0.00  0.00    +0.001 A 
ATOM      9  C   UNL     1       2.529  -2.745   4.061  0.00  0.00    +0.040 A 
ATOM     10  C   UNL     1       2.284  -4.009   3.625  0.00  0.00    +0.103 A 
ATOM     11  N   UNL     1       1.577  -3.949   2.438  0.00  0.00    -0.350 N 
ATOM     12  H   UNL     1       1.277  -4.712   1.919  0.00  0.00    +0.166 HD
ATOM     13  C   UNL     1       1.368  -2.629   2.114  0.00  0.00    +0.050 A 
ATOM     14  C   UNL     1       0.724  -2.001   1.053  0.00  0.00    +0.071 A 
BRANCH   5  16
ATOM     15  C   UNL     1       0.045   1.422  -0.040  0.00  0.00    +0.277 C 
ATOM     16  O   UNL     1       0.055  -0.007  -0.041  0.00  0.00    -0.495 OA
ENDBRANCH   5  16
ENDBRANCH   1  10
BRANCH   3  17
ATOM     17  C   UNL     1       2.819  -7.671   4.450  0.00  0.00    +0.114 C 
BRANCH  17  18
ATOM     18  C   UNL     1       2.353  -8.884   3.642  0.00  0.00    +0.116 C 
BRANCH  18  19
ATOM     19  C   UNL     1       2.783 -10.148   4.340  0.00  0.00    +0.240 C 
ATOM     20  O   UNL     1       3.404 -10.086   5.384  0.00  0.00    -0.274 OA
BRANCH  19  21
ATOM     21  N   UNL     1       2.485 -11.332   3.814  0.00  0.00    -0.157 NA
ATOM     22  C   UNL     1       2.954 -12.445   4.373  0.00  0.00    +0.164 A 
ATOM     23  N   UNL     1       3.649 -12.566   5.532  0.00  0.00    -0.335 N 
ATOM     24  C   UNL     1       4.058 -13.814   5.962  0.00  0.00    +0.055 A 
ATOM     25  C   UNL     1       4.778 -14.162   7.113  0.00  0.00    +0.027 A 
ATOM     26  C   UNL     1       5.095 -15.476   7.371  0.00  0.00    +0.002 A 
ATOM     27  C   UNL     1       4.715 -16.488   6.505  0.00  0.00    +0.001 A 
ATOM     28  C   UNL     1       4.003 -16.171   5.362  0.00  0.00    +0.017 A 
ATOM     29  C   UNL     1       3.686 -14.858   5.103  0.00  0.00    +0.039 A 
ATOM     30  S   UNL     1       2.811 -14.021   3.807  0.00  0.00    -0.052 S 
ATOM     31  H   UNL     1       3.858 -11.778   6.058  0.00  0.00    +0.168 HD
ENDBRANCH  19  21
ENDBRANCH  18  19
ENDBRANCH  17  18
ENDBRANCH   3  17
TORSDOF 6
