REMARK  Name = ZINC65626736
REMARK  9 active torsions:
REMARK  status: ('A' for Active; 'I' for Inactive)
REMARK    1  A    between atoms: C_1  and  C_2
REMARK    2  A    between atoms: C_2  and  C_4
REMARK    3  A    between atoms: C_2  and  N_23
REMARK    4  A    between atoms: N_6  and  C_7
REMARK    5  A    between atoms: C_7  and  C_9
REMARK    6  A    between atoms: C_7  and  C_16
REMARK    7  A    between atoms: C_9  and  C_10
REMARK    8  A    between atoms: C_16  and  N_17
REMARK    9  A    between atoms: C_24  and  C_26
REMARK                            x       y       z     vdW  Elec       q    Type
REMARK                         _______ _______ _______ _____ _____    ______ ____
ROOT
ATOM      1  C   UNL     1      -1.412  -0.526   0.013  0.00  0.00    +0.233 C 
ATOM      2  O   UNL     1      -1.808  -1.223  -0.897  0.00  0.00    -0.274 OA
ATOM      3  N   UNL     1      -2.236  -0.217   1.033  0.00  0.00    -0.312 N 
ATOM      4  H   UNL     1      -1.920   0.341   1.761  0.00  0.00    +0.149 HD
ENDROOT
BRANCH   1   6
ATOM      5  C   UNL     1      -0.019   1.526   0.010  0.00  0.00    +0.038 C 
ATOM      6  C   UNL     1       0.002  -0.004   0.002  0.00  0.00    +0.156 C 
BRANCH   6   7
ATOM      7  N   UNL     1       0.688  -0.476  -1.203  0.00  0.00    -0.300 N 
ATOM      8  C   UNL     1       2.031  -0.587  -1.215  0.00  0.00    +0.251 C 
ATOM      9  O   UNL     1       2.674  -0.294  -0.224  0.00  0.00    -0.270 OA
ATOM     10  H   UNL     1       0.175  -0.710  -1.993  0.00  0.00    +0.150 HD
BRANCH   8  11
ATOM     11  C   UNL     1       2.717  -1.059  -2.420  0.00  0.00    +0.075 A 
ATOM     12  C   UNL     1       4.074  -1.248  -2.637  0.00  0.00    +0.022 A 
ATOM     13  C   UNL     1       4.421  -1.706  -3.884  0.00  0.00    +0.024 A 
ATOM     14  C   UNL     1       3.444  -1.938  -4.797  0.00  0.00    +0.056 A 
ATOM     15  S   UNL     1       2.024  -1.549  -3.988  0.00  0.00    -0.077 S 
ATOM     16 BR   UNL     1       3.636  -2.565  -6.571  0.00  0.00    -0.043 Br
ENDBRANCH   8  11
ENDBRANCH   6   7
ENDBRANCH   1   6
BRANCH   3  17
ATOM     17  C   UNL     1      -3.611  -0.724   1.044  0.00  0.00    +0.061 C 
BRANCH  17  18
ATOM     18  C   UNL     1      -4.506   0.212   0.230  0.00  0.00    +0.055 C 
BRANCH  18  19
ATOM     19  C   UNL     1      -4.081   0.183  -1.216  0.00  0.00    -0.046 A 
ATOM     20  C   UNL     1      -3.123   1.069  -1.673  0.00  0.00    +0.004 A 
ATOM     21  C   UNL     1      -2.734   1.042  -2.999  0.00  0.00    +0.000 A 
ATOM     22  C   UNL     1      -3.301   0.129  -3.868  0.00  0.00    +0.000 A 
ATOM     23  C   UNL     1      -4.258  -0.758  -3.410  0.00  0.00    +0.000 A 
ATOM     24  C   UNL     1      -4.645  -0.734  -2.083  0.00  0.00    +0.004 A 
ENDBRANCH  18  19
ENDBRANCH  17  18
BRANCH  17  25
ATOM     25  C   UNL     1      -4.119  -0.790   2.485  0.00  0.00    -0.056 C 
BRANCH  25  26
ATOM     26  N   UNL     1      -3.192  -1.593   3.295  0.00  0.00    +0.381 N 
ATOM     27  C   UNL     1      -3.195  -2.978   2.809  0.00  0.00    -0.079 C 
ATOM     28  C   UNL     1      -2.171  -3.800   3.596  0.00  0.00    -0.019 C 
ATOM     29  C   UNL     1      -2.541  -3.778   5.082  0.00  0.00    -0.004 C 
ATOM     30  C   UNL     1      -2.608  -2.324   5.559  0.00  0.00    -0.019 C 
ATOM     31  C   UNL     1      -3.615  -1.557   4.700  0.00  0.00    -0.079 C 
ATOM     32  H   UNL     1      -2.261  -1.212   3.215  0.00  0.00    -0.082 HD
ENDBRANCH  25  26
ENDBRANCH  17  25
ENDBRANCH   3  17
TORSDOF 8
