REMARK  Name = ZINC46643032
REMARK  9 active torsions:
REMARK  status: ('A' for Active; 'I' for Inactive)
REMARK    1  A    between atoms: C_1  and  C_2
REMARK    2  A    between atoms: C_2  and  C_4
REMARK    3  A    between atoms: C_2  and  N_14
REMARK    4  A    between atoms: C_7  and  S_10
REMARK    5  A    between atoms: S_10  and  N_13
REMARK    6  A    between atoms: C_15  and  C_17
REMARK    7  A    between atoms: C_24  and  C_26
REMARK    8  A    between atoms: C_31  and  O_32
REMARK    9  A    between atoms: O_32  and  C_33
REMARK                            x       y       z     vdW  Elec       q    Type
REMARK                         _______ _______ _______ _____ _____    ______ ____
ROOT
ATOM      1  N   UNL     1       0.671  -0.524   1.188  0.00  0.00    -0.308 N 
ATOM      2  C   UNL     1       0.010  -0.683   2.352  0.00  0.00    +0.218 C 
ATOM      3  O   UNL     1      -1.175  -0.431   2.415  0.00  0.00    -0.275 OA
ATOM      4  H   UNL     1       1.619  -0.725   1.137  0.00  0.00    +0.149 HD
ENDROOT
BRANCH   2   5
ATOM      5  C   UNL     1       0.743  -1.173   3.574  0.00  0.00    +0.092 C 
ATOM      6  C   UNL     1      -0.231  -1.265   4.750  0.00  0.00    +0.016 C 
ATOM      7  C   UNL     1       0.519  -1.731   6.000  0.00  0.00    +0.020 C 
ATOM      8  C   UNL     1       1.108  -3.123   5.749  0.00  0.00    +0.108 C 
ATOM      9  N   UNL     1       1.931  -3.076   4.533  0.00  0.00    -0.297 N 
ATOM     10  C   UNL     1       1.335  -2.558   3.294  0.00  0.00    +0.120 C 
ATOM     11  C   UNL     1       3.211  -3.499   4.554  0.00  0.00    +0.250 C 
ATOM     12  O   UNL     1       3.726  -3.825   5.605  0.00  0.00    -0.270 OA
BRANCH  11  13
ATOM     13  C   UNL     1       3.986  -3.565   3.300  0.00  0.00    +0.079 A 
ATOM     14  C   UNL     1       3.489  -4.275   2.204  0.00  0.00    +0.017 A 
ATOM     15  C   UNL     1       4.218  -4.333   1.036  0.00  0.00    +0.001 A 
ATOM     16  C   UNL     1       5.442  -3.691   0.943  0.00  0.00    +0.004 A 
ATOM     17  C   UNL     1       5.944  -2.986   2.018  0.00  0.00    +0.046 A 
ATOM     18  C   UNL     1       5.222  -2.913   3.200  0.00  0.00    +0.139 A 
BRANCH  18  19
ATOM     19  O   UNL     1       5.712  -2.217   4.256  0.00  0.00    -0.433 OA
BRANCH  19  20
ATOM     20  C   UNL     1       6.978  -1.578   4.081  0.00  0.00    +0.541 C 
ATOM     21  F   UNL     1       7.949  -2.540   3.782  0.00  0.00    -0.166 F 
ATOM     22  F   UNL     1       6.895  -0.657   3.030  0.00  0.00    -0.166 F 
ENDBRANCH  19  20
ENDBRANCH  18  19
ENDBRANCH  11  13
ENDBRANCH   2   5
BRANCH   1  24
ATOM     23  C   UNL     1      -0.089   1.481   0.012  0.00  0.00    +0.033 C 
ATOM     24  C   UNL     1      -0.042  -0.048  -0.000  0.00  0.00    +0.100 C 
BRANCH  24  25
ATOM     25  C   UNL     1       0.676  -0.518  -1.239  0.00  0.00    -0.027 A 
ATOM     26  C   UNL     1       2.058  -0.515  -1.280  0.00  0.00    +0.007 A 
ATOM     27  C   UNL     1       2.717  -0.947  -2.416  0.00  0.00    +0.029 A 
ATOM     28  C   UNL     1       1.994  -1.382  -3.511  0.00  0.00    +0.105 A 
ATOM     29  C   UNL     1       0.612  -1.386  -3.470  0.00  0.00    +0.029 A 
ATOM     30  C   UNL     1      -0.046  -0.959  -2.332  0.00  0.00    +0.007 A 
BRANCH  28  31
ATOM     31  S   UNL     1       2.833  -1.931  -4.960  0.00  0.00    +0.056 S 
ATOM     32  O   UNL     1       1.925  -1.772  -6.040  0.00  0.00    -0.153 OA
ATOM     33  O   UNL     1       4.114  -1.315  -4.945  0.00  0.00    -0.153 OA
BRANCH  31  34
ATOM     34  N   UNL     1       3.089  -3.558  -4.790  0.00  0.00    -0.204 NA
ATOM     35  H   UNL     1       3.123  -4.128  -5.575  0.00  0.00    +0.144 HD
ATOM     36  H   UNL     1       3.205  -3.942  -3.907  0.00  0.00    +0.144 HD
ENDBRANCH  31  34
ENDBRANCH  28  31
ENDBRANCH  24  25
ENDBRANCH   1  24
TORSDOF 8
