REMARK  Name = ZINC62406923
REMARK  6 active torsions:
REMARK  status: ('A' for Active; 'I' for Inactive)
REMARK    1  A    between atoms: C_1  and  C_2
REMARK    2  A    between atoms: C_2  and  C_3
REMARK    3  A    between atoms: C_3  and  C_4
REMARK    4  A    between atoms: C_3  and  N_5
REMARK    5  A    between atoms: C_6  and  C_8
REMARK    6  A    between atoms: C_11  and  N_14
REMARK                            x       y       z     vdW  Elec       q    Type
REMARK                         _______ _______ _______ _____ _____    ______ ____
ROOT
ATOM      1  N   UNL     1      -2.427   1.438  -8.211  0.00  0.00    -0.269 N 
ATOM      2  C   UNL     1      -1.787   1.742  -9.357  0.00  0.00    +0.307 C 
ATOM      3  O   UNL     1      -0.581   1.609  -9.434  0.00  0.00    -0.252 OA
ATOM      4  N   UNL     1      -2.484   2.192 -10.419  0.00  0.00    -0.282 N 
ATOM      5  C   UNL     1      -3.869   2.519 -10.238  0.00  0.00    +0.113 C 
ATOM      6  C   UNL     1      -4.317   3.669 -11.088  0.00  0.00    +0.007 C 
ATOM      7  C   UNL     1      -3.346   4.839 -11.058  0.00  0.00    +0.008 C 
ATOM      8  C   UNL     1      -2.239   4.756 -12.089  0.00  0.00    -0.009 C 
ATOM      9  C   UNL     1      -2.804   4.459 -13.481  0.00  0.00    +0.007 C 
ATOM     10  C   UNL     1      -3.547   3.124 -13.392  0.00  0.00    -0.009 C 
ATOM     11  C   UNL     1      -4.759   3.308 -12.478  0.00  0.00    +0.008 C 
ATOM     12  C   UNL     1      -2.647   2.017 -12.894  0.00  0.00    +0.026 C 
ATOM     13  C   UNL     1      -1.795   2.329 -11.691  0.00  0.00    +0.078 C 
ATOM     14  C   UNL     1      -1.174   3.719 -11.761  0.00  0.00    +0.026 C 
ATOM     15  H   UNL     1      -3.396   1.420  -8.187  0.00  0.00    +0.156 HD
ENDROOT
BRANCH   1  19
ATOM     16  C   UNL     1      -0.241   0.575  -4.771  0.00  0.00    +0.037 A 
ATOM     17  C   UNL     1      -1.565   1.012  -4.669  0.00  0.00    +0.015 A 
ATOM     18  C   UNL     1      -2.284   1.296  -5.808  0.00  0.00    +0.024 A 
ATOM     19  C   UNL     1      -1.695   1.149  -7.060  0.00  0.00    +0.035 A 
ATOM     20  C   UNL     1      -0.378   0.714  -7.165  0.00  0.00    +0.024 A 
ATOM     21  C   UNL     1       0.349   0.434  -6.030  0.00  0.00    +0.015 A 
BRANCH  16  23
ATOM     22  N   UNL     1      -0.038   0.407  -2.340  0.00  0.00    -0.309 N 
ATOM     23  C   UNL     1       0.533   0.270  -3.553  0.00  0.00    +0.244 C 
ATOM     24  O   UNL     1       1.686  -0.105  -3.643  0.00  0.00    -0.270 OA
ATOM     25  H   UNL     1      -0.958   0.706  -2.267  0.00  0.00    +0.149 HD
BRANCH  22  26
ATOM     26  C   UNL     1       0.731   0.104  -1.130  0.00  0.00    +0.070 C 
ATOM     27  C   UNL     1       0.650  -1.395  -0.836  0.00  0.00    +0.028 C 
BRANCH  26  29
ATOM     28  C   UNL     1       0.347   2.386  -0.187  0.00  0.00    +0.005 C 
ATOM     29  C   UNL     1       0.153   0.887   0.051  0.00  0.00    +0.018 C 
ENDBRANCH  26  29
ENDBRANCH  22  26
ENDBRANCH  16  23
ENDBRANCH   1  19
TORSDOF 4
