REMARK  Name = ZINC12541576
REMARK  6 active torsions:
REMARK  status: ('A' for Active; 'I' for Inactive)
REMARK    1  A    between atoms: C_4  and  C_7
REMARK    2  A    between atoms: C_10  and  S_18
REMARK    3  A    between atoms: N_11  and  C_12
REMARK    4  A    between atoms: C_12  and  C_13
REMARK    5  A    between atoms: S_18  and  C_19
REMARK    6  A    between atoms: C_19  and  C_20
REMARK                            x       y       z     vdW  Elec       q    Type
REMARK                         _______ _______ _______ _____ _____    ______ ____
ROOT
ATOM      1  C   UNL     1       2.151   2.214   1.123  0.00  0.00    +0.165 A 
ATOM      2  N   UNL     1       3.272   2.744   0.694  0.00  0.00    -0.128 NA
ATOM      3  N   UNL     1       3.243   2.857  -0.586  0.00  0.00    -0.122 NA
ATOM      4  C   UNL     1       2.102   2.400  -1.053  0.00  0.00    +0.193 A 
ATOM      5  N   UNL     1       1.369   1.972   0.016  0.00  0.00    -0.295 N 
ENDROOT
BRANCH   1   9
ATOM      6  C   UNL     1       1.130   1.392   5.163  0.00  0.00    +0.000 A 
ATOM      7  C   UNL     1       2.168   2.262   4.878  0.00  0.00    +0.001 A 
ATOM      8  C   UNL     1       2.504   2.533   3.568  0.00  0.00    +0.011 A 
ATOM      9  C   UNL     1       1.795   1.928   2.529  0.00  0.00    +0.019 A 
ATOM     10  C   UNL     1       0.746   1.056   2.823  0.00  0.00    +0.011 A 
ATOM     11  C   UNL     1       0.424   0.788   4.138  0.00  0.00    +0.001 A 
ENDBRANCH   1   9
BRANCH   5  12
ATOM     12  C   UNL     1       0.028   1.383  -0.008  0.00  0.00    +0.200 C 
BRANCH  12  13
ATOM     13  C   UNL     1       0.131  -0.089  -0.312  0.00  0.00    +0.125 A 
ATOM     14  C   UNL     1       0.377  -1.062   0.584  0.00  0.00    +0.046 A 
ATOM     15  C   UNL     1       0.386  -2.283  -0.129  0.00  0.00    +0.041 A 
ATOM     16  C   UNL     1       0.152  -1.983  -1.419  0.00  0.00    +0.195 A 
ATOM     17  O   UNL     1      -0.001  -0.652  -1.524  0.00  0.00    -0.466 OA
ENDBRANCH  12  13
ENDBRANCH   5  12
BRANCH   4  18
ATOM     18  S   UNL     1       1.611   2.350  -2.745  0.00  0.00    -0.080 S 
BRANCH  18  19
ATOM     19  C   UNL     1       3.078   3.072  -3.520  0.00  0.00    +0.133 C 
BRANCH  19  20
ATOM     20  C   UNL     1       2.880   3.132  -5.013  0.00  0.00    +0.059 A 
ATOM     21  C   UNL     1       2.600   4.339  -5.624  0.00  0.00    +0.094 A 
ATOM     22  C   UNL     1       2.424   4.369  -7.012  0.00  0.00    +0.259 A 
ATOM     23  O   UNL     1       2.179   5.421  -7.583  0.00  0.00    -0.267 OA
ATOM     24  N   UNL     1       2.523   3.217  -7.710  0.00  0.00    -0.267 N 
ATOM     25  C   UNL     1       2.349   3.230  -9.060  0.00  0.00    +0.111 A 
ATOM     26  C   UNL     1       2.444   2.089  -9.780  0.00  0.00    +0.035 A 
ATOM     27  C   UNL     1       2.724   0.873  -9.139  0.00  0.00    +0.020 A 
ATOM     28  C   UNL     1       2.900   0.851  -7.788  0.00  0.00    +0.048 A 
ATOM     29  C   UNL     1       2.797   2.048  -7.057  0.00  0.00    +0.141 A 
ATOM     30  N   UNL     1       2.968   2.027  -5.736  0.00  0.00    -0.233 NA
ATOM     31 BR   UNL     1       2.197   2.132 -11.655  0.00  0.00    -0.049 Br
ENDBRANCH  19  20
ENDBRANCH  18  19
ENDBRANCH   4  18
TORSDOF 6
