REMARK  Name = ZINC12588569
REMARK  9 active torsions:
REMARK  status: ('A' for Active; 'I' for Inactive)
REMARK    1  A    between atoms: C_4  and  C_7
REMARK    2  A    between atoms: C_7  and  C_8
REMARK    3  A    between atoms: C_8  and  C_10
REMARK    4  A    between atoms: C_8  and  N_16
REMARK    5  A    between atoms: C_17  and  C_19
REMARK    6  A    between atoms: C_19  and  N_65
REMARK    7  A    between atoms: C_22  and  C_25
REMARK    8  A    between atoms: N_27  and  C_28
REMARK    9  A    between atoms: C_33  and  O_34
REMARK                            x       y       z     vdW  Elec       q    Type
REMARK                         _______ _______ _______ _____ _____    ______ ____
ROOT
ATOM      1  C   UNL     1      -3.533   1.388  -4.072  0.00  0.00    +0.019 C 
ENDROOT
BRANCH   1   7
ATOM      2  C   UNL     1      -4.398   2.466  -6.059  0.00  0.00    -0.077 C 
ATOM      3  C   UNL     1      -4.120   2.728  -7.541  0.00  0.00    -0.006 C 
ATOM      4  C   UNL     1      -4.144   1.401  -8.303  0.00  0.00    +0.072 C 
ATOM      5  C   UNL     1      -3.108   0.452  -7.694  0.00  0.00    -0.006 C 
ATOM      6  C   UNL     1      -3.415   0.255  -6.208  0.00  0.00    -0.077 C 
ATOM      7  N   UNL     1      -3.352   1.566  -5.527  0.00  0.00    +0.385 N 
ATOM      8  H   UNL     1      -2.432   1.987  -5.700  0.00  0.00    -0.081 HD
BRANCH   4   9
ATOM      9  C   UNL     1      -3.812   1.646  -9.752  0.00  0.00    +0.220 C 
ATOM     10  O   UNL     1      -2.842   1.115 -10.251  0.00  0.00    -0.275 OA
ATOM     11  N   UNL     1      -4.593   2.455 -10.495  0.00  0.00    -0.282 N 
ATOM     12  H   UNL     1      -5.404   2.828 -10.116  0.00  0.00    +0.155 HD
BRANCH  11  13
ATOM     13  C   UNL     1      -4.233   2.758 -11.815  0.00  0.00    +0.075 A 
ATOM     14  C   UNL     1      -3.599   1.805 -12.599  0.00  0.00    +0.027 A 
ATOM     15  C   UNL     1      -3.245   2.105 -13.901  0.00  0.00    +0.002 A 
ATOM     16  C   UNL     1      -3.522   3.354 -14.425  0.00  0.00    +0.004 A 
ATOM     17  C   UNL     1      -4.153   4.309 -13.650  0.00  0.00    +0.047 A 
ATOM     18  C   UNL     1      -4.516   4.014 -12.346  0.00  0.00    +0.138 A 
BRANCH  18  19
ATOM     19  O   UNL     1      -5.143   4.950 -11.584  0.00  0.00    -0.505 OA
ATOM     20  H   UNL     1      -4.540   5.516 -11.082  0.00  0.00    +0.292 HD
ENDBRANCH  18  19
ENDBRANCH  11  13
ENDBRANCH   4   9
ENDBRANCH   1   7
BRANCH   1  22
ATOM     21  N   UNL     1      -3.327   2.785  -2.041  0.00  0.00    -0.310 N 
ATOM     22  C   UNL     1      -3.247   2.698  -3.383  0.00  0.00    +0.197 C 
ATOM     23  O   UNL     1      -2.945   3.673  -4.037  0.00  0.00    -0.278 OA
ATOM     24  H   UNL     1      -3.568   2.005  -1.517  0.00  0.00    +0.149 HD
BRANCH  21  25
ATOM     25  C   UNL     1      -3.049   4.058  -1.371  0.00  0.00    +0.107 C 
BRANCH  25  26
ATOM     26  C   UNL     1      -4.299   4.901  -1.356  0.00  0.00    -0.027 A 
ATOM     27  C   UNL     1      -5.527   4.311  -1.121  0.00  0.00    +0.005 A 
ATOM     28  C   UNL     1      -6.673   5.084  -1.102  0.00  0.00    +0.000 A 
ATOM     29  C   UNL     1      -6.592   6.446  -1.329  0.00  0.00    +0.000 A 
ATOM     30  C   UNL     1      -5.364   7.034  -1.569  0.00  0.00    +0.000 A 
ATOM     31  C   UNL     1      -4.218   6.262  -1.583  0.00  0.00    +0.005 A 
ENDBRANCH  25  26
BRANCH  25  32
ATOM     32  C   UNL     1      -2.597   3.791   0.065  0.00  0.00    +0.062 C 
BRANCH  32  36
ATOM     33  C   UNL     1       1.130   1.703   0.020  0.00  0.00    +0.000 A 
ATOM     34  C   UNL     1      -0.059   0.997   0.017  0.00  0.00    +0.000 A 
ATOM     35  C   UNL     1      -1.264   1.673   0.026  0.00  0.00    +0.004 A 
ATOM     36  C   UNL     1      -1.282   3.055   0.049  0.00  0.00    -0.045 A 
ATOM     37  C   UNL     1      -0.094   3.761   0.051  0.00  0.00    +0.004 A 
ATOM     38  C   UNL     1       1.112   3.085   0.037  0.00  0.00    +0.000 A 
ENDBRANCH  32  36
ENDBRANCH  25  32
ENDBRANCH  21  25
ENDBRANCH   1  22
TORSDOF 9
