REMARK  Name = ZINC12030886
REMARK  12 active torsions:
REMARK  status: ('A' for Active; 'I' for Inactive)
REMARK    1  A    between atoms: C_1  and  N_69
REMARK    2  A    between atoms: C_5  and  C_8
REMARK    3  A    between atoms: C_8  and  O_9
REMARK    4  A    between atoms: O_9  and  C_10
REMARK    5  A    between atoms: C_16  and  C_17
REMARK    6  A    between atoms: C_17  and  O_19
REMARK    7  A    between atoms: O_19  and  C_20
REMARK    8  A    between atoms: C_25  and  C_26
REMARK    9  A    between atoms: C_25  and  N_71
REMARK   10  A    between atoms: C_29  and  O_33
REMARK   11  A    between atoms: C_30  and  O_32
REMARK   12  A    between atoms: O_33  and  C_34
REMARK                            x       y       z     vdW  Elec       q    Type
REMARK                         _______ _______ _______ _____ _____    ______ ____
ROOT
ATOM      1  C   UNL     1      -1.312   1.186  -3.589  0.00  0.00    +0.141 A 
ATOM      2  C   UNL     1      -1.968   2.400  -3.588  0.00  0.00    +0.116 A 
ATOM      3  C   UNL     1      -1.980   3.161  -2.418  0.00  0.00    +0.255 A 
ATOM      4  O   UNL     1      -2.546   4.242  -2.423  0.00  0.00    -0.268 OA
ATOM      5  N   UNL     1      -1.386   2.739  -1.277  0.00  0.00    -0.313 N 
ATOM      6  C   UNL     1      -0.702   1.589  -1.237  0.00  0.00    +0.038 A 
ATOM      7  C   UNL     1      -0.643   0.770  -2.356  0.00  0.00    +0.120 A 
ATOM      8  C   UNL     1       0.034   1.112  -0.008  0.00  0.00    +0.036 C 
ATOM      9  C   UNL     1      -0.637   1.610   1.270  0.00  0.00    -0.072 C 
ATOM     10  C   UNL     1      -0.216   3.884   0.575  0.00  0.00    -0.056 C 
ATOM     11  C   UNL     1      -1.558   3.595  -0.099  0.00  0.00    +0.106 C 
ATOM     12  N   UNL     1      -0.040   2.903   1.662  0.00  0.00    +0.384 N 
ATOM     13  H   UNL     1      -0.514   3.249   2.505  0.00  0.00    -0.081 HD
ENDROOT
BRANCH   7  14
ATOM     14  C   UNL     1       0.087  -0.507  -2.303  0.00  0.00    +0.344 C 
ATOM     15  O   UNL     1      -0.523  -1.550  -2.171  0.00  0.00    -0.245 OA
BRANCH  14  16
ATOM     16  O   UNL     1       1.431  -0.519  -2.399  0.00  0.00    -0.464 OA
ATOM     17  C   UNL     1       2.085  -1.814  -2.338  0.00  0.00    +0.280 C 
ENDBRANCH  14  16
ENDBRANCH   7  14
BRANCH   1  18
ATOM     18  O   UNL     1      -1.289   0.405  -4.695  0.00  0.00    -0.491 OA
BRANCH  18  19
ATOM     19  C   UNL     1      -1.971   0.896  -5.850  0.00  0.00    +0.230 C 
BRANCH  19  24
ATOM     20  C   UNL     1       1.173  -1.406  -8.851  0.00  0.00    -0.096 C 
ATOM     21  C   UNL     1      -0.992  -0.726  -9.694  0.00  0.00    -0.079 C 
ATOM     22  C   UNL     1      -2.480  -0.635  -9.345  0.00  0.00    -0.018 C 
ATOM     23  C   UNL     1      -2.668   0.350  -8.188  0.00  0.00    +0.003 C 
ATOM     24  C   UNL     1      -1.835  -0.115  -6.990  0.00  0.00    +0.010 C 
ATOM     25  C   UNL     1      -0.366  -0.221  -7.408  0.00  0.00    -0.072 C 
ATOM     26  N   UNL     1      -0.249  -1.202  -8.507  0.00  0.00    +0.378 N 
ATOM     27  H   UNL     1      -0.650  -2.096  -8.200  0.00  0.00    -0.082 HD
ENDBRANCH  19  24
ENDBRANCH  18  19
ENDBRANCH   1  18
BRANCH  12  28
ATOM     28  C   UNL     1       1.399   2.728   1.959  0.00  0.00    -0.043 C 
BRANCH  28  29
ATOM     29  C   UNL     1       1.933   4.005   2.555  0.00  0.00    -0.060 A 
ATOM     30  C   UNL     1       1.888   4.199   3.923  0.00  0.00    +0.005 A 
ATOM     31  C   UNL     1       2.377   5.369   4.474  0.00  0.00    +0.049 A 
ATOM     32  C   UNL     1       2.913   6.350   3.656  0.00  0.00    +0.161 A 
ATOM     33  C   UNL     1       2.958   6.154   2.279  0.00  0.00    +0.159 A 
ATOM     34  C   UNL     1       2.471   4.978   1.733  0.00  0.00    +0.051 A 
BRANCH  33  35
ATOM     35  O   UNL     1       3.484   7.114   1.471  0.00  0.00    -0.503 OA
ATOM     36  H   UNL     1       4.434   7.021   1.316  0.00  0.00    +0.292 HD
ENDBRANCH  33  35
BRANCH  32  37
ATOM     37  O   UNL     1       3.394   7.501   4.197  0.00  0.00    -0.491 OA
ATOM     38  C   UNL     1       3.316   7.633   5.617  0.00  0.00    +0.277 C 
ENDBRANCH  32  37
ENDBRANCH  28  29
ENDBRANCH  12  28
TORSDOF 9
