REMARK  Name = ZINC37526014
REMARK  7 active torsions:
REMARK  status: ('A' for Active; 'I' for Inactive)
REMARK    1  A    between atoms: C_1  and  C_2
REMARK    2  A    between atoms: C_5  and  S_8
REMARK    3  A    between atoms: S_8  and  N_11
REMARK    4  A    between atoms: N_11  and  C_12
REMARK    5  A    between atoms: N_15  and  C_18
REMARK    6  A    between atoms: C_23  and  C_24
REMARK    7  A    between atoms: N_29  and  C_32
REMARK                            x       y       z     vdW  Elec       q    Type
REMARK                         _______ _______ _______ _____ _____    ______ ____
ROOT
ATOM      1  C   UNL     1       6.412  -3.796   2.371  0.00  0.00    +0.042 A 
ATOM      2  C   UNL     1       6.994  -3.408   3.571  0.00  0.00    +0.024 A 
ATOM      3  C   UNL     1       8.359  -3.516   3.744  0.00  0.00    +0.002 A 
ATOM      4  C   UNL     1       9.158  -4.011   2.725  0.00  0.00    +0.001 A 
ATOM      5  C   UNL     1       8.599  -4.401   1.528  0.00  0.00    +0.015 A 
ATOM      6  C   UNL     1       7.218  -4.303   1.340  0.00  0.00    +0.058 A 
ENDROOT
BRANCH   6   7
ATOM      7  C   UNL     1       6.612  -4.724   0.063  0.00  0.00    +0.248 C 
ATOM      8  O   UNL     1       5.865  -3.972  -0.533  0.00  0.00    -0.270 OA
ATOM      9  N   UNL     1       6.885  -5.943  -0.442  0.00  0.00    -0.301 N 
ATOM     10  C   UNL     1       7.677  -6.919   0.322  0.00  0.00    +0.089 C 
ATOM     11  C   UNL     1       6.920  -8.251   0.342  0.00  0.00    -0.059 C 
ATOM     12  N   UNL     1       6.617  -8.661  -1.035  0.00  0.00    +0.384 N 
ATOM     13  C   UNL     1       5.702  -7.696  -1.655  0.00  0.00    -0.059 C 
ATOM     14  C   UNL     1       6.394  -6.338  -1.772  0.00  0.00    +0.089 C 
ATOM     15  H   UNL     1       7.473  -8.702  -1.568  0.00  0.00    -0.081 HD
BRANCH  12  16
ATOM     16  C   UNL     1       5.990  -9.989  -1.022  0.00  0.00    -0.068 C 
ATOM     17  C   UNL     1       6.971 -11.032  -0.448  0.00  0.00    -0.015 C 
ATOM     18  C   UNL     1       6.709 -12.305  -1.290  0.00  0.00    -0.002 C 
ATOM     19  C   UNL     1       6.463 -11.732  -2.708  0.00  0.00    -0.002 C 
ATOM     20  C   UNL     1       5.666 -10.434  -2.459  0.00  0.00    -0.015 C 
ENDBRANCH  12  16
ENDBRANCH   6   7
BRANCH   1  24
ATOM     21  C   UNL     1       2.564  -3.728   0.825  0.00  0.00    +0.079 C 
ATOM     22  C   UNL     1       3.571  -2.603   0.575  0.00  0.00    +0.039 C 
ATOM     23  C   UNL     1       4.428  -2.403   1.829  0.00  0.00    +0.106 C 
ATOM     24  N   UNL     1       5.038  -3.689   2.195  0.00  0.00    -0.329 N 
ATOM     25  C   UNL     1       4.167  -4.859   2.370  0.00  0.00    +0.106 C 
ATOM     26  C   UNL     1       3.313  -5.032   1.111  0.00  0.00    +0.039 C 
BRANCH  21  27
ATOM     27  N   UNL     1       1.720  -3.900  -0.361  0.00  0.00    -0.187 NA
ATOM     28  H   UNL     1       2.022  -4.459  -1.093  0.00  0.00    +0.148 HD
BRANCH  27  29
ATOM     29  S   UNL     1       0.253  -3.139  -0.450  0.00  0.00    +0.059 S 
ATOM     30  O   UNL     1      -0.418  -3.405   0.774  0.00  0.00    -0.153 OA
ATOM     31  O   UNL     1      -0.304  -3.476  -1.713  0.00  0.00    -0.153 OA
BRANCH  29  36
ATOM     32  C   UNL     1       1.323   2.798  -0.569  0.00  0.00    +0.044 C 
ATOM     33  C   UNL     1       1.056   1.315  -0.539  0.00  0.00    -0.050 A 
ATOM     34  C   UNL     1       0.989   0.601  -1.721  0.00  0.00    +0.005 A 
ATOM     35  C   UNL     1       0.744  -0.759  -1.694  0.00  0.00    +0.029 A 
ATOM     36  C   UNL     1       0.566  -1.405  -0.484  0.00  0.00    +0.105 A 
ATOM     37  C   UNL     1       0.634  -0.691   0.697  0.00  0.00    +0.029 A 
ATOM     38  C   UNL     1       0.883   0.668   0.670  0.00  0.00    +0.005 A 
ENDBRANCH  29  36
ENDBRANCH  27  29
ENDBRANCH  21  27
ENDBRANCH   1  24
TORSDOF 6
