REMARK  Name = ZINC02449906
REMARK  8 active torsions:
REMARK  status: ('A' for Active; 'I' for Inactive)
REMARK    1  A    between atoms: C_1  and  O_2
REMARK    2  A    between atoms: O_2  and  C_3
REMARK    3  A    between atoms: C_6  and  C_9
REMARK    4  A    between atoms: C_20  and  C_22
REMARK    5  A    between atoms: C_26  and  O_30
REMARK    6  A    between atoms: C_27  and  O_28
REMARK    7  A    between atoms: O_28  and  C_29
REMARK    8  A    between atoms: O_30  and  C_31
REMARK                            x       y       z     vdW  Elec       q    Type
REMARK                         _______ _______ _______ _____ _____    ______ ____
ROOT
ATOM      1  C   UNL     1       2.545  -2.073  -4.471  0.00  0.00    +0.159 C 
ATOM      2  C   UNL     1       1.502  -2.805  -5.286  0.00  0.00    +0.027 C 
ATOM      3  C   UNL     1       1.596  -4.148  -5.377  0.00  0.00    +0.083 C 
ATOM      4  C   UNL     1       0.571  -4.852  -6.189  0.00  0.00    +0.042 A 
ATOM      5  C   UNL     1       0.385  -6.224  -6.089  0.00  0.00    +0.013 A 
ATOM      6  C   UNL     1      -0.582  -6.839  -6.861  0.00  0.00    +0.001 A 
ATOM      7  C   UNL     1      -1.359  -6.093  -7.729  0.00  0.00    +0.004 A 
ATOM      8  C   UNL     1      -1.179  -4.726  -7.835  0.00  0.00    +0.046 A 
ATOM      9  C   UNL     1      -0.214  -4.096  -7.068  0.00  0.00    +0.131 A 
ATOM     10  O   UNL     1      -0.011  -2.757  -7.157  0.00  0.00    -0.479 OA
ATOM     11  C   UNL     1       0.388  -2.068  -5.970  0.00  0.00    +0.238 C 
ATOM     12  N   UNL     1       2.586  -4.833  -4.753  0.00  0.00    -0.213 NA
ATOM     13  C   UNL     1       3.527  -4.277  -4.027  0.00  0.00    +0.237 C 
ATOM     14  N   UNL     1       3.571  -2.913  -3.842  0.00  0.00    -0.208 N 
ATOM     15  N   UNL     1       4.680  -2.658  -3.032  0.00  0.00    -0.251 N 
ATOM     16  C   UNL     1       5.248  -3.866  -2.763  0.00  0.00    +0.203 C 
ATOM     17  N   UNL     1       4.572  -4.802  -3.349  0.00  0.00    -0.205 NA
ATOM     18  H   UNL     1       4.985  -1.791  -2.722  0.00  0.00    +0.171 HD
ENDROOT
BRANCH   1  22
ATOM     19  C   UNL     1       0.538   0.110  -1.393  0.00  0.00    +0.120 A 
ATOM     20  C   UNL     1       0.870   0.736  -2.586  0.00  0.00    +0.046 A 
ATOM     21  C   UNL     1       1.519   0.029  -3.579  0.00  0.00    +0.009 A 
ATOM     22  C   UNL     1       1.837  -1.303  -3.385  0.00  0.00    -0.021 A 
ATOM     23  C   UNL     1       1.507  -1.930  -2.198  0.00  0.00    +0.009 A 
ATOM     24  C   UNL     1       0.864  -1.225  -1.199  0.00  0.00    +0.046 A 
BRANCH  19  26
ATOM     25  C   UNL     1      -0.404   2.174  -0.683  0.00  0.00    +0.277 C 
ATOM     26  O   UNL     1      -0.100   0.804  -0.415  0.00  0.00    -0.495 OA
ENDBRANCH  19  26
ENDBRANCH   1  22
BRANCH  11  27
ATOM     27  C   UNL     1      -0.788  -1.964  -5.035  0.00  0.00    +0.042 A 
ATOM     28  C   UNL     1      -1.030  -2.967  -4.113  0.00  0.00    +0.011 A 
ATOM     29  C   UNL     1      -2.108  -2.874  -3.253  0.00  0.00    +0.004 A 
ATOM     30  C   UNL     1      -2.951  -1.780  -3.312  0.00  0.00    +0.049 A 
ATOM     31  C   UNL     1      -2.715  -0.772  -4.232  0.00  0.00    +0.162 A 
ATOM     32  C   UNL     1      -1.625  -0.862  -5.094  0.00  0.00    +0.168 A 
BRANCH  32  33
ATOM     33  O   UNL     1      -1.386   0.127  -5.996  0.00  0.00    -0.491 OA
ATOM     34  C   UNL     1      -2.060   0.036  -7.253  0.00  0.00    +0.277 C 
ENDBRANCH  32  33
BRANCH  31  35
ATOM     35  O   UNL     1      -3.543   0.305  -4.291  0.00  0.00    -0.491 OA
ATOM     36  C   UNL     1      -4.637   0.333  -3.372  0.00  0.00    +0.277 C 
ENDBRANCH  31  35
ENDBRANCH  11  27
TORSDOF 5
