REMARK  Name = ZINC59422862
REMARK  7 active torsions:
REMARK  status: ('A' for Active; 'I' for Inactive)
REMARK    1  A    between atoms: C_4  and  N_7
REMARK    2  A    between atoms: C_11  and  C_12
REMARK    3  A    between atoms: C_15  and  O_18
REMARK    4  A    between atoms: O_18  and  C_19
REMARK    5  A    between atoms: C_19  and  C_21
REMARK    6  A    between atoms: C_23  and  N_30
REMARK    7  A    between atoms: C_25  and  N_27
REMARK                            x       y       z     vdW  Elec       q    Type
REMARK                         _______ _______ _______ _____ _____    ______ ____
ROOT
ATOM      1  C   UNL     1       6.715  -4.201   0.109  0.00  0.00    -0.024 A 
ATOM      2  C   UNL     1       7.723  -3.232   0.035  0.00  0.00    +0.011 A 
ATOM      3  C   UNL     1       9.045  -3.611   0.093  0.00  0.00    +0.047 A 
ATOM      4  C   UNL     1       9.380  -4.954   0.224  0.00  0.00    +0.132 A 
ATOM      5  C   UNL     1       8.384  -5.920   0.299  0.00  0.00    +0.047 A 
ATOM      6  C   UNL     1       7.059  -5.551   0.248  0.00  0.00    +0.011 A 
ENDROOT
BRANCH   1  11
ATOM      7  N   UNL     1       3.628  -0.572  -0.530  0.00  0.00    -0.197 N 
ATOM      8  C   UNL     1       3.660  -1.846  -0.177  0.00  0.00    +0.265 C 
ATOM      9  O   UNL     1       2.658  -2.434   0.185  0.00  0.00    -0.269 OA
ATOM     10  C   UNL     1       4.972  -2.520  -0.247  0.00  0.00    +0.080 C 
ATOM     11  C   UNL     1       5.303  -3.802   0.048  0.00  0.00    +0.028 C 
ATOM     12  S   UNL     1       6.005  -1.181  -0.828  0.00  0.00    -0.025 S 
ATOM     13  C   UNL     1       4.740   0.074  -0.936  0.00  0.00    +0.290 C 
ATOM     14  O   UNL     1       4.854   1.232  -1.290  0.00  0.00    -0.262 OA
BRANCH   7  18
ATOM     15  C   UNL     1       0.007   1.489  -0.396  0.00  0.00    +0.000 A 
ATOM     16  C   UNL     1       0.635   1.274  -1.610  0.00  0.00    +0.002 A 
ATOM     17  C   UNL     1       1.835   0.592  -1.657  0.00  0.00    +0.024 A 
ATOM     18  C   UNL     1       2.411   0.121  -0.485  0.00  0.00    +0.045 A 
ATOM     19  C   UNL     1       1.779   0.338   0.732  0.00  0.00    +0.024 A 
ATOM     20  C   UNL     1       0.579   1.021   0.773  0.00  0.00    +0.002 A 
ENDBRANCH   7  18
ENDBRANCH   1  11
BRANCH   4  21
ATOM     21  O   UNL     1      10.686  -5.322   0.280  0.00  0.00    -0.422 OA
BRANCH  21  22
ATOM     22  C   UNL     1      11.372  -5.051   1.407  0.00  0.00    +0.345 C 
ATOM     23  O   UNL     1      10.797  -4.589   2.373  0.00  0.00    -0.245 OA
BRANCH  22  24
ATOM     24  C   UNL     1      12.824  -5.315   1.470  0.00  0.00    +0.064 A 
ATOM     25  C   UNL     1      13.490  -5.840   0.360  0.00  0.00    +0.047 A 
ATOM     26  C   UNL     1      14.846  -6.085   0.425  0.00  0.00    +0.129 A 
ATOM     27  C   UNL     1      15.546  -5.811   1.586  0.00  0.00    +0.065 A 
ATOM     28  C   UNL     1      14.893  -5.290   2.690  0.00  0.00    +0.129 A 
ATOM     29  C   UNL     1      13.539  -5.035   2.636  0.00  0.00    +0.047 A 
BRANCH  28  30
ATOM     30  N   UNL     1      15.651  -5.001   3.928  0.00  0.00    +0.057 N 
ATOM     31  O   UNL     1      16.839  -5.220   3.975  0.00  0.00    -0.126 OA
ATOM     32  O   UNL     1      15.082  -4.547   4.893  0.00  0.00    -0.126 OA
ENDBRANCH  28  30
BRANCH  26  33
ATOM     33  N   UNL     1      15.553  -6.642  -0.750  0.00  0.00    +0.057 N 
ATOM     34  O   UNL     1      14.942  -6.882  -1.765  0.00  0.00    -0.126 OA
ATOM     35  O   UNL     1      16.741  -6.856  -0.695  0.00  0.00    -0.126 OA
ENDBRANCH  26  33
ENDBRANCH  22  24
ENDBRANCH  21  22
ENDBRANCH   4  21
TORSDOF 7
