REMARK  Name = ZINC16042605
REMARK  6 active torsions:
REMARK  status: ('A' for Active; 'I' for Inactive)
REMARK    1  A    between atoms: C_4  and  C_7
REMARK    2  A    between atoms: C_7  and  C_8
REMARK    3  A    between atoms: C_8  and  C_9
REMARK    4  A    between atoms: N_28  and  C_31
REMARK    5  A    between atoms: C_31  and  C_32
REMARK    6  A    between atoms: C_32  and  C_33
REMARK                            x       y       z     vdW  Elec       q    Type
REMARK                         _______ _______ _______ _____ _____    ______ ____
ROOT
ATOM      1  C   UNL     1      -1.319   4.874   0.048  0.00  0.00    +0.124 C 
ATOM      2  C   UNL     1      -0.527   3.586   0.028  0.00  0.00    +0.041 A 
ATOM      3  C   UNL     1      -1.095   2.361   0.019  0.00  0.00    -0.015 A 
ATOM      4  C   UNL     1      -0.017   1.394   0.010  0.00  0.00    +0.003 A 
ATOM      5  C   UNL     1       0.002  -0.004   0.002  0.00  0.00    +0.010 A 
ATOM      6  C   UNL     1       1.235  -0.608  -0.015  0.00  0.00    +0.001 A 
ATOM      7  C   UNL     1       2.412   0.123  -0.024  0.00  0.00    +0.002 A 
ATOM      8  C   UNL     1       2.423   1.507  -0.015  0.00  0.00    +0.026 A 
ATOM      9  C   UNL     1       1.185   2.147   0.002  0.00  0.00    +0.047 A 
ATOM     10  N   UNL     1       0.838   3.467   0.015  0.00  0.00    -0.356 N 
ATOM     11  H   UNL     1       1.463   4.209   0.015  0.00  0.00    +0.166 HD
ATOM     12  C   UNL     1      -2.581   2.105   0.026  0.00  0.00    +0.069 C 
ATOM     13  C   UNL     1      -3.305   3.384   0.469  0.00  0.00    +0.167 C 
ATOM     14  N   UNL     1      -2.729   4.530  -0.234  0.00  0.00    -0.280 N 
ATOM     15  C   UNL     1      -3.413   5.268  -1.109  0.00  0.00    +0.234 C 
ATOM     16  O   UNL     1      -2.821   6.155  -1.687  0.00  0.00    -0.274 OA
ATOM     17  C   UNL     1      -4.861   5.077  -1.426  0.00  0.00    +0.203 C 
ATOM     18  N   UNL     1      -5.455   4.007  -0.642  0.00  0.00    -0.291 N 
ATOM     19  C   UNL     1      -4.771   3.246   0.210  0.00  0.00    +0.237 C 
ATOM     20  O   UNL     1      -5.375   2.385   0.814  0.00  0.00    -0.274 OA
ENDROOT
BRANCH   1  21
ATOM     21  C   UNL     1      -1.209   5.531   1.425  0.00  0.00    +0.033 C 
BRANCH  21  22
ATOM     22  C   UNL     1      -1.908   6.892   1.399  0.00  0.00    +0.037 C 
BRANCH  22  26
ATOM     23  C   UNL     1      -1.601   8.727   5.244  0.00  0.00    +0.000 A 
ATOM     24  C   UNL     1      -0.625   8.951   4.291  0.00  0.00    +0.000 A 
ATOM     25  C   UNL     1      -0.724   8.357   3.047  0.00  0.00    +0.003 A 
ATOM     26  C   UNL     1      -1.800   7.539   2.755  0.00  0.00    -0.047 A 
ATOM     27  C   UNL     1      -2.779   7.319   3.706  0.00  0.00    +0.003 A 
ATOM     28  C   UNL     1      -2.676   7.909   4.952  0.00  0.00    +0.000 A 
ENDBRANCH  22  26
ENDBRANCH  21  22
ENDBRANCH   1  21
BRANCH  18  29
ATOM     29  C   UNL     1      -6.889   3.751  -0.797  0.00  0.00    +0.113 C 
BRANCH  29  30
ATOM     30  C   UNL     1      -7.670   4.597   0.210  0.00  0.00    +0.056 C 
BRANCH  30  31
ATOM     31  C   UNL     1      -9.145   4.334   0.051  0.00  0.00    -0.021 A 
ATOM     32  C   UNL     1     -10.009   5.052  -0.684  0.00  0.00    +0.087 A 
ATOM     33  N   UNL     1     -11.263   4.513  -0.589  0.00  0.00    -0.360 N 
ATOM     34  H   UNL     1     -12.054   4.859  -1.032  0.00  0.00    +0.165 HD
ATOM     35  C   UNL     1     -11.236   3.407   0.230  0.00  0.00    +0.047 A 
ATOM     36  C   UNL     1      -9.907   3.242   0.662  0.00  0.00    +0.003 A 
ATOM     37  C   UNL     1      -9.578   2.191   1.519  0.00  0.00    +0.010 A 
ATOM     38  C   UNL     1     -10.548   1.319   1.926  0.00  0.00    +0.001 A 
ATOM     39  C   UNL     1     -11.860   1.473   1.499  0.00  0.00    +0.002 A 
ATOM     40  C   UNL     1     -12.207   2.507   0.657  0.00  0.00    +0.026 A 
ENDBRANCH  30  31
ENDBRANCH  29  30
ENDBRANCH  18  29
TORSDOF 6
