REMARK  Name = ZINC05295646
REMARK  9 active torsions:
REMARK  status: ('A' for Active; 'I' for Inactive)
REMARK    1  A    between atoms: C_1  and  C_2
REMARK    2  A    between atoms: C_2  and  C_3
REMARK    3  A    between atoms: C_2  and  C_4
REMARK    4  A    between atoms: C_4  and  C_6
REMARK    5  A    between atoms: C_4  and  N_23
REMARK    6  A    between atoms: N_8  and  N_9
REMARK    7  A    between atoms: C_10  and  C_12
REMARK    8  A    between atoms: C_12  and  C_13
REMARK    9  A    between atoms: C_24  and  C_26
REMARK                            x       y       z     vdW  Elec       q    Type
REMARK                         _______ _______ _______ _____ _____    ______ ____
ROOT
ATOM      1  C   UNL     1      -8.268   1.276   2.889  0.00  0.00    +0.250 C 
ATOM      2  O   UNL     1      -8.856   0.575   2.092  0.00  0.00    -0.272 OA
ATOM      3  N   UNL     1      -6.984   1.621   2.665  0.00  0.00    -0.233 N 
ATOM      4  H   UNL     1      -6.515   2.181   3.302  0.00  0.00    +0.173 HD
ENDROOT
BRANCH   3   5
ATOM      5  N   UNL     1      -6.329   1.169   1.513  0.00  0.00    -0.234 N 
ATOM      6  C   UNL     1      -5.045   1.513   1.289  0.00  0.00    +0.230 C 
ATOM      7  O   UNL     1      -4.457   2.214   2.085  0.00  0.00    -0.274 OA
ATOM      8  H   UNL     1      -6.799   0.608   0.875  0.00  0.00    +0.173 HD
BRANCH   6   9
ATOM      9  C   UNL     1      -4.340   1.027   0.049  0.00  0.00    +0.104 C 
BRANCH   9  10
ATOM     10  C   UNL     1      -2.904   1.556   0.038  0.00  0.00    -0.020 C 
ATOM     11  C   UNL     1      -2.188   1.063  -1.221  0.00  0.00    +0.011 C 
ATOM     12  C   UNL     1      -0.753   1.593  -1.232  0.00  0.00    -0.010 C 
ATOM     13  C   UNL     1      -0.013   1.086   0.008  0.00  0.00    +0.007 C 
ATOM     14  C   UNL     1      -0.729   1.579   1.267  0.00  0.00    -0.010 C 
ATOM     15  C   UNL     1      -2.164   1.050   1.278  0.00  0.00    +0.011 C 
ATOM     16  C   UNL     1      -0.750   3.109   1.275  0.00  0.00    +0.007 C 
ATOM     17  C   UNL     1      -1.490   3.616   0.036  0.00  0.00    -0.010 C 
ATOM     18  C   UNL     1      -0.773   3.123  -1.223  0.00  0.00    +0.007 C 
ATOM     19  C   UNL     1      -2.925   3.086   0.047  0.00  0.00    +0.011 C 
ENDBRANCH   9  10
ENDBRANCH   6   9
ENDBRANCH   3   5
BRANCH   1  20
ATOM     20  C   UNL     1      -8.973   1.762   4.129  0.00  0.00    +0.163 C 
BRANCH  20  21
ATOM     21  N   UNL     1     -10.348   1.255   4.139  0.00  0.00    -0.300 N 
ATOM     22  C   UNL     1     -11.305   1.915   4.821  0.00  0.00    +0.245 C 
ATOM     23  O   UNL     1     -11.027   2.932   5.428  0.00  0.00    -0.270 OA
ATOM     24  H   UNL     1     -10.569   0.444   3.655  0.00  0.00    +0.150 HD
BRANCH  22  25
ATOM     25  C   UNL     1     -12.691   1.404   4.832  0.00  0.00    +0.037 A 
ATOM     26  C   UNL     1     -13.013   0.240   4.131  0.00  0.00    +0.016 A 
ATOM     27  C   UNL     1     -14.307  -0.236   4.150  0.00  0.00    +0.039 A 
ATOM     28  C   UNL     1     -15.289   0.445   4.852  0.00  0.00    +0.123 A 
ATOM     29  C   UNL     1     -14.975   1.605   5.545  0.00  0.00    +0.039 A 
ATOM     30  C   UNL     1     -13.684   2.086   5.538  0.00  0.00    +0.016 A 
ATOM     31  F   UNL     1     -16.556  -0.023   4.862  0.00  0.00    -0.205 F 
ENDBRANCH  22  25
ENDBRANCH  20  21
BRANCH  20  33
ATOM     32  C   UNL     1      -8.950   1.749   6.627  0.00  0.00    +0.009 C 
ATOM     33  C   UNL     1      -8.233   1.255   5.368  0.00  0.00    +0.012 C 
ATOM     34  C   UNL     1      -8.213  -0.275   5.360  0.00  0.00    +0.009 C 
ENDBRANCH  20  33
ENDBRANCH   1  20
TORSDOF 7
