REMARK  Name = ZINC24839917
REMARK  10 active torsions:
REMARK  status: ('A' for Active; 'I' for Inactive)
REMARK    1  A    between atoms: C_1  and  C_2
REMARK    2  A    between atoms: C_3  and  C_31
REMARK    3  A    between atoms: N_9  and  C_30
REMARK    4  A    between atoms: C_10  and  S_12
REMARK    5  A    between atoms: S_12  and  C_13
REMARK    6  A    between atoms: C_13  and  C_15
REMARK    7  A    between atoms: C_13  and  C_16
REMARK    8  A    between atoms: N_18  and  C_19
REMARK    9  A    between atoms: C_19  and  C_21
REMARK   10  A    between atoms: C_19  and  C_22
REMARK                            x       y       z     vdW  Elec       q    Type
REMARK                         _______ _______ _______ _____ _____    ______ ____
ROOT
ATOM      1  C   UNL     1      -1.964   5.400   1.880  0.00  0.00    +0.137 C 
ATOM      2  C   UNL     1      -2.227   6.471   0.820  0.00  0.00    +0.029 C 
ENDROOT
BRANCH   1   3
ATOM      3  C   UNL     1      -2.158   4.034   1.273  0.00  0.00    +0.227 C 
ATOM      4  O   UNL     1      -3.224   3.468   1.381  0.00  0.00    -0.275 OA
ATOM      5  N   UNL     1      -1.144   3.442   0.610  0.00  0.00    -0.308 N 
ATOM      6  H   UNL     1      -0.177   3.956   0.512  0.00  0.00    +0.149 HD
BRANCH   5   7
ATOM      7  C   UNL     1      -1.332   2.115   0.020  0.00  0.00    +0.102 C 
ATOM      8  C   UNL     1      -1.911   2.260  -1.389  0.00  0.00    +0.033 C 
BRANCH   7   9
ATOM      9  C   UNL     1      -0.004   1.405  -0.053  0.00  0.00    -0.009 A 
ATOM     10  C   UNL     1       1.165   2.136  -0.150  0.00  0.00    +0.008 A 
ATOM     11  C   UNL     1       2.383   1.486  -0.223  0.00  0.00    +0.020 A 
ATOM     12  C   UNL     1       2.432   0.103  -0.199  0.00  0.00    +0.042 A 
ATOM     13  C   UNL     1       1.262  -0.628  -0.103  0.00  0.00    +0.040 A 
ATOM     14  C   UNL     1       0.043   0.023  -0.030  0.00  0.00    +0.047 A 
ATOM     15 CL   UNL     1      -1.425  -0.894   0.091  0.00  0.00    -0.083 Cl
ATOM     16 CL   UNL     1       3.961  -0.713  -0.290  0.00  0.00    -0.083 Cl
ENDBRANCH   7   9
ENDBRANCH   5   7
ENDBRANCH   1   3
BRANCH   1  17
ATOM     17  S   UNL     1      -3.120   5.618   3.256  0.00  0.00    -0.075 S 
BRANCH  17  27
ATOM     18  C   UNL     1      -1.710  11.721   6.294  0.00  0.00    +0.045 C 
ATOM     19  C   UNL     1      -1.172  10.921   5.136  0.00  0.00    -0.026 A 
ATOM     20  C   UNL     1      -0.148  11.389   4.406  0.00  0.00    -0.008 A 
ATOM     21  S   UNL     1       0.110  10.112   3.188  0.00  0.00    -0.073 S 
ATOM     22  C   UNL     1      -1.165   8.986   3.695  0.00  0.00    +0.117 A 
ATOM     23  C   UNL     1      -1.755   9.635   4.796  0.00  0.00    +0.075 A 
ATOM     24  C   UNL     1      -2.838   8.939   5.421  0.00  0.00    +0.263 A 
ATOM     25  O   UNL     1      -3.411   9.423   6.382  0.00  0.00    -0.267 OA
ATOM     26  N   UNL     1      -3.221   7.746   4.929  0.00  0.00    -0.290 N 
ATOM     27  C   UNL     1      -2.588   7.186   3.858  0.00  0.00    +0.173 A 
ATOM     28  N   UNL     1      -1.587   7.804   3.264  0.00  0.00    -0.216 NA
ATOM     29  C   UNL     1      -4.334   7.032   5.560  0.00  0.00    +0.154 C 
ATOM     30  C   UNL     1       0.604  12.684   4.575  0.00  0.00    +0.052 C 
ENDBRANCH  17  27
ENDBRANCH   1  17
TORSDOF 5
