REMARK  Name = ZINC36497892
REMARK  10 active torsions:
REMARK  status: ('A' for Active; 'I' for Inactive)
REMARK    1  A    between atoms: C_1  and  O_2
REMARK    2  A    between atoms: O_2  and  C_3
REMARK    3  A    between atoms: C_12  and  C_13
REMARK    4  A    between atoms: C_13  and  C_15
REMARK    5  A    between atoms: C_13  and  N_24
REMARK    6  A    between atoms: N_17  and  C_18
REMARK    7  A    between atoms: N_24  and  C_25
REMARK    8  A    between atoms: C_25  and  C_26
REMARK    9  A    between atoms: C_31  and  C_33
REMARK   10  A    between atoms: C_38  and  O_39
REMARK                            x       y       z     vdW  Elec       q    Type
REMARK                         _______ _______ _______ _____ _____    ______ ____
ROOT
ATOM      1  C   UNL     1       0.032  -2.762  -0.278  0.00  0.00    +0.197 C 
ENDROOT
BRANCH   1  11
ATOM      2  C   UNL     1      -0.748  -0.485   0.364  0.00  0.00    +0.126 A 
ATOM      3  C   UNL     1      -1.746   0.478   0.547  0.00  0.00    +0.046 A 
ATOM      4  C   UNL     1      -3.050   0.190   0.291  0.00  0.00    +0.012 A 
ATOM      5  C   UNL     1      -3.405  -1.093  -0.164  0.00  0.00    -0.017 A 
ATOM      6  C   UNL     1      -4.742  -1.424  -0.439  0.00  0.00    +0.008 A 
ATOM      7  C   UNL     1      -5.050  -2.675  -0.878  0.00  0.00    +0.001 A 
ATOM      8  C   UNL     1      -4.057  -3.636  -1.061  0.00  0.00    +0.001 A 
ATOM      9  C   UNL     1      -2.751  -3.351  -0.805  0.00  0.00    +0.009 A 
ATOM     10  C   UNL     1      -2.395  -2.070  -0.350  0.00  0.00    -0.009 A 
ATOM     11  C   UNL     1      -1.057  -1.738  -0.081  0.00  0.00    +0.031 A 
BRANCH   2  13
ATOM     12  C   UNL     1       0.821   1.188   0.990  0.00  0.00    +0.277 C 
ATOM     13  O   UNL     1       0.546  -0.167   0.629  0.00  0.00    -0.495 OA
ENDBRANCH   2  13
ENDBRANCH   1  11
BRANCH   1  14
ATOM     14  C   UNL     1       0.473  -3.291   1.063  0.00  0.00    +0.238 C 
ATOM     15  O   UNL     1       1.552  -2.972   1.515  0.00  0.00    -0.273 OA
ATOM     16  N   UNL     1      -0.332  -4.118   1.759  0.00  0.00    -0.311 N 
ATOM     17  H   UNL     1      -1.195  -4.373   1.397  0.00  0.00    +0.149 HD
BRANCH  16  18
ATOM     18  C   UNL     1       0.097  -4.631   3.062  0.00  0.00    +0.073 C 
ATOM     19  C   UNL     1       0.959  -5.879   2.860  0.00  0.00    +0.022 C 
ATOM     20  C   UNL     1       1.407  -6.416   4.221  0.00  0.00    +0.002 C 
ATOM     21  C   UNL     1       0.177  -6.776   5.057  0.00  0.00    +0.000 C 
ATOM     22  C   UNL     1      -0.685  -5.528   5.259  0.00  0.00    +0.002 C 
ATOM     23  C   UNL     1      -1.133  -4.992   3.898  0.00  0.00    +0.022 C 
ENDBRANCH  16  18
ENDBRANCH   1  14
BRANCH   1  24
ATOM     24  N   UNL     1       1.171  -2.139  -0.956  0.00  0.00    -0.274 N 
ATOM     25  C   UNL     1       2.391  -2.708  -0.885  0.00  0.00    +0.251 C 
ATOM     26  O   UNL     1       3.362  -2.119  -1.319  0.00  0.00    -0.270 OA
BRANCH  25  27
ATOM     27  C   UNL     1       2.547  -4.046  -0.282  0.00  0.00    +0.078 A 
ATOM     28  C   UNL     1       1.439  -4.884  -0.136  0.00  0.00    +0.017 A 
ATOM     29  C   UNL     1       1.592  -6.132   0.427  0.00  0.00    +0.001 A 
ATOM     30  C   UNL     1       2.840  -6.561   0.850  0.00  0.00    +0.004 A 
ATOM     31  C   UNL     1       3.943  -5.742   0.711  0.00  0.00    +0.046 A 
ATOM     32  C   UNL     1       3.808  -4.485   0.141  0.00  0.00    +0.129 A 
BRANCH  32  33
ATOM     33  O   UNL     1       4.893  -3.682  -0.000  0.00  0.00    -0.506 OA
ATOM     34  H   UNL     1       5.057  -3.106   0.759  0.00  0.00    +0.292 HD
ENDBRANCH  32  33
ENDBRANCH  25  27
BRANCH  24  35
ATOM     35  C   UNL     1       0.985  -0.898  -1.711  0.00  0.00    +0.183 C 
BRANCH  35  36
ATOM     36  C   UNL     1       0.527  -1.224  -3.109  0.00  0.00    +0.122 A 
ATOM     37  C   UNL     1      -0.750  -1.260  -3.530  0.00  0.00    +0.046 A 
ATOM     38  C   UNL     1      -0.720  -1.606  -4.901  0.00  0.00    +0.041 A 
ATOM     39  C   UNL     1       0.574  -1.760  -5.235  0.00  0.00    +0.195 A 
ATOM     40  O   UNL     1       1.325  -1.522  -4.148  0.00  0.00    -0.466 OA
ENDBRANCH  35  36
ENDBRANCH  24  35
ENDBRANCH   1  24
TORSDOF 9
