REMARK  Name = ZINC13113178
REMARK  6 active torsions:
REMARK  status: ('A' for Active; 'I' for Inactive)
REMARK    1  A    between atoms: C_1  and  C_2
REMARK    2  A    between atoms: C_2  and  C_4
REMARK    3  A    between atoms: C_2  and  S_15
REMARK    4  A    between atoms: S_15  and  C_16
REMARK    5  A    between atoms: C_19  and  C_24
REMARK    6  A    between atoms: N_20  and  C_21
REMARK                            x       y       z     vdW  Elec       q    Type
REMARK                         _______ _______ _______ _____ _____    ______ ____
ROOT
ATOM      1  C   UNL     1      -2.187  -0.166   1.711  0.00  0.00    +0.193 A 
ATOM      2  N   UNL     1      -1.646   0.599   2.630  0.00  0.00    -0.122 NA
ATOM      3  N   UNL     1      -2.466   0.766   3.605  0.00  0.00    -0.128 NA
ATOM      4  C   UNL     1      -3.583   0.117   3.369  0.00  0.00    +0.167 A 
ATOM      5  N   UNL     1      -3.442  -0.496   2.145  0.00  0.00    -0.299 N 
ENDROOT
BRANCH   4   6
ATOM      6  C   UNL     1      -4.768   0.061   4.247  0.00  0.00    +0.044 A 
ATOM      7  C   UNL     1      -5.900  -0.660   4.038  0.00  0.00    +0.095 A 
ATOM      8  N   UNL     1      -6.772  -0.459   5.068  0.00  0.00    -0.360 N 
ATOM      9  H   UNL     1      -7.649  -0.868   5.141  0.00  0.00    +0.165 HD
ATOM     10  C   UNL     1      -6.228   0.410   5.989  0.00  0.00    +0.047 A 
ATOM     11  C   UNL     1      -4.951   0.770   5.525  0.00  0.00    +0.010 A 
ATOM     12  C   UNL     1      -4.159   1.644   6.268  0.00  0.00    +0.011 A 
ATOM     13  C   UNL     1      -4.633   2.149   7.458  0.00  0.00    +0.001 A 
ATOM     14  C   UNL     1      -5.892   1.791   7.920  0.00  0.00    +0.002 A 
ATOM     15  C   UNL     1      -6.689   0.934   7.192  0.00  0.00    +0.026 A 
ENDBRANCH   4   6
BRANCH   5  16
ATOM     16  C   UNL     1      -4.428  -1.329   1.453  0.00  0.00    +0.091 C 
ATOM     17  C   UNL     1      -4.006  -1.971   0.130  0.00  0.00    +0.027 C 
ATOM     18  C   UNL     1      -4.995  -0.804   0.133  0.00  0.00    +0.027 C 
ENDBRANCH   5  16
BRANCH   1  19
ATOM     19  S   UNL     1      -1.439  -0.668   0.197  0.00  0.00    -0.073 S 
BRANCH  19  21
ATOM     20  C   UNL     1       0.051   1.625   0.205  0.00  0.00    +0.029 C 
ATOM     21  C   UNL     1       0.202   0.103   0.240  0.00  0.00    +0.137 C 
BRANCH  21  22
ATOM     22  C   UNL     1       1.002  -0.350  -0.954  0.00  0.00    +0.233 C 
ATOM     23  O   UNL     1       0.435  -0.779  -1.937  0.00  0.00    -0.274 OA
ATOM     24  N   UNL     1       2.348  -0.278  -0.930  0.00  0.00    -0.270 N 
ATOM     25  C   UNL     1       3.148   0.100   0.237  0.00  0.00    +0.118 C 
ATOM     26  C   UNL     1       4.609   0.033  -0.236  0.00  0.00    +0.056 C 
ATOM     27  C   UNL     1       4.520  -0.393  -1.685  0.00  0.00    -0.024 A 
ATOM     28  C   UNL     1       3.184  -0.559  -2.015  0.00  0.00    +0.040 A 
ATOM     29  C   UNL     1       2.851  -0.959  -3.310  0.00  0.00    +0.024 A 
ATOM     30  C   UNL     1       3.840  -1.188  -4.243  0.00  0.00    +0.002 A 
ATOM     31  C   UNL     1       5.169  -1.023  -3.903  0.00  0.00    +0.000 A 
ATOM     32  C   UNL     1       5.507  -0.619  -2.625  0.00  0.00    +0.005 A 
ENDBRANCH  21  22
ENDBRANCH  19  21
ENDBRANCH   1  19
TORSDOF 5
