REMARK  Name = ZINC63503235
REMARK  10 active torsions:
REMARK  status: ('A' for Active; 'I' for Inactive)
REMARK    1  A    between atoms: C_1  and  C_2
REMARK    2  A    between atoms: C_6  and  N_9
REMARK    3  A    between atoms: C_7  and  C_8
REMARK    4  A    between atoms: C_10  and  C_12
REMARK    5  A    between atoms: C_12  and  C_14
REMARK    6  A    between atoms: C_12  and  N_24
REMARK    7  A    between atoms: C_14  and  C_15
REMARK    8  A    between atoms: C_25  and  C_27
REMARK    9  A    between atoms: C_27  and  C_28
REMARK   10  A    between atoms: C_27  and  C_34
REMARK                            x       y       z     vdW  Elec       q    Type
REMARK                         _______ _______ _______ _____ _____    ______ ____
ROOT
ATOM      1  C   UNL     1      -1.206  -5.641   3.113  0.00  0.00    +0.163 C 
ENDROOT
BRANCH   1   3
ATOM      2  N   UNL     1      -1.674  -3.810   1.518  0.00  0.00    -0.284 N 
ATOM      3  C   UNL     1      -1.173  -5.042   1.731  0.00  0.00    +0.238 C 
ATOM      4  O   UNL     1      -0.694  -5.670   0.810  0.00  0.00    -0.273 OA
ATOM      5  H   UNL     1      -1.984  -3.276   2.267  0.00  0.00    +0.155 HD
BRANCH   2  11
ATOM      6  C   UNL     1      -2.048   0.056  -1.497  0.00  0.00    +0.044 C 
ATOM      7  C   UNL     1      -1.931  -1.430  -1.273  0.00  0.00    -0.046 A 
ATOM      8  C   UNL     1      -1.896  -2.291  -2.355  0.00  0.00    +0.004 A 
ATOM      9  C   UNL     1      -1.788  -3.655  -2.154  0.00  0.00    +0.002 A 
ATOM     10  C   UNL     1      -1.714  -4.161  -0.871  0.00  0.00    +0.023 A 
ATOM     11  C   UNL     1      -1.748  -3.300   0.217  0.00  0.00    +0.037 A 
ATOM     12  C   UNL     1      -1.852  -1.930   0.012  0.00  0.00    -0.026 A 
ATOM     13  C   UNL     1      -1.884  -0.991   1.190  0.00  0.00    +0.046 C 
ENDBRANCH   2  11
ENDBRANCH   1   3
BRANCH   1  14
ATOM     14  N   UNL     1      -0.606  -6.977   3.082  0.00  0.00    -0.303 N 
ATOM     15  C   UNL     1       0.734  -7.115   3.135  0.00  0.00    +0.225 C 
ATOM     16  O   UNL     1       1.438  -6.141   3.291  0.00  0.00    -0.275 OA
ATOM     17  H   UNL     1      -1.173  -7.762   3.022  0.00  0.00    +0.149 HD
BRANCH  15  18
ATOM     18  C   UNL     1       1.356  -8.481   3.002  0.00  0.00    +0.135 C 
BRANCH  18  19
ATOM     19  C   UNL     1       2.855  -8.345   2.930  0.00  0.00    -0.031 A 
ATOM     20  C   UNL     1       3.560  -7.874   4.022  0.00  0.00    +0.005 A 
ATOM     21  C   UNL     1       4.935  -7.749   3.955  0.00  0.00    +0.000 A 
ATOM     22  C   UNL     1       5.606  -8.096   2.797  0.00  0.00    +0.000 A 
ATOM     23  C   UNL     1       4.901  -8.568   1.706  0.00  0.00    +0.000 A 
ATOM     24  C   UNL     1       3.526  -8.697   1.774  0.00  0.00    +0.005 A 
ENDBRANCH  18  19
BRANCH  18  25
ATOM     25  C   UNL     1       0.985  -9.321   4.197  0.00  0.00    -0.031 A 
ATOM     26  C   UNL     1       0.629 -10.646   4.027  0.00  0.00    +0.005 A 
ATOM     27  C   UNL     1       0.288 -11.416   5.123  0.00  0.00    +0.000 A 
ATOM     28  C   UNL     1       0.305 -10.862   6.389  0.00  0.00    +0.000 A 
ATOM     29  C   UNL     1       0.662  -9.538   6.560  0.00  0.00    +0.000 A 
ATOM     30  C   UNL     1       1.007  -8.769   5.464  0.00  0.00    +0.005 A 
ENDBRANCH  18  25
ENDBRANCH  15  18
ENDBRANCH   1  14
BRANCH   1  31
ATOM     31  C   UNL     1      -2.657  -5.745   3.588  0.00  0.00    +0.065 C 
BRANCH  31  32
ATOM     32  C   UNL     1      -2.683  -6.189   5.028  0.00  0.00    -0.039 C 
ATOM     33  C   UNL     1      -2.812  -5.401   6.120  0.00  0.00    -0.001 A 
ATOM     34  C   UNL     1      -2.960  -3.950   6.287  0.00  0.00    +0.010 A 
ATOM     35  C   UNL     1      -3.069  -3.441   7.535  0.00  0.00    +0.001 A 
ATOM     36  C   UNL     1      -3.044  -4.262   8.671  0.00  0.00    +0.002 A 
ATOM     37  C   UNL     1      -2.912  -5.604   8.598  0.00  0.00    +0.026 A 
ATOM     38  C   UNL     1      -2.790  -6.246   7.335  0.00  0.00    +0.043 A 
ATOM     39  N   UNL     1      -2.652  -7.508   7.007  0.00  0.00    -0.380 N 
ATOM     40  C   UNL     1      -2.578  -7.606   5.545  0.00  0.00    +0.144 C 
ATOM     41  H   UNL     1      -2.610  -8.253   7.628  0.00  0.00    +0.160 HD
ENDBRANCH  31  32
ENDBRANCH   1  31
TORSDOF 8
