REMARK  Name = ZINC38615174
REMARK  11 active torsions:
REMARK  status: ('A' for Active; 'I' for Inactive)
REMARK    1  A    between atoms: C_1  and  O_2
REMARK    2  A    between atoms: O_2  and  C_3
REMARK    3  A    between atoms: C_6  and  C_9
REMARK    4  A    between atoms: C_9  and  C_11
REMARK    5  A    between atoms: C_9  and  N_31
REMARK    6  A    between atoms: C_11  and  N_12
REMARK    7  A    between atoms: C_13  and  C_15
REMARK    8  A    between atoms: C_15  and  C_16
REMARK    9  A    between atoms: C_16  and  C_17
REMARK   10  A    between atoms: C_17  and  N_18
REMARK   11  A    between atoms: C_22  and  C_23
REMARK                            x       y       z     vdW  Elec       q    Type
REMARK                         _______ _______ _______ _____ _____    ______ ____
ROOT
ATOM      1  N   UNL     1      -5.455  -1.882   2.339  0.00  0.00    -0.317 N 
ATOM      2  C   UNL     1      -5.699  -2.017   3.657  0.00  0.00    +0.213 C 
ATOM      3  O   UNL     1      -5.873  -3.120   4.132  0.00  0.00    -0.276 OA
ATOM      4  H   UNL     1      -5.316  -1.000   1.959  0.00  0.00    +0.149 HD
ENDROOT
BRANCH   1   5
ATOM      5  C   UNL     1      -5.399  -3.066   1.479  0.00  0.00    +0.093 C 
BRANCH   5   6
ATOM      6  C   UNL     1      -4.979  -2.652   0.067  0.00  0.00    -0.020 C 
BRANCH   6   7
ATOM      7  N   UNL     1      -5.012  -3.825  -0.817  0.00  0.00    +0.385 N 
ATOM      8  C   UNL     1      -4.555  -3.438  -2.157  0.00  0.00    -0.078 C 
ATOM      9  C   UNL     1      -4.509  -4.672  -3.061  0.00  0.00    -0.019 C 
ATOM     10  C   UNL     1      -5.911  -5.282  -3.154  0.00  0.00    -0.004 C 
ATOM     11  C   UNL     1      -6.408  -5.613  -1.744  0.00  0.00    -0.019 C 
ATOM     12  C   UNL     1      -6.383  -4.344  -0.889  0.00  0.00    -0.078 C 
ATOM     13  H   UNL     1      -4.401  -4.539  -0.449  0.00  0.00    -0.081 HD
ENDBRANCH   6   7
BRANCH   6  17
ATOM     14  C   UNL     1      -1.017  -1.055   0.171  0.00  0.00    +0.120 A 
ATOM     15  C   UNL     1      -2.109  -0.201   0.134  0.00  0.00    +0.046 A 
ATOM     16  C   UNL     1      -3.389  -0.720   0.100  0.00  0.00    +0.005 A 
ATOM     17  C   UNL     1      -3.582  -2.089   0.103  0.00  0.00    -0.059 A 
ATOM     18  C   UNL     1      -2.494  -2.942   0.140  0.00  0.00    +0.005 A 
ATOM     19  C   UNL     1      -1.212  -2.429   0.168  0.00  0.00    +0.046 A 
BRANCH  14  21
ATOM     20  C   UNL     1       0.369   0.876   0.204  0.00  0.00    +0.277 C 
ATOM     21  O   UNL     1       0.243  -0.547   0.204  0.00  0.00    -0.495 OA
ENDBRANCH  14  21
ENDBRANCH   6  17
ENDBRANCH   5   6
ENDBRANCH   1   5
BRANCH   2  22
ATOM     22  C   UNL     1      -5.756  -0.798   4.542  0.00  0.00    +0.097 C 
BRANCH  22  23
ATOM     23  C   UNL     1      -6.046  -1.227   5.982  0.00  0.00    +0.029 C 
BRANCH  23  24
ATOM     24  C   UNL     1      -6.104   0.010   6.880  0.00  0.00    +0.115 C 
BRANCH  24  25
ATOM     25  N   UNL     1      -6.382  -0.400   8.259  0.00  0.00    -0.255 N 
ATOM     26  C   UNL     1      -7.634  -0.495   8.671  0.00  0.00    +0.258 C 
ATOM     27  O   UNL     1      -8.561  -0.247   7.921  0.00  0.00    -0.269 OA
ATOM     28  C   UNL     1      -7.867  -0.897  10.021  0.00  0.00    +0.078 C 
ATOM     29  C   UNL     1      -9.047  -1.070  10.683  0.00  0.00    +0.035 C 
ATOM     30  S   UNL     1      -6.192  -1.113  10.606  0.00  0.00    -0.061 S 
ATOM     31  C   UNL     1      -5.353  -0.681   9.090  0.00  0.00    +0.121 C 
ATOM     32  S   UNL     1      -3.672  -0.631   8.770  0.00  0.00    -0.027 S 
BRANCH  29  33
ATOM     33  C   UNL     1      -9.044  -1.479  12.037  0.00  0.00    +0.013 A 
ATOM     34  C   UNL     1     -10.122  -1.716  12.883  0.00  0.00    +0.015 A 
ATOM     35  C   UNL     1      -9.800  -2.108  14.161  0.00  0.00    +0.008 A 
ATOM     36  C   UNL     1      -8.494  -2.235  14.502  0.00  0.00    +0.046 A 
ATOM     37  S   UNL     1      -7.659  -1.834  13.101  0.00  0.00    -0.097 S 
ENDBRANCH  29  33
ENDBRANCH  24  25
ENDBRANCH  23  24
ENDBRANCH  22  23
ENDBRANCH   2  22
TORSDOF 10
