REMARK  Name = ZINC36774888
REMARK  8 active torsions:
REMARK  status: ('A' for Active; 'I' for Inactive)
REMARK    1  A    between atoms: C_1  and  C_2
REMARK    2  A    between atoms: C_2  and  C_4
REMARK    3  A    between atoms: C_2  and  N_14
REMARK    4  A    between atoms: C_7  and  S_10
REMARK    5  A    between atoms: S_10  and  N_13
REMARK    6  A    between atoms: N_14  and  C_15
REMARK    7  A    between atoms: N_14  and  S_16
REMARK    8  A    between atoms: S_16  and  C_19
REMARK                            x       y       z     vdW  Elec       q    Type
REMARK                         _______ _______ _______ _____ _____    ______ ____
ROOT
ATOM      1  C   UNL     1      -0.502   1.307   0.096  0.00  0.00    +0.031 C 
ATOM      2  C   UNL     1      -0.077  -0.162   0.077  0.00  0.00    +0.106 C 
ENDROOT
BRANCH   2   3
ATOM      3  C   UNL     1      -1.298  -1.040   0.182  0.00  0.00    -0.029 A 
ATOM      4  C   UNL     1      -2.065  -1.023   1.332  0.00  0.00    +0.007 A 
ATOM      5  C   UNL     1      -3.185  -1.828   1.427  0.00  0.00    +0.029 A 
ATOM      6  C   UNL     1      -3.538  -2.649   0.373  0.00  0.00    +0.105 A 
ATOM      7  C   UNL     1      -2.772  -2.665  -0.778  0.00  0.00    +0.029 A 
ATOM      8  C   UNL     1      -1.655  -1.857  -0.875  0.00  0.00    +0.007 A 
BRANCH   6   9
ATOM      9  S   UNL     1      -4.965  -3.675   0.495  0.00  0.00    +0.056 S 
ATOM     10  O   UNL     1      -4.771  -4.751  -0.412  0.00  0.00    -0.153 OA
ATOM     11  O   UNL     1      -5.200  -3.881   1.881  0.00  0.00    -0.153 OA
BRANCH   9  12
ATOM     12  N   UNL     1      -6.249  -2.800  -0.077  0.00  0.00    -0.204 NA
ATOM     13  H   UNL     1      -6.114  -1.894  -0.396  0.00  0.00    +0.144 HD
ATOM     14  H   UNL     1      -7.135  -3.193  -0.094  0.00  0.00    +0.144 HD
ENDBRANCH   9  12
ENDBRANCH   6   9
ENDBRANCH   2   3
BRANCH   2  15
ATOM     15  N   UNL     1       0.813  -0.427   1.210  0.00  0.00    -0.173 NA
ATOM     16  C   UNL     1       0.388  -0.088   2.571  0.00  0.00    +0.132 C 
BRANCH  15  17
ATOM     17  S   UNL     1       2.299  -1.111   0.953  0.00  0.00    +0.061 S 
ATOM     18  O   UNL     1       2.671  -1.744   2.170  0.00  0.00    -0.153 OA
ATOM     19  O   UNL     1       2.214  -1.817  -0.277  0.00  0.00    -0.153 OA
BRANCH  17  20
ATOM     20  C   UNL     1       3.442   0.206   0.701  0.00  0.00    +0.108 A 
ATOM     21  C   UNL     1       3.666   0.691  -0.575  0.00  0.00    +0.029 A 
ATOM     22  C   UNL     1       4.562   1.724  -0.774  0.00  0.00    +0.005 A 
ATOM     23  C   UNL     1       5.235   2.273   0.301  0.00  0.00    +0.038 A 
ATOM     24  C   UNL     1       5.011   1.788   1.578  0.00  0.00    +0.125 A 
ATOM     25  C   UNL     1       4.109   0.757   1.778  0.00  0.00    +0.066 A 
ATOM     26  F   UNL     1       5.669   2.324   2.629  0.00  0.00    -0.205 F 
ENDBRANCH  17  20
ENDBRANCH  15  17
ENDBRANCH   2  15
TORSDOF 6
