REMARK  Name = ZINC39674611
REMARK  8 active torsions:
REMARK  status: ('A' for Active; 'I' for Inactive)
REMARK    1  A    between atoms: C_1  and  C_2
REMARK    2  A    between atoms: C_6  and  C_8
REMARK    3  A    between atoms: C_12  and  C_21
REMARK    4  A    between atoms: N_23  and  C_24
REMARK    5  A    between atoms: C_24  and  C_25
REMARK    6  A    between atoms: C_25  and  C_26
REMARK    7  A    between atoms: C_29  and  C_37
REMARK    8  A    between atoms: C_34  and  C_36
REMARK                            x       y       z     vdW  Elec       q    Type
REMARK                         _______ _______ _______ _____ _____    ______ ____
ROOT
ATOM      1  C   UNL     1       0.151  -2.899   2.743  0.00  0.00    +0.247 C 
ATOM      2  O   UNL     1       0.284  -2.396   3.841  0.00  0.00    -0.270 OA
ATOM      3  N   UNL     1       0.031  -4.237   2.626  0.00  0.00    -0.296 N 
ATOM      4  C   UNL     1      -0.008  -5.039   1.380  0.00  0.00    +0.121 C 
ATOM      5  C   UNL     1       0.819  -6.304   1.705  0.00  0.00    +0.100 C 
ATOM      6  C   UNL     1       0.758  -6.429   3.236  0.00  0.00    -0.004 C 
ATOM      7  C   UNL     1      -0.085  -5.238   3.713  0.00  0.00    +0.115 C 
ATOM      8  C   UNL     1       2.161  -6.346   3.829  0.00  0.00    -0.010 C 
ATOM      9  C   UNL     1       2.081  -6.530   5.347  0.00  0.00    -0.082 C 
ATOM     10  N   UNL     1       1.476  -7.833   5.652  0.00  0.00    +0.379 N 
ATOM     11  C   UNL     1       0.094  -7.871   5.159  0.00  0.00    -0.082 C 
ATOM     12  C   UNL     1       0.090  -7.743   3.633  0.00  0.00    -0.010 C 
ATOM     13  H   UNL     1       2.011  -8.563   5.206  0.00  0.00    -0.086 HD
ATOM     14  H   UNL     1       1.480  -7.978   6.650  0.00  0.00    -0.086 HD
ENDROOT
BRANCH   1  20
ATOM     15  C   UNL     1      -1.102  -2.228  -2.040  0.00  0.00    +0.044 C 
ATOM     16  C   UNL     1      -0.481  -1.718  -0.765  0.00  0.00    -0.050 A 
ATOM     17  C   UNL     1       0.062  -0.446  -0.723  0.00  0.00    +0.003 A 
ATOM     18  C   UNL     1       0.634   0.030   0.443  0.00  0.00    +0.001 A 
ATOM     19  C   UNL     1       0.666  -0.762   1.573  0.00  0.00    +0.013 A 
ATOM     20  C   UNL     1       0.119  -2.045   1.537  0.00  0.00    +0.037 A 
ATOM     21  C   UNL     1      -0.461  -2.518   0.358  0.00  0.00    +0.016 A 
ENDBRANCH   1  20
BRANCH   5  22
ATOM     22  C   UNL     1       2.244  -6.132   1.246  0.00  0.00    +0.218 C 
ATOM     23  O   UNL     1       2.744  -5.027   1.224  0.00  0.00    -0.275 OA
ATOM     24  N   UNL     1       2.961  -7.205   0.860  0.00  0.00    -0.315 N 
ATOM     25  H   UNL     1       2.561  -8.088   0.878  0.00  0.00    +0.149 HD
BRANCH  24  26
ATOM     26  C   UNL     1       4.347  -7.038   0.414  0.00  0.00    +0.108 C 
BRANCH  26  27
ATOM     27  C   UNL     1       4.929  -8.402   0.035  0.00  0.00    +0.052 C 
BRANCH  27  28
ATOM     28  C   UNL     1       6.354  -8.230  -0.423  0.00  0.00    -0.037 C 
ATOM     29  C   UNL     1       7.053  -7.068  -0.499  0.00  0.00    +0.000 A 
ATOM     30  C   UNL     1       6.698  -5.728  -0.193  0.00  0.00    +0.028 A 
ATOM     31  C   UNL     1       7.614  -4.716  -0.364  0.00  0.00    +0.052 A 
ATOM     32  C   UNL     1       8.960  -4.987  -0.858  0.00  0.00    +0.021 A 
ATOM     33  C   UNL     1       9.352  -6.241  -1.164  0.00  0.00    +0.027 A 
ATOM     34  C   UNL     1       8.414  -7.357  -1.000  0.00  0.00    +0.043 A 
ATOM     35  N   UNL     1       8.554  -8.641  -1.226  0.00  0.00    -0.378 N 
ATOM     36  C   UNL     1       7.297  -9.316  -0.887  0.00  0.00    +0.103 C 
ATOM     37  C   UNL     1       7.526 -10.331   0.235  0.00  0.00    +0.035 C 
ATOM     38  H   UNL     1       9.356  -9.073  -1.558  0.00  0.00    +0.160 HD
BRANCH  31  39
ATOM     39  C   UNL     1       7.239  -3.370  -0.051  0.00  0.00    +0.099 C 
ATOM     40  N   UNL     1       6.942  -2.302   0.198  0.00  0.00    -0.191 NA
ENDBRANCH  31  39
ENDBRANCH  27  28
ENDBRANCH  26  27
ENDBRANCH  24  26
ENDBRANCH   5  22
TORSDOF 6
