REMARK  Name = ZINC20566645
REMARK  6 active torsions:
REMARK  status: ('A' for Active; 'I' for Inactive)
REMARK    1  A    between atoms: C_1  and  C_2
REMARK    2  A    between atoms: C_2  and  C_3
REMARK    3  A    between atoms: C_3  and  C_4
REMARK    4  A    between atoms: C_4  and  N_5
REMARK    5  A    between atoms: C_10  and  C_28
REMARK    6  A    between atoms: C_28  and  C_29
REMARK                            x       y       z     vdW  Elec       q    Type
REMARK                         _______ _______ _______ _____ _____    ______ ____
ROOT
ATOM      1  N   UNL     1       1.425  -2.500  -2.470  0.00  0.00    -0.242 N 
ATOM      2  C   UNL     1       0.784  -2.738  -3.621  0.00  0.00    +0.227 C 
ATOM      3  O   UNL     1      -0.406  -2.596  -3.803  0.00  0.00    -0.275 OA
ATOM      4  C   UNL     1       1.776  -3.212  -4.660  0.00  0.00    +0.107 C 
ATOM      5  C   UNL     1       1.500  -4.696  -4.983  0.00  0.00    +0.072 C 
ATOM      6  N   UNL     1       2.838  -5.345  -4.966  0.00  0.00    -0.295 NA
ATOM      7  C   UNL     1       3.542  -4.692  -3.846  0.00  0.00    +0.136 C 
ATOM      8  C   UNL     1       3.129  -3.200  -3.894  0.00  0.00    +0.122 C 
ATOM      9  C   UNL     1       2.743  -2.723  -2.512  0.00  0.00    +0.228 C 
ATOM     10  O   UNL     1       3.509  -2.569  -1.586  0.00  0.00    -0.275 OA
ATOM     11  C   UNL     1       3.193  -5.328  -2.530  0.00  0.00    +0.005 A 
ATOM     12  C   UNL     1       2.010  -5.510  -1.849  0.00  0.00    +0.008 A 
ATOM     13  C   UNL     1       2.007  -6.152  -0.624  0.00  0.00    +0.002 A 
ATOM     14  C   UNL     1       3.195  -6.611  -0.085  0.00  0.00    +0.022 A 
ATOM     15  C   UNL     1       4.383  -6.431  -0.763  0.00  0.00    +0.062 A 
ATOM     16  C   UNL     1       4.394  -5.785  -1.998  0.00  0.00    +0.057 A 
ATOM     17  N   UNL     1       5.450  -5.487  -2.863  0.00  0.00    -0.282 N 
ATOM     18  C   UNL     1       5.033  -4.846  -3.972  0.00  0.00    +0.243 C 
ATOM     19  O   UNL     1       5.725  -4.466  -4.893  0.00  0.00    -0.273 OA
ATOM     20 CL   UNL     1       5.869  -7.010  -0.076  0.00  0.00    -0.082 Cl
ATOM     21  H   UNL     1       2.757  -6.338  -4.811  0.00  0.00    +0.124 HD
ATOM     22  H   UNL     1       6.376  -5.716  -2.686  0.00  0.00    +0.155 HD
ENDROOT
BRANCH   1  23
ATOM     23  C   UNL     1       0.739  -2.027  -1.265  0.00  0.00    +0.116 C 
BRANCH  23  24
ATOM     24  C   UNL     1       0.718  -0.497  -1.257  0.00  0.00    +0.019 C 
BRANCH  24  26
ATOM     25  C   UNL     1      -0.019   1.526   0.010  0.00  0.00    +0.004 C 
ATOM     26  C   UNL     1       0.002  -0.004   0.002  0.00  0.00    -0.002 C 
ENDBRANCH  24  26
ENDBRANCH  23  24
ENDBRANCH   1  23
BRANCH   5  27
ATOM     27  C   UNL     1       0.859  -4.830  -6.365  0.00  0.00    +0.054 C 
BRANCH  27  28
ATOM     28  C   UNL     1       0.486  -6.270  -6.609  0.00  0.00    -0.046 A 
ATOM     29  C   UNL     1       1.395  -7.129  -7.197  0.00  0.00    +0.004 A 
ATOM     30  C   UNL     1       1.054  -8.449  -7.421  0.00  0.00    +0.000 A 
ATOM     31  C   UNL     1      -0.197  -8.911  -7.056  0.00  0.00    +0.000 A 
ATOM     32  C   UNL     1      -1.106  -8.052  -6.467  0.00  0.00    +0.000 A 
ATOM     33  C   UNL     1      -0.763  -6.733  -6.239  0.00  0.00    +0.004 A 
ENDBRANCH  27  28
ENDBRANCH   5  27
TORSDOF 5
