REMARK  Name = ZINC25045495
REMARK  8 active torsions:
REMARK  status: ('A' for Active; 'I' for Inactive)
REMARK    1  A    between atoms: C_1  and  C_2
REMARK    2  A    between atoms: C_5  and  C_31
REMARK    3  A    between atoms: C_10  and  C_12
REMARK    4  A    between atoms: C_12  and  C_14
REMARK    5  A    between atoms: C_12  and  N_15
REMARK    6  A    between atoms: C_18  and  N_21
REMARK    7  A    between atoms: N_21  and  S_22
REMARK    8  A    between atoms: S_22  and  C_25
REMARK                            x       y       z     vdW  Elec       q    Type
REMARK                         _______ _______ _______ _____ _____    ______ ____
ROOT
ATOM      1  N   UNL     1      -3.967   2.655   5.326  0.00  0.00    +0.387 N 
ATOM      2  C   UNL     1      -5.318   2.413   4.804  0.00  0.00    -0.076 C 
ATOM      3  C   UNL     1      -5.359   1.054   4.100  0.00  0.00    +0.002 C 
ATOM      4  C   UNL     1      -4.341   1.048   2.956  0.00  0.00    +0.073 C 
ATOM      5  C   UNL     1      -2.950   1.351   3.520  0.00  0.00    +0.002 C 
ATOM      6  C   UNL     1      -2.979   2.700   4.241  0.00  0.00    -0.076 C 
ATOM      7  H   UNL     1      -3.705   1.813   5.983  0.00  0.00    -0.081 HD
ENDROOT
BRANCH   1   8
ATOM      8  C   UNL     1      -3.925   3.885   6.127  0.00  0.00    +0.016 C 
ATOM      9  C   UNL     1      -4.214   5.090   5.229  0.00  0.00    -0.004 C 
BRANCH   8  17
ATOM     10  C   UNL     1      -4.473   6.944  10.077  0.00  0.00    +0.009 C 
ATOM     11  C   UNL     1      -3.435   5.930   9.593  0.00  0.00    +0.004 C 
ATOM     12  C   UNL     1      -2.053   6.322  10.120  0.00  0.00    +0.009 C 
ATOM     13  C   UNL     1      -1.019   5.290   9.664  0.00  0.00    +0.004 C 
ATOM     14  C   UNL     1      -0.965   5.271   8.133  0.00  0.00    +0.111 C 
ATOM     15  N   UNL     1      -2.320   5.038   7.615  0.00  0.00    -0.302 N 
ATOM     16  C   UNL     1      -3.407   5.921   8.057  0.00  0.00    +0.111 C 
ATOM     17  C   UNL     1      -2.559   4.036   6.745  0.00  0.00    +0.202 C 
ATOM     18  O   UNL     1      -1.675   3.256   6.460  0.00  0.00    -0.277 OA
ATOM     19  C   UNL     1      -1.418   3.906  10.178  0.00  0.00    +0.009 C 
ENDBRANCH   8  17
ENDBRANCH   1   8
BRANCH   4  20
ATOM     20  N   UNL     1      -4.333  -0.270   2.315  0.00  0.00    -0.187 NA
ATOM     21  H   UNL     1      -4.325  -1.181   2.931  0.00  0.00    +0.148 HD
BRANCH  20  22
ATOM     22  S   UNL     1      -4.087  -0.395   0.682  0.00  0.00    +0.059 S 
ATOM     23  O   UNL     1      -4.966   0.537   0.067  0.00  0.00    -0.153 OA
ATOM     24  O   UNL     1      -4.109  -1.781   0.373  0.00  0.00    -0.153 OA
BRANCH  22  25
ATOM     25  C   UNL     1      -2.449   0.168   0.358  0.00  0.00    +0.105 A 
ATOM     26  C   UNL     1      -1.395  -0.725   0.378  0.00  0.00    +0.028 A 
ATOM     27  C   UNL     1      -0.111  -0.285   0.117  0.00  0.00    +0.002 A 
ATOM     28  C   UNL     1       0.120   1.050  -0.158  0.00  0.00    +0.000 A 
ATOM     29  C   UNL     1      -0.934   1.945  -0.172  0.00  0.00    +0.002 A 
ATOM     30  C   UNL     1      -2.218   1.504   0.088  0.00  0.00    +0.028 A 
ENDBRANCH  22  25
ENDBRANCH  20  22
ENDBRANCH   4  20
TORSDOF 5
