REMARK  Name = ZINC08780370
REMARK  7 active torsions:
REMARK  status: ('A' for Active; 'I' for Inactive)
REMARK    1  A    between atoms: C_1  and  C_2
REMARK    2  A    between atoms: C_2  and  O_3
REMARK    3  A    between atoms: O_3  and  C_4
REMARK    4  A    between atoms: C_6  and  C_11
REMARK    5  A    between atoms: C_9  and  O_10
REMARK    6  A    between atoms: N_22  and  C_23
REMARK    7  A    between atoms: C_23  and  C_24
REMARK                            x       y       z     vdW  Elec       q    Type
REMARK                         _______ _______ _______ _____ _____    ______ ____
ROOT
ATOM      1  C   UNL     1      -0.347   2.859  -1.762  0.00  0.00    +0.193 C 
ATOM      2  N   UNL     1      -1.514   3.495  -2.385  0.00  0.00    -0.321 N 
ATOM      3  C   UNL     1      -2.354   2.715  -3.171  0.00  0.00    +0.041 A 
ATOM      4  C   UNL     1      -3.064   3.244  -4.235  0.00  0.00    +0.024 A 
ATOM      5  C   UNL     1      -3.882   2.423  -4.987  0.00  0.00    +0.002 A 
ATOM      6  C   UNL     1      -3.999   1.075  -4.684  0.00  0.00    +0.001 A 
ATOM      7  C   UNL     1      -3.300   0.532  -3.625  0.00  0.00    +0.015 A 
ATOM      8  C   UNL     1      -2.472   1.348  -2.859  0.00  0.00    +0.058 A 
ATOM      9  C   UNL     1      -1.703   0.819  -1.717  0.00  0.00    +0.250 C 
ATOM     10  O   UNL     1      -1.954  -0.281  -1.264  0.00  0.00    -0.270 OA
ATOM     11  N   UNL     1      -0.721   1.571  -1.179  0.00  0.00    -0.272 N 
ATOM     12  H   UNL     1      -1.696   4.438  -2.250  0.00  0.00    +0.148 HD
ENDROOT
BRANCH   1  15
ATOM     13  C   UNL     1       1.788   3.303  -4.847  0.00  0.00    +0.162 A 
ATOM     14  C   UNL     1       0.808   3.500  -3.887  0.00  0.00    +0.056 A 
ATOM     15  C   UNL     1       0.720   2.644  -2.804  0.00  0.00    -0.006 A 
ATOM     16  C   UNL     1       1.610   1.595  -2.674  0.00  0.00    +0.011 A 
ATOM     17  C   UNL     1       2.587   1.390  -3.631  0.00  0.00    +0.049 A 
ATOM     18  C   UNL     1       2.682   2.244  -4.718  0.00  0.00    +0.158 A 
BRANCH  18  19
ATOM     19  O   UNL     1       3.645   2.047  -5.657  0.00  0.00    -0.503 OA
ATOM     20  H   UNL     1       4.474   2.510  -5.473  0.00  0.00    +0.292 HD
ENDBRANCH  18  19
BRANCH  13  21
ATOM     21  O   UNL     1       1.877   4.144  -5.912  0.00  0.00    -0.489 OA
BRANCH  21  23
ATOM     22  C   UNL     1       1.183   6.043  -7.236  0.00  0.00    +0.048 C 
ATOM     23  C   UNL     1       0.928   5.210  -5.978  0.00  0.00    +0.226 C 
ENDBRANCH  21  23
ENDBRANCH  13  21
ENDBRANCH   1  15
BRANCH  11  24
ATOM     24  C   UNL     1      -0.013   1.086   0.008  0.00  0.00    +0.141 C 
BRANCH  24  25
ATOM     25  C   UNL     1      -0.729   1.579   1.267  0.00  0.00    +0.136 C 
ATOM     26  C   UNL     1       0.009   1.074   2.522  0.00  0.00    +0.035 C 
ATOM     27  C   UNL     1       0.390   2.366   3.284  0.00  0.00    +0.031 C 
ATOM     28  C   UNL     1      -0.610   3.395   2.699  0.00  0.00    +0.160 C 
ATOM     29  O   UNL     1      -0.709   3.016   1.309  0.00  0.00    -0.375 OA
ENDBRANCH  24  25
ENDBRANCH  11  24
TORSDOF 6
