REMARK  Name = ZINC08797719
REMARK  9 active torsions:
REMARK  status: ('A' for Active; 'I' for Inactive)
REMARK    1  A    between atoms: C_1  and  C_2
REMARK    2  A    between atoms: C_2  and  N_3
REMARK    3  A    between atoms: C_5  and  C_35
REMARK    4  A    between atoms: N_12  and  C_13
REMARK    5  A    between atoms: C_13  and  C_15
REMARK    6  A    between atoms: C_18  and  S_21
REMARK    7  A    between atoms: S_21  and  N_24
REMARK    8  A    between atoms: C_26  and  C_33
REMARK    9  A    between atoms: C_29  and  C_32
REMARK                            x       y       z     vdW  Elec       q    Type
REMARK                         _______ _______ _______ _____ _____    ______ ____
ROOT
ATOM      1  C   UNL     1       1.915  -5.160  -0.296  0.00  0.00    +0.039 A 
ATOM      2  C   UNL     1       2.870  -4.412   0.392  0.00  0.00    +0.015 A 
ATOM      3  C   UNL     1       2.543  -3.164   0.881  0.00  0.00    +0.029 A 
ATOM      4  C   UNL     1       1.272  -2.654   0.690  0.00  0.00    +0.106 A 
ATOM      5  C   UNL     1       0.318  -3.394   0.013  0.00  0.00    +0.029 A 
ATOM      6  C   UNL     1       0.634  -4.641  -0.485  0.00  0.00    +0.015 A 
ENDROOT
BRANCH   4   7
ATOM      7  S   UNL     1       0.862  -1.059   1.317  0.00  0.00    +0.061 S 
ATOM      8  O   UNL     1       1.759  -0.802   2.389  0.00  0.00    -0.153 OA
ATOM      9  O   UNL     1      -0.549  -1.038   1.483  0.00  0.00    -0.153 OA
BRANCH   7  10
ATOM     10  N   UNL     1       1.215   0.040   0.130  0.00  0.00    -0.172 NA
ATOM     11  C   UNL     1       0.208   0.423  -0.872  0.00  0.00    +0.140 C 
ATOM     12  C   UNL     1       0.139   1.953  -0.928  0.00  0.00    +0.131 C 
ATOM     13  O   UNL     1       1.456   2.477  -1.119  0.00  0.00    -0.371 OA
ATOM     14  C   UNL     1       2.364   2.181  -0.055  0.00  0.00    +0.131 C 
ATOM     15  C   UNL     1       2.546   0.662   0.046  0.00  0.00    +0.140 C 
ATOM     16  C   UNL     1       3.715   2.841  -0.336  0.00  0.00    +0.039 C 
ATOM     17  C   UNL     1      -0.437   2.487   0.385  0.00  0.00    +0.039 C 
ENDBRANCH   7  10
ENDBRANCH   4   7
BRANCH   1  18
ATOM     18  C   UNL     1       2.260  -6.500  -0.825  0.00  0.00    +0.269 C 
ATOM     19  O   UNL     1       3.380  -6.951  -0.659  0.00  0.00    -0.268 OA
BRANCH  18  29
ATOM     20  N   UNL     1       0.859  -9.282  -2.646  0.00  0.00    -0.321 N 
ATOM     21  C   UNL     1       1.361 -10.501  -3.063  0.00  0.00    +0.061 A 
ATOM     22  C   UNL     1       0.705 -11.515  -3.778  0.00  0.00    -0.024 A 
ATOM     23  C   UNL     1       1.359 -12.676  -4.114  0.00  0.00    +0.025 A 
ATOM     24  C   UNL     1       2.684 -12.882  -3.760  0.00  0.00    +0.042 A 
ATOM     25  C   UNL     1       3.356 -11.897  -3.055  0.00  0.00    +0.037 A 
ATOM     26  C   UNL     1       2.700 -10.736  -2.719  0.00  0.00    +0.041 A 
ATOM     27  S   UNL     1       3.165  -9.258  -1.854  0.00  0.00    -0.052 S 
ATOM     28  C   UNL     1       1.652  -8.417  -1.958  0.00  0.00    +0.167 A 
ATOM     29  N   UNL     1       1.343  -7.215  -1.484  0.00  0.00    -0.152 NA
ATOM     30 CL   UNL     1       3.490 -14.355  -4.197  0.00  0.00    -0.083 Cl
ATOM     31  C   UNL     1      -0.736 -11.329  -4.180  0.00  0.00    +0.046 C 
BRANCH  20  33
ATOM     32  C   UNL     1      -0.792  -7.484  -2.492  0.00  0.00    +0.027 C 
ATOM     33  C   UNL     1      -0.529  -8.921  -2.947  0.00  0.00    +0.121 C 
ENDBRANCH  20  33
ENDBRANCH  18  29
ENDBRANCH   1  18
TORSDOF 5
