REMARK  Name = ZINC58945358
REMARK  5 active torsions:
REMARK  status: ('A' for Active; 'I' for Inactive)
REMARK    1  A    between atoms: C_5  and  N_7
REMARK    2  A    between atoms: C_8  and  C_10
REMARK    3  A    between atoms: N_15  and  C_26
REMARK    4  A    between atoms: N_17  and  C_18
REMARK    5  A    between atoms: C_26  and  C_27
REMARK                            x       y       z     vdW  Elec       q    Type
REMARK                         _______ _______ _______ _____ _____    ______ ____
ROOT
ATOM      1  C   UNL     1       0.117  -4.277   0.192  0.00  0.00    +0.149 C 
ATOM      2  C   UNL     1      -1.102  -4.871  -0.516  0.00  0.00    +0.120 C 
ATOM      3  C   UNL     1      -1.245  -6.334  -0.273  0.00  0.00    +0.223 C 
ATOM      4  O   UNL     1      -1.805  -6.960  -1.147  0.00  0.00    -0.275 OA
ATOM      5  N   UNL     1      -0.841  -7.041   0.771  0.00  0.00    -0.246 N 
ATOM      6  C   UNL     1      -0.064  -6.538   1.799  0.00  0.00    +0.164 C 
ATOM      7  N   UNL     1       0.564  -7.333   2.633  0.00  0.00    -0.226 NA
ATOM      8  S   UNL     1       0.049  -4.775   1.944  0.00  0.00    -0.077 S 
ENDROOT
BRANCH   7   9
ATOM      9  C   UNL     1       1.326  -6.804   3.640  0.00  0.00    +0.068 A 
ATOM     10  C   UNL     1       2.195  -5.743   3.379  0.00  0.00    +0.028 A 
ATOM     11  C   UNL     1       2.960  -5.215   4.398  0.00  0.00    +0.003 A 
ATOM     12  C   UNL     1       2.868  -5.734   5.678  0.00  0.00    +0.020 A 
ATOM     13  C   UNL     1       2.009  -6.787   5.944  0.00  0.00    +0.043 A 
ATOM     14  C   UNL     1       1.233  -7.320   4.934  0.00  0.00    +0.047 A 
ATOM     15 CL   UNL     1       1.902  -7.432   7.552  0.00  0.00    -0.083 Cl
ENDBRANCH   7   9
BRANCH   1  17
ATOM     16  N   UNL     1       1.236  -2.081  -0.022  0.00  0.00    -0.282 N 
ATOM     17  C   UNL     1       0.085  -2.774   0.087  0.00  0.00    +0.231 C 
ATOM     18  O   UNL     1      -0.977  -2.187   0.102  0.00  0.00    -0.274 OA
ATOM     19  H   UNL     1       2.079  -2.552  -0.115  0.00  0.00    +0.155 HD
BRANCH  16  24
ATOM     20  C   UNL     1       0.153   1.372   0.637  0.00  0.00    +0.002 A 
ATOM     21  C   UNL     1       1.173   2.087   0.036  0.00  0.00    +0.003 A 
ATOM     22  C   UNL     1       2.214   1.423  -0.585  0.00  0.00    +0.040 A 
ATOM     23  C   UNL     1       2.239   0.040  -0.607  0.00  0.00    +0.144 A 
ATOM     24  C   UNL     1       1.215  -0.681  -0.002  0.00  0.00    +0.069 A 
ATOM     25  C   UNL     1       0.172  -0.009   0.620  0.00  0.00    +0.026 A 
ATOM     26  F   UNL     1       3.256  -0.609  -1.214  0.00  0.00    -0.204 F 
ENDBRANCH  16  24
ENDBRANCH   1  17
BRANCH   5  27
ATOM     27  C   UNL     1      -1.244  -8.448   0.843  0.00  0.00    +0.150 C 
BRANCH  27  28
ATOM     28  C   UNL     1      -0.207  -9.303   0.161  0.00  0.00    -0.029 A 
ATOM     29  C   UNL     1      -0.316  -9.574  -1.190  0.00  0.00    +0.008 A 
ATOM     30  C   UNL     1       0.635 -10.358  -1.817  0.00  0.00    +0.038 A 
ATOM     31  C   UNL     1       1.696 -10.870  -1.091  0.00  0.00    +0.123 A 
ATOM     32  C   UNL     1       1.804 -10.598   0.262  0.00  0.00    +0.038 A 
ATOM     33  C   UNL     1       0.855  -9.810   0.886  0.00  0.00    +0.008 A 
ATOM     34  F   UNL     1       2.626 -11.637  -1.702  0.00  0.00    -0.205 F 
ENDBRANCH  27  28
ENDBRANCH   5  27
TORSDOF 5
