REMARK  Name = ZINC10059414
REMARK  6 active torsions:
REMARK  status: ('A' for Active; 'I' for Inactive)
REMARK    1  A    between atoms: C_1  and  C_2
REMARK    2  A    between atoms: C_5  and  C_8
REMARK    3  A    between atoms: C_15  and  C_17
REMARK    4  A    between atoms: C_17  and  S_18
REMARK    5  A    between atoms: S_18  and  C_19
REMARK    6  A    between atoms: C_28  and  C_30
REMARK                            x       y       z     vdW  Elec       q    Type
REMARK                         _______ _______ _______ _____ _____    ______ ____
ROOT
ATOM      1  C   UNL     1       1.869  -7.616  -3.082  0.00  0.00    +0.081 C 
ATOM      2  N   UNL     1       2.060  -6.382  -2.754  0.00  0.00    -0.151 NA
ATOM      3  N   UNL     1       1.482  -5.735  -1.826  0.00  0.00    -0.126 NA
ATOM      4  C   UNL     1       0.879  -6.274  -0.793  0.00  0.00    +0.182 C 
ATOM      5  S   UNL     1       0.859  -8.031  -0.613  0.00  0.00    -0.082 S 
ATOM      6  C   UNL     1       0.857  -8.483  -2.375  0.00  0.00    +0.135 C 
ATOM      7  N   UNL     1       0.270  -5.473   0.149  0.00  0.00    -0.263 N 
ATOM      8  C   UNL     1       0.293  -4.133   0.011  0.00  0.00    +0.229 C 
ATOM      9  O   UNL     1       0.849  -3.631  -0.942  0.00  0.00    -0.275 OA
ATOM     10  H   UNL     1      -0.175  -5.875   0.912  0.00  0.00    +0.157 HD
ENDROOT
BRANCH   1  15
ATOM     11  C   UNL     1       4.971  -9.875  -7.363  0.00  0.00    +0.044 C 
ATOM     12  C   UNL     1       4.158  -9.283  -6.241  0.00  0.00    -0.050 A 
ATOM     13  C   UNL     1       4.349  -7.961  -5.875  0.00  0.00    +0.004 A 
ATOM     14  C   UNL     1       3.609  -7.412  -4.850  0.00  0.00    +0.010 A 
ATOM     15  C   UNL     1       2.663  -8.194  -4.178  0.00  0.00    -0.001 A 
ATOM     16  C   UNL     1       2.480  -9.530  -4.550  0.00  0.00    +0.010 A 
ATOM     17  C   UNL     1       3.224 -10.063  -5.581  0.00  0.00    +0.004 A 
ENDBRANCH   1  15
BRANCH   8  18
ATOM     18  C   UNL     1      -0.373  -3.258   1.042  0.00  0.00    +0.173 C 
BRANCH  18  19
ATOM     19  S   UNL     1      -0.171  -1.520   0.579  0.00  0.00    -0.078 S 
BRANCH  19  20
ATOM     20  C   UNL     1      -1.019  -0.746   1.916  0.00  0.00    +0.177 A 
ATOM     21  N   UNL     1      -1.594  -1.376   2.908  0.00  0.00    -0.221 NA
ATOM     22  C   UNL     1      -2.154  -0.478   3.762  0.00  0.00    +0.091 A 
ATOM     23  C   UNL     1      -2.872  -0.608   4.953  0.00  0.00    +0.030 A 
ATOM     24  C   UNL     1      -3.310   0.518   5.615  0.00  0.00    +0.002 A 
ATOM     25  C   UNL     1      -3.052   1.780   5.102  0.00  0.00    +0.002 A 
ATOM     26  C   UNL     1      -2.347   1.925   3.924  0.00  0.00    +0.028 A 
ATOM     27  C   UNL     1      -1.894   0.803   3.249  0.00  0.00    +0.077 A 
ATOM     28  N   UNL     1      -1.177   0.610   2.073  0.00  0.00    -0.258 N 
ATOM     29  C   UNL     1      -0.718   1.572   1.248  0.00  0.00    +0.231 C 
ATOM     30  O   UNL     1      -1.440   2.027   0.388  0.00  0.00    -0.273 OA
ATOM     31  C   UNL     1       0.693   2.081   1.394  0.00  0.00    +0.113 C 
ENDBRANCH  19  20
ENDBRANCH  18  19
ENDBRANCH   8  18
TORSDOF 4
