REMARK  Name = ZINC46053947
REMARK  3 active torsions:
REMARK  status: ('A' for Active; 'I' for Inactive)
REMARK    1  A    between atoms: C_6  and  S_7
REMARK    2  A    between atoms: S_7  and  N_10
REMARK    3  A    between atoms: N_10  and  C_11
REMARK                            x       y       z     vdW  Elec       q    Type
REMARK                         _______ _______ _______ _____ _____    ______ ____
ROOT
ATOM      1  C   UNL     1      -0.017   1.380   0.010  0.00  0.00    +0.030 A 
ATOM      2  C   UNL     1       1.162   2.099   0.002  0.00  0.00    +0.026 A 
ATOM      3  C   UNL     1       2.384   1.435  -0.013  0.00  0.00    +0.042 A 
ATOM      4  C   UNL     1       2.398   0.035  -0.021  0.00  0.00    +0.010 A 
ATOM      5  C   UNL     1       1.207  -0.679  -0.013  0.00  0.00    +0.039 A 
ATOM      6  C   UNL     1       0.002  -0.004   0.002  0.00  0.00    +0.106 A 
ATOM      7  C   UNL     1       3.825  -0.369  -0.037  0.00  0.00    +0.045 C 
ATOM      8  C   UNL     1       4.323  -1.618  -0.050  0.00  0.00    -0.057 C 
ATOM      9  C   UNL     1       3.522  -2.904  -0.056  0.00  0.00    +0.031 C 
ATOM     10  C   UNL     1       4.539  -4.064  -0.061  0.00  0.00    +0.005 C 
ATOM     11  C   UNL     1       5.823  -3.432   0.533  0.00  0.00    +0.005 C 
ATOM     12  C   UNL     1       5.792  -2.001  -0.066  0.00  0.00    +0.031 C 
ATOM     13  C   UNL     1       4.581   0.903  -0.038  0.00  0.00    +0.249 C 
ATOM     14  O   UNL     1       5.792   1.017  -0.050  0.00  0.00    -0.270 OA
ATOM     15  N   UNL     1       3.692   1.910  -0.024  0.00  0.00    -0.281 N 
ATOM     16  H   UNL     1       3.931   2.850  -0.022  0.00  0.00    +0.155 HD
ENDROOT
BRANCH   6  17
ATOM     17  S   UNL     1      -1.512  -0.905   0.012  0.00  0.00    +0.059 S 
ATOM     18  O   UNL     1      -1.219  -2.186   0.553  0.00  0.00    -0.153 OA
ATOM     19  O   UNL     1      -2.493  -0.046   0.576  0.00  0.00    -0.153 OA
BRANCH  17  20
ATOM     20  N   UNL     1      -1.948  -1.147  -1.568  0.00  0.00    -0.187 NA
ATOM     21  H   UNL     1      -2.755  -0.738  -1.916  0.00  0.00    +0.148 HD
BRANCH  20  22
ATOM     22  C   UNL     1      -1.114  -1.979  -2.438  0.00  0.00    +0.077 C 
ATOM     23  C   UNL     1      -0.098  -1.077  -3.168  0.00  0.00    +0.020 C 
ATOM     24  C   UNL     1       1.048  -1.931  -3.638  0.00  0.00    +0.002 C 
ATOM     25  C   UNL     1       0.867  -2.414  -5.090  0.00  0.00    +0.000 C 
ATOM     26  C   UNL     1      -0.576  -2.858  -5.396  0.00  0.00    +0.000 C 
ATOM     27  C   UNL     1      -1.181  -3.661  -4.276  0.00  0.00    +0.002 C 
ATOM     28  C   UNL     1      -1.974  -2.705  -3.361  0.00  0.00    +0.020 C 
ENDBRANCH  20  22
ENDBRANCH  17  20
ENDBRANCH   6  17
TORSDOF 3
