REMARK  Name = ZINC39638166
REMARK  8 active torsions:
REMARK  status: ('A' for Active; 'I' for Inactive)
REMARK    1  A    between atoms: C_1  and  C_2
REMARK    2  A    between atoms: C_2  and  C_3
REMARK    3  A    between atoms: C_3  and  C_5
REMARK    4  A    between atoms: C_3  and  N_8
REMARK    5  A    between atoms: C_5  and  O_6
REMARK    6  A    between atoms: O_6  and  C_7
REMARK    7  A    between atoms: C_9  and  C_11
REMARK    8  A    between atoms: C_22  and  C_24
REMARK                            x       y       z     vdW  Elec       q    Type
REMARK                         _______ _______ _______ _____ _____    ______ ____
ROOT
ATOM      1  C   UNL     1      -3.216   1.478  -2.634  0.00  0.00    +0.100 C 
ATOM      2  C   UNL     1      -4.560   0.750  -2.861  0.00  0.00    +0.121 C 
ATOM      3  N   UNL     1      -5.586   1.690  -2.351  0.00  0.00    -0.297 N 
ATOM      4  C   UNL     1      -5.107   3.026  -2.780  0.00  0.00    +0.115 C 
ATOM      5  C   UNL     1      -3.579   2.971  -2.584  0.00  0.00    -0.004 C 
ATOM      6  C   UNL     1      -3.199   3.562  -1.230  0.00  0.00    -0.010 C 
ATOM      7  C   UNL     1      -3.517   5.060  -1.225  0.00  0.00    -0.082 C 
ATOM      8  N   UNL     1      -2.768   5.725  -2.299  0.00  0.00    +0.379 N 
ATOM      9  C   UNL     1      -3.206   5.215  -3.604  0.00  0.00    -0.082 C 
ATOM     10  C   UNL     1      -2.875   3.724  -3.709  0.00  0.00    -0.010 C 
ATOM     11  C   UNL     1      -6.702   1.397  -1.654  0.00  0.00    +0.260 C 
ATOM     12  O   UNL     1      -7.449   2.286  -1.304  0.00  0.00    -0.271 OA
ATOM     13  H   UNL     1      -2.932   6.719  -2.255  0.00  0.00    -0.086 HD
ATOM     14  H   UNL     1      -1.782   5.543  -2.182  0.00  0.00    -0.086 HD
ENDROOT
BRANCH  11  15
ATOM     15  C   UNL     1      -7.020  -0.035  -1.310  0.00  0.00    +0.296 C 
ATOM     16  C   UNL     1      -7.302  -0.826  -2.595  0.00  0.00    +0.283 C 
ATOM     17  O   UNL     1      -7.614  -2.175  -2.231  0.00  0.00    -0.484 OA
ATOM     18  C   UNL     1      -8.496  -2.344  -1.208  0.00  0.00    +0.162 A 
ATOM     19  C   UNL     1      -9.116  -3.573  -1.040  0.00  0.00    +0.049 A 
ATOM     20  C   UNL     1     -10.011  -3.762  -0.004  0.00  0.00    +0.004 A 
ATOM     21  C   UNL     1     -10.292  -2.725   0.867  0.00  0.00    +0.004 A 
ATOM     22  C   UNL     1      -9.679  -1.498   0.704  0.00  0.00    +0.049 A 
ATOM     23  C   UNL     1      -8.780  -1.302  -0.334  0.00  0.00    +0.163 A 
ATOM     24  O   UNL     1      -8.190  -0.084  -0.486  0.00  0.00    -0.473 OA
ENDBRANCH  11  15
BRANCH   1  26
ATOM     25  N   UNL     1      -1.258   1.032  -1.189  0.00  0.00    -0.310 N 
ATOM     26  C   UNL     1      -2.599   1.044  -1.329  0.00  0.00    +0.218 C 
ATOM     27  O   UNL     1      -3.308   0.705  -0.406  0.00  0.00    -0.275 OA
ATOM     28  H   UNL     1      -0.691   1.296  -1.930  0.00  0.00    +0.149 HD
BRANCH  25  29
ATOM     29  C   UNL     1      -0.658   0.621   0.083  0.00  0.00    +0.098 C 
BRANCH  29  31
ATOM     30  C   UNL     1      -1.705   2.477   1.388  0.00  0.00    +0.006 C 
ATOM     31  C   UNL     1      -0.380   1.859   0.938  0.00  0.00    +0.021 C 
ENDBRANCH  29  31
BRANCH  29  32
ATOM     32  C   UNL     1       0.653  -0.118  -0.188  0.00  0.00    +0.181 C 
BRANCH  32  33
ATOM     33  O   UNL     1       1.595   0.782  -0.776  0.00  0.00    -0.381 OA
ATOM     34  C   UNL     1       2.861   0.188  -1.070  0.00  0.00    +0.194 C 
ENDBRANCH  32  33
ENDBRANCH  29  32
ENDBRANCH  25  29
ENDBRANCH   1  26
TORSDOF 6
