REMARK  Name = ZINC22010048
REMARK  4 active torsions:
REMARK  status: ('A' for Active; 'I' for Inactive)
REMARK    1  A    between atoms: C_1  and  N_2
REMARK    2  A    between atoms: N_2  and  C_3
REMARK    3  A    between atoms: N_2  and  C_19
REMARK    4  A    between atoms: C_3  and  C_4
REMARK                            x       y       z     vdW  Elec       q    Type
REMARK                         _______ _______ _______ _____ _____    ______ ____
ROOT
ATOM      1  C   UNL     1       5.190   0.279   1.440  0.00  0.00    +0.149 A 
ATOM      2  N   UNL     1       5.976  -0.601   2.034  0.00  0.00    -0.215 NA
ATOM      3  C   UNL     1       6.528  -0.368   3.214  0.00  0.00    +0.128 A 
ATOM      4  C   UNL     1       6.268   0.870   3.867  0.00  0.00    +0.051 A 
ATOM      5  C   UNL     1       6.768   1.341   5.163  0.00  0.00    -0.025 A 
ATOM      6  C   UNL     1       6.361   2.563   5.561  0.00  0.00    -0.004 A 
ATOM      7  S   UNL     1       5.320   3.157   4.252  0.00  0.00    -0.073 S 
ATOM      8  C   UNL     1       5.422   1.755   3.172  0.00  0.00    +0.114 A 
ATOM      9  N   UNL     1       4.918   1.445   1.993  0.00  0.00    -0.223 NA
ATOM     10  C   UNL     1       6.703   3.276   6.833  0.00  0.00    +0.043 C 
ATOM     11  C   UNL     1       8.221   3.226   7.050  0.00  0.00    +0.005 C 
ATOM     12  C   UNL     1       8.552   1.966   7.842  0.00  0.00    +0.001 C 
ATOM     13  C   UNL     1       7.579   0.847   7.475  0.00  0.00    +0.005 C 
ATOM     14  C   UNL     1       7.713   0.485   6.001  0.00  0.00    +0.037 C 
ATOM     15  N   UNL     1       7.346  -1.313   3.805  0.00  0.00    -0.343 N 
ATOM     16  H   UNL     1       7.801  -1.112   4.786  0.00  0.00    +0.144 HD
ATOM     17  H   UNL     1       7.542  -2.268   3.293  0.00  0.00    +0.144 HD
ENDROOT
BRANCH   1  18
ATOM     18  C   UNL     1       4.595  -0.055   0.095  0.00  0.00    +0.181 C 
BRANCH  18  20
ATOM     19  C   UNL     1       3.244  -2.181   0.400  0.00  0.00    +0.129 C 
ATOM     20  N   UNL     1       3.305  -0.722   0.284  0.00  0.00    -0.326 N 
BRANCH  20  21
ATOM     21  C   UNL     1       2.132   0.033   0.354  0.00  0.00    +0.030 A 
ATOM     22  C   UNL     1       0.907  -0.598   0.533  0.00  0.00    +0.023 A 
ATOM     23  C   UNL     1      -0.250   0.152   0.602  0.00  0.00    +0.002 A 
ATOM     24  C   UNL     1      -0.192   1.530   0.494  0.00  0.00    +0.000 A 
ATOM     25  C   UNL     1       1.026   2.161   0.316  0.00  0.00    +0.002 A 
ATOM     26  C   UNL     1       2.187   1.417   0.245  0.00  0.00    +0.023 A 
ENDBRANCH  20  21
ENDBRANCH  18  20
ENDBRANCH   1  18
TORSDOF 3
