REMARK  Name = ZINC32887397
REMARK  5 active torsions:
REMARK  status: ('A' for Active; 'I' for Inactive)
REMARK    1  A    between atoms: C_1  and  C_2
REMARK    2  A    between atoms: C_2  and  C_4
REMARK    3  A    between atoms: C_2  and  N_17
REMARK    4  A    between atoms: N_6  and  C_7
REMARK    5  A    between atoms: C_19  and  C_22
REMARK                            x       y       z     vdW  Elec       q    Type
REMARK                         _______ _______ _______ _____ _____    ______ ____
ROOT
ATOM      1  C   UNL     1      -2.848   7.752   0.309  0.00  0.00    +0.044 C 
ATOM      2  C   UNL     1      -2.132   7.259  -0.950  0.00  0.00    +0.212 C 
ENDROOT
BRANCH   2   3
ATOM      3  N   UNL     1      -2.841   7.744  -2.136  0.00  0.00    -0.151 N 
ATOM      4  N   UNL     1      -2.337   8.504  -3.047  0.00  0.00    -0.130 NA
ATOM      5  C   UNL     1      -3.270   8.724  -3.951  0.00  0.00    +0.205 A 
ATOM      6  N   UNL     1      -4.365   8.069  -3.540  0.00  0.00    -0.108 NA
ATOM      7  N   UNL     1      -4.066   7.483  -2.431  0.00  0.00    -0.045 NA
BRANCH   5   8
ATOM      8  C   UNL     1      -3.137   9.544  -5.182  0.00  0.00    +0.023 A 
ATOM      9  C   UNL     1      -1.929  10.174  -5.474  0.00  0.00    +0.013 A 
ATOM     10  C   UNL     1      -1.809  10.931  -6.622  0.00  0.00    +0.016 A 
ATOM     11  C   UNL     1      -2.889  11.074  -7.476  0.00  0.00    +0.018 A 
ATOM     12  C   UNL     1      -4.092  10.454  -7.187  0.00  0.00    +0.016 A 
ATOM     13  C   UNL     1      -4.221   9.690  -6.045  0.00  0.00    +0.013 A 
ATOM     14 BR   UNL     1      -2.719  12.119  -9.043  0.00  0.00    -0.050 Br
ENDBRANCH   5   8
ENDBRANCH   2   3
BRANCH   2  15
ATOM     15  C   UNL     1      -2.112   5.752  -0.958  0.00  0.00    +0.240 C 
ATOM     16  O   UNL     1      -2.637   5.143  -1.866  0.00  0.00    -0.273 OA
ATOM     17  N   UNL     1      -1.510   5.081   0.044  0.00  0.00    -0.308 N 
ATOM     18  H   UNL     1      -1.033   5.633   0.867  0.00  0.00    +0.149 HD
BRANCH  17  19
ATOM     19  C   UNL     1      -1.490   3.616   0.036  0.00  0.00    +0.035 C 
ATOM     20  C   UNL     1      -0.773   3.123  -1.223  0.00  0.00    +0.029 C 
ATOM     21  C   UNL     1      -0.753   1.593  -1.232  0.00  0.00    -0.008 C 
ATOM     22  C   UNL     1      -0.013   1.086   0.008  0.00  0.00    +0.007 C 
ATOM     23  C   UNL     1      -0.729   1.579   1.267  0.00  0.00    -0.008 C 
ATOM     24  C   UNL     1      -0.750   3.109   1.275  0.00  0.00    +0.029 C 
ATOM     25  C   UNL     1      -2.164   1.050   1.278  0.00  0.00    +0.007 C 
ATOM     26  C   UNL     1      -2.904   1.556   0.038  0.00  0.00    -0.008 C 
ATOM     27  C   UNL     1      -2.188   1.063  -1.221  0.00  0.00    +0.007 C 
ATOM     28  C   UNL     1      -2.925   3.086   0.047  0.00  0.00    +0.029 C 
ENDBRANCH  17  19
ENDBRANCH   2  15
TORSDOF 4
