REMARK  Name = ZINC20463797
REMARK  11 active torsions:
REMARK  status: ('A' for Active; 'I' for Inactive)
REMARK    1  A    between atoms: C_1  and  C_2
REMARK    2  A    between atoms: C_8  and  C_9
REMARK    3  A    between atoms: N_11  and  C_18
REMARK    4  A    between atoms: C_18  and  C_19
REMARK    5  A    between atoms: C_19  and  C_20
REMARK    6  A    between atoms: C_20  and  O_21
REMARK    7  A    between atoms: O_21  and  C_22
REMARK    8  A    between atoms: C_25  and  C_28
REMARK    9  A    between atoms: C_28  and  C_29
REMARK   10  A    between atoms: C_28  and  C_30
REMARK   11  A    between atoms: C_28  and  C_31
REMARK                            x       y       z     vdW  Elec       q    Type
REMARK                         _______ _______ _______ _____ _____    ______ ____
ROOT
ATOM      1  C   UNL     1       6.172   2.924  -1.458  0.00  0.00    +0.001 A 
ATOM      2  C   UNL     1       5.688   4.211  -1.320  0.00  0.00    +0.094 A 
ATOM      3  N   UNL     1       6.529   5.076  -1.919  0.00  0.00    -0.346 N 
ATOM      4  C   UNL     1       7.596   4.408  -2.484  0.00  0.00    +0.050 A 
ATOM      5  C   UNL     1       7.428   3.038  -2.226  0.00  0.00    +0.007 A 
ATOM      6  C   UNL     1       8.366   2.119  -2.685  0.00  0.00    +0.010 A 
ATOM      7  C   UNL     1       9.463   2.560  -3.394  0.00  0.00    +0.001 A 
ATOM      8  C   UNL     1       9.632   3.913  -3.650  0.00  0.00    +0.002 A 
ATOM      9  C   UNL     1       8.710   4.833  -3.202  0.00  0.00    +0.026 A 
ENDROOT
BRANCH   1  17
ATOM     10  C   UNL     1      -0.383  -0.195   2.817  0.00  0.00    +0.053 C 
ATOM     11  C   UNL     1       0.885   0.523   2.434  0.00  0.00    +0.004 C 
ATOM     12  C   UNL     1       1.881   0.107   1.647  0.00  0.00    +0.094 C 
ATOM     13  N   UNL     1       2.954   0.924   1.440  0.00  0.00    -0.241 N 
ATOM     14  C   UNL     1       4.105   0.578   0.697  0.00  0.00    +0.135 C 
ATOM     15  N   UNL     1       4.451  -0.658   0.447  0.00  0.00    -0.284 NA
ATOM     16  C   UNL     1       4.887   1.753   0.228  0.00  0.00    +0.079 C 
ATOM     17  C   UNL     1       5.582   1.737  -0.967  0.00  0.00    +0.026 C 
ATOM     18  C   UNL     1       4.880   2.942   1.112  0.00  0.00    +0.273 C 
ATOM     19  O   UNL     1       5.805   3.739   1.100  0.00  0.00    -0.268 OA
ATOM     20  N   UNL     1       3.823   3.118   1.929  0.00  0.00    -0.154 NA
ATOM     21  C   UNL     1       2.922   2.169   2.031  0.00  0.00    +0.163 C 
ATOM     22  S   UNL     1       1.443   2.150   2.914  0.00  0.00    -0.060 S 
ATOM     23  H   UNL     1       3.833  -1.488   0.820  0.00  0.00    +0.188 HD
ENDBRANCH   1  17
BRANCH   3  24
ATOM     24  C   UNL     1       6.335   6.527  -1.968  0.00  0.00    +0.125 C 
BRANCH  24  25
ATOM     25  C   UNL     1       5.636   6.904  -3.277  0.00  0.00    +0.062 C 
BRANCH  25  26
ATOM     26  C   UNL     1       5.434   8.420  -3.329  0.00  0.00    +0.231 C 
BRANCH  26  27
ATOM     27  O   UNL     1       4.782   8.772  -4.550  0.00  0.00    -0.492 OA
BRANCH  27  28
ATOM     28  C   UNL     1       4.525  10.090  -4.755  0.00  0.00    +0.121 A 
ATOM     29  C   UNL     1       4.888  11.026  -3.797  0.00  0.00    +0.046 A 
ATOM     30  C   UNL     1       4.632  12.366  -4.011  0.00  0.00    +0.008 A 
ATOM     31  C   UNL     1       4.003  12.775  -5.172  0.00  0.00    -0.042 A 
ATOM     32  C   UNL     1       3.635  11.844  -6.126  0.00  0.00    +0.008 A 
ATOM     33  C   UNL     1       3.894  10.503  -5.920  0.00  0.00    +0.046 A 
BRANCH  31  34
ATOM     34  C   UNL     1       3.718  14.237  -5.399  0.00  0.00    -0.013 C 
ATOM     35  C   UNL     1       2.211  14.445  -5.558  0.00  0.00    +0.015 C 
ATOM     36  C   UNL     1       4.222  15.047  -4.203  0.00  0.00    +0.015 C 
ATOM     37  C   UNL     1       4.433  14.705  -6.669  0.00  0.00    +0.015 C 
ENDBRANCH  31  34
ENDBRANCH  27  28
ENDBRANCH  26  27
ENDBRANCH  25  26
ENDBRANCH  24  25
ENDBRANCH   3  24
TORSDOF 7
