REMARK  Name = ZINC33386048
REMARK  4 active torsions:
REMARK  status: ('A' for Active; 'I' for Inactive)
REMARK    1  A    between atoms: C_10  and  S_11
REMARK    2  A    between atoms: S_11  and  C_12
REMARK    3  A    between atoms: C_12  and  C_13
REMARK    4  A    between atoms: N_15  and  C_16
REMARK                            x       y       z     vdW  Elec       q    Type
REMARK                         _______ _______ _______ _____ _____    ______ ____
ROOT
ATOM      1  C   UNL     1      -0.003   1.101   0.008  0.00  0.00    +0.173 C 
ENDROOT
BRANCH   1   2
ATOM      2  C   UNL     1      -0.738   1.591  -1.213  0.00  0.00    +0.228 C 
ATOM      3  O   UNL     1      -1.735   2.271  -1.089  0.00  0.00    -0.275 OA
ATOM      4  N   UNL     1      -0.288   1.272  -2.443  0.00  0.00    -0.284 N 
ATOM      5  H   UNL     1       0.655   0.718  -2.557  0.00  0.00    +0.155 HD
BRANCH   4   6
ATOM      6  C   UNL     1      -1.022   1.647  -3.575  0.00  0.00    +0.053 A 
ATOM      7  C   UNL     1      -1.723   2.845  -3.585  0.00  0.00    +0.046 A 
ATOM      8  C   UNL     1      -2.442   3.215  -4.706  0.00  0.00    +0.061 A 
ATOM      9  C   UNL     1      -2.473   2.385  -5.815  0.00  0.00    +0.061 A 
ATOM     10  C   UNL     1      -1.780   1.188  -5.806  0.00  0.00    +0.043 A 
ATOM     11  C   UNL     1      -1.055   0.817  -4.689  0.00  0.00    +0.064 A 
ATOM     12 CL   UNL     1      -0.185  -0.686  -4.679  0.00  0.00    -0.082 Cl
ATOM     13 CL   UNL     1      -3.383   2.849  -7.219  0.00  0.00    -0.082 Cl
ATOM     14 CL   UNL     1      -3.314   4.716  -4.721  0.00  0.00    -0.082 Cl
ENDBRANCH   4   6
ENDBRANCH   1   2
BRANCH   1  15
ATOM     15  S   UNL     1      -0.849   1.692   1.500  0.00  0.00    -0.076 S 
BRANCH  15  25
ATOM     16  C   UNL     1      -0.036   1.189   6.909  0.00  0.00    +0.045 A 
ATOM     17  C   UNL     1      -1.052   1.875   6.218  0.00  0.00    +0.059 A 
ATOM     18  C   UNL     1      -1.078   1.879   4.869  0.00  0.00    +0.115 A 
ATOM     19  N   UNL     1      -0.113   1.222   4.155  0.00  0.00    -0.275 N 
ATOM     20  C   UNL     1       0.891   0.537   4.805  0.00  0.00    +0.180 A 
ATOM     21  C   UNL     1       0.928   0.526   6.215  0.00  0.00    +0.087 A 
ATOM     22 CL   UNL     1       2.188  -0.323   7.054  0.00  0.00    -0.080 Cl
ATOM     23  N   UNL     1       1.660   0.006   3.872  0.00  0.00    -0.127 NA
ATOM     24  N   UNL     1       1.200   0.308   2.708  0.00  0.00    -0.122 NA
ATOM     25  C   UNL     1       0.119   1.046   2.823  0.00  0.00    +0.196 A 
ATOM     26 CL   UNL     1      -2.281   2.720   7.106  0.00  0.00    -0.082 Cl
ENDBRANCH  15  25
ENDBRANCH   1  15
TORSDOF 4
