REMARK  Name = ZINC23402517
REMARK  5 active torsions:
REMARK  status: ('A' for Active; 'I' for Inactive)
REMARK    1  A    between atoms: C_1  and  C_2
REMARK    2  A    between atoms: C_2  and  C_3
REMARK    3  A    between atoms: C_2  and  N_4
REMARK    4  A    between atoms: C_12  and  O_24
REMARK    5  A    between atoms: C_14  and  C_17
REMARK                            x       y       z     vdW  Elec       q    Type
REMARK                         _______ _______ _______ _____ _____    ______ ____
ROOT
ATOM      1  N   UNL     1      -4.280   2.042   6.826  0.00  0.00    +0.384 N 
ATOM      2  C   UNL     1      -3.014   1.332   6.595  0.00  0.00    -0.073 C 
ATOM      3  C   UNL     1      -3.048   0.624   5.238  0.00  0.00    +0.018 C 
ATOM      4  C   UNL     1      -3.460   1.641   4.179  0.00  0.00    -0.027 A 
ATOM      5  C   UNL     1      -4.057   2.799   4.551  0.00  0.00    -0.021 A 
ATOM      6  S   UNL     1      -4.355   3.665   3.034  0.00  0.00    -0.080 S 
ATOM      7  C   UNL     1      -3.708   2.517   1.942  0.00  0.00    +0.080 A 
ATOM      8  C   UNL     1      -3.258   1.468   2.754  0.00  0.00    +0.067 A 
ATOM      9  C   UNL     1      -2.627   0.306   2.075  0.00  0.00    +0.220 C 
ATOM     10  N   UNL     1      -2.351   0.419   0.806  0.00  0.00    -0.223 NA
ATOM     11  C   UNL     1      -2.524   1.637   0.023  0.00  0.00    +0.225 C 
ATOM     12  N   UNL     1      -3.591   2.492   0.573  0.00  0.00    -0.313 N 
ATOM     13  C   UNL     1      -4.382   3.224   5.949  0.00  0.00    -0.035 C 
ATOM     14  H   UNL     1      -4.241   3.065  -0.105  0.00  0.00    +0.149 HD
ATOM     15  H   UNL     1      -5.104   1.357   6.581  0.00  0.00    -0.081 HD
ENDROOT
BRANCH  11  16
ATOM     16  C   UNL     1      -1.229   2.407   0.021  0.00  0.00    +0.013 A 
ATOM     17  C   UNL     1      -1.247   3.789   0.034  0.00  0.00    +0.009 A 
ATOM     18  C   UNL     1      -0.059   4.497   0.027  0.00  0.00    +0.000 A 
ATOM     19  C   UNL     1       1.148   3.822   0.012  0.00  0.00    +0.001 A 
ATOM     20  C   UNL     1       1.167   2.440   0.004  0.00  0.00    +0.020 A 
ATOM     21  C   UNL     1      -0.021   1.732   0.012  0.00  0.00    +0.048 A 
ATOM     22 CL   UNL     1       0.002  -0.004   0.002  0.00  0.00    -0.083 Cl
ENDBRANCH  11  16
BRANCH   1  24
ATOM     23  C   UNL     1      -3.298   3.388   8.621  0.00  0.00    -0.014 C 
ATOM     24  C   UNL     1      -4.420   2.421   8.238  0.00  0.00    -0.074 C 
ATOM     25  C   UNL     1      -5.774   3.102   8.451  0.00  0.00    -0.014 C 
ENDBRANCH   1  24
BRANCH   9  26
ATOM     26  O   UNL     1      -2.349  -0.832   2.752  0.00  0.00    -0.492 OA
ATOM     27  H   UNL     1      -1.882  -1.681   2.232  0.00  0.00    +0.294 HD
ENDBRANCH   9  26
TORSDOF 3
