REMARK  Name = ZINC59384954
REMARK  5 active torsions:
REMARK  status: ('A' for Active; 'I' for Inactive)
REMARK    1  A    between atoms: C_1  and  C_2
REMARK    2  A    between atoms: C_3  and  C_18
REMARK    3  A    between atoms: C_4  and  C_10
REMARK    4  A    between atoms: N_20  and  N_21
REMARK    5  A    between atoms: C_22  and  C_23
REMARK                            x       y       z     vdW  Elec       q    Type
REMARK                         _______ _______ _______ _____ _____    ______ ____
ROOT
ATOM      1  C   UNL     1       0.635   1.221  -0.137  0.00  0.00    +0.061 C 
ATOM      2  C   UNL     1       0.379  -0.263  -0.067  0.00  0.00    +0.017 C 
ATOM      3  C   UNL     1      -0.886  -0.724  -0.166  0.00  0.00    +0.057 C 
ATOM      4  C   UNL     1      -1.098  -2.222  -0.091  0.00  0.00    +0.141 C 
ATOM      5  N   UNL     1       0.102  -3.058   0.084  0.00  0.00    -0.315 N 
ATOM      6  C   UNL     1       1.301  -2.449   0.166  0.00  0.00    +0.135 C 
ATOM      7  S   UNL     1       2.704  -3.409   0.370  0.00  0.00    -0.019 S 
ATOM      8  N   UNL     1       1.432  -1.119   0.089  0.00  0.00    -0.300 N 
ATOM      9  H   UNL     1       0.030  -4.024   0.140  0.00  0.00    +0.149 HD
ATOM     10  H   UNL     1       2.323  -0.742   0.151  0.00  0.00    +0.154 HD
ENDROOT
BRANCH   4  11
ATOM     11  C   UNL     1      -1.786  -2.658  -1.359  0.00  0.00    -0.004 A 
ATOM     12  C   UNL     1      -1.037  -3.077  -2.442  0.00  0.00    +0.008 A 
ATOM     13  C   UNL     1      -1.667  -3.476  -3.606  0.00  0.00    +0.020 A 
ATOM     14  C   UNL     1      -3.049  -3.458  -3.686  0.00  0.00    +0.042 A 
ATOM     15  C   UNL     1      -3.799  -3.039  -2.602  0.00  0.00    +0.040 A 
ATOM     16  C   UNL     1      -3.167  -2.644  -1.436  0.00  0.00    +0.048 A 
ATOM     17 CL   UNL     1      -4.108  -2.124  -0.073  0.00  0.00    -0.083 Cl
ATOM     18 CL   UNL     1      -3.840  -3.959  -5.147  0.00  0.00    -0.083 Cl
ENDBRANCH   4  11
BRANCH   3  19
ATOM     19  C   UNL     1      -1.977   0.163  -0.332  0.00  0.00    +0.263 C 
ATOM     20  O   UNL     1      -2.678   0.453   0.621  0.00  0.00    -0.269 OA
ATOM     21  N   UNL     1      -2.241   0.686  -1.546  0.00  0.00    -0.203 N 
ATOM     22  H   UNL     1      -1.727   0.403  -2.318  0.00  0.00    +0.178 HD
BRANCH  21  23
ATOM     23  N   UNL     1      -3.259   1.637  -1.693  0.00  0.00    -0.187 NA
ATOM     24  C   UNL     1      -3.450   2.212  -2.841  0.00  0.00    +0.139 C 
BRANCH  24  25
ATOM     25  C   UNL     1      -4.446   3.292  -2.968  0.00  0.00    +0.013 A 
ATOM     26  C   UNL     1      -4.658   3.909  -4.204  0.00  0.00    +0.011 A 
ATOM     27  C   UNL     1      -5.592   4.917  -4.316  0.00  0.00    +0.001 A 
ATOM     28  C   UNL     1      -6.319   5.319  -3.208  0.00  0.00    +0.001 A 
ATOM     29  C   UNL     1      -6.115   4.714  -1.982  0.00  0.00    +0.020 A 
ATOM     30  C   UNL     1      -5.187   3.698  -1.855  0.00  0.00    +0.050 A 
ATOM     31 CL   UNL     1      -4.938   2.934  -0.316  0.00  0.00    -0.083 Cl
ENDBRANCH  24  25
ENDBRANCH  21  23
ENDBRANCH   3  19
TORSDOF 4
