REMARK  Name = ZINC63667435
REMARK  7 active torsions:
REMARK  status: ('A' for Active; 'I' for Inactive)
REMARK    1  A    between atoms: C_7  and  C_10
REMARK    2  A    between atoms: C_10  and  C_11
REMARK    3  A    between atoms: C_11  and  N_12
REMARK    4  A    between atoms: C_13  and  C_15
REMARK    5  A    between atoms: C_15  and  N_16
REMARK    6  A    between atoms: C_19  and  S_27
REMARK    7  A    between atoms: S_27  and  N_30
REMARK                            x       y       z     vdW  Elec       q    Type
REMARK                         _______ _______ _______ _____ _____    ______ ____
ROOT
ATOM      1  N   UNL     1      -1.976  -7.005  -3.998  0.00  0.00    -0.261 N 
ATOM      2  C   UNL     1      -3.036  -6.420  -4.685  0.00  0.00    +0.052 A 
ATOM      3  C   UNL     1      -3.525  -5.187  -4.268  0.00  0.00    +0.053 A 
ATOM      4  C   UNL     1      -4.579  -4.595  -4.935  0.00  0.00    +0.107 A 
ATOM      5  C   UNL     1      -5.160  -5.220  -6.023  0.00  0.00    +0.030 A 
ATOM      6  C   UNL     1      -4.683  -6.445  -6.451  0.00  0.00    +0.018 A 
ATOM      7  C   UNL     1      -3.624  -7.043  -5.788  0.00  0.00    +0.030 A 
ATOM      8  S   UNL     1      -2.998  -8.601  -6.330  0.00  0.00    -0.114 S 
ATOM      9  C   UNL     1      -1.244  -8.507  -5.858  0.00  0.00    +0.170 C 
ATOM     10  C   UNL     1      -1.143  -7.928  -4.473  0.00  0.00    +0.230 C 
ATOM     11  O   UNL     1      -0.257  -8.328  -3.748  0.00  0.00    -0.274 OA
ENDROOT
BRANCH   4  12
ATOM     12  S   UNL     1      -5.189  -3.033  -4.394  0.00  0.00    +0.061 S 
ATOM     13  O   UNL     1      -6.534  -2.944  -4.846  0.00  0.00    -0.153 OA
ATOM     14  O   UNL     1      -4.836  -2.911  -3.023  0.00  0.00    -0.153 OA
BRANCH  12  15
ATOM     15  N   UNL     1      -4.339  -1.867  -5.207  0.00  0.00    -0.172 NA
ATOM     16  C   UNL     1      -3.087  -1.322  -4.659  0.00  0.00    +0.137 C 
ATOM     17  C   UNL     1      -2.012  -1.388  -5.750  0.00  0.00    +0.177 C 
ATOM     18  O   UNL     1      -2.509  -0.767  -6.938  0.00  0.00    -0.377 OA
ATOM     19  C   UNL     1      -3.654  -1.411  -7.501  0.00  0.00    +0.177 C 
ATOM     20  C   UNL     1      -4.810  -1.351  -6.502  0.00  0.00    +0.137 C 
ENDBRANCH  12  15
ENDBRANCH   4  12
BRANCH   1  21
ATOM     21  C   UNL     1      -1.752  -6.557  -2.622  0.00  0.00    +0.209 C 
BRANCH  21  23
ATOM     22  N   UNL     1      -0.458  -4.798  -1.460  0.00  0.00    -0.314 N 
ATOM     23  C   UNL     1      -0.811  -5.380  -2.623  0.00  0.00    +0.231 C 
ATOM     24  O   UNL     1      -0.371  -4.957  -3.671  0.00  0.00    -0.274 OA
ATOM     25  H   UNL     1      -0.810  -5.136  -0.622  0.00  0.00    +0.149 HD
BRANCH  22  26
ATOM     26  C   UNL     1       0.457  -3.653  -1.462  0.00  0.00    +0.108 C 
BRANCH  26  27
ATOM     27  C   UNL     1       0.691  -3.186  -0.024  0.00  0.00    +0.052 C 
BRANCH  27  34
ATOM     28  C   UNL     1      -0.016   1.348   0.009  0.00  0.00    +0.001 A 
ATOM     29  C   UNL     1       1.166   2.101   0.002  0.00  0.00    +0.002 A 
ATOM     30  C   UNL     1       2.391   1.535  -0.013  0.00  0.00    +0.026 A 
ATOM     31  C   UNL     1       2.529   0.120  -0.022  0.00  0.00    +0.043 A 
ATOM     32  N   UNL     1       3.587  -0.654  -0.037  0.00  0.00    -0.380 N 
ATOM     33  C   UNL     1       3.143  -2.053  -0.041  0.00  0.00    +0.144 C 
ATOM     34  C   UNL     1       1.631  -2.008  -0.025  0.00  0.00    -0.040 C 
ATOM     35  C   UNL     1       1.295  -0.698  -0.014  0.00  0.00    -0.001 A 
ATOM     36  C   UNL     1       0.002  -0.004   0.002  0.00  0.00    +0.010 A 
ATOM     37  H   UNL     1       4.509  -0.353  -0.045  0.00  0.00    +0.160 HD
ENDBRANCH  27  34
ENDBRANCH  26  27
ENDBRANCH  22  26
ENDBRANCH  21  23
ENDBRANCH   1  21
TORSDOF 7
