REMARK  Name = ZINC03670318
REMARK  13 active torsions:
REMARK  status: ('A' for Active; 'I' for Inactive)
REMARK    1  A    between atoms: C_1  and  C_2
REMARK    2  A    between atoms: C_2  and  O_3
REMARK    3  A    between atoms: O_3  and  C_4
REMARK    4  A    between atoms: C_7  and  N_10
REMARK    5  A    between atoms: C_20  and  C_21
REMARK    6  A    between atoms: C_20  and  O_35
REMARK    7  A    between atoms: N_23  and  C_24
REMARK    8  A    between atoms: C_24  and  C_25
REMARK    9  A    between atoms: C_25  and  C_26
REMARK   10  A    between atoms: C_26  and  N_68
REMARK   11  A    between atoms: C_27  and  N_68
REMARK   12  A    between atoms: C_28  and  C_29
REMARK   13  A    between atoms: C_28  and  N_68
REMARK                            x       y       z     vdW  Elec       q    Type
REMARK                         _______ _______ _______ _____ _____    ______ ____
ROOT
ATOM      1  N   UNL     1       3.686   3.107  -0.017  0.00  0.00    -0.214 N 
ATOM      2  C   UNL     1       3.519   1.903   0.561  0.00  0.00    +0.314 C 
ATOM      3  O   UNL     1       4.483   1.366   1.071  0.00  0.00    -0.252 OA
ATOM      4  N   UNL     1       2.340   1.269   0.600  0.00  0.00    -0.269 N 
ATOM      5  C   UNL     1       1.175   1.798   0.045  0.00  0.00    +0.043 A 
ATOM      6  C   UNL     1      -0.024   1.100   0.112  0.00  0.00    +0.024 A 
ATOM      7  C   UNL     1      -1.165   1.638  -0.449  0.00  0.00    +0.002 A 
ATOM      8  C   UNL     1      -1.124   2.875  -1.066  0.00  0.00    +0.001 A 
ATOM      9  C   UNL     1       0.069   3.575  -1.136  0.00  0.00    +0.010 A 
ATOM     10  C   UNL     1       1.208   3.038  -0.584  0.00  0.00    +0.033 A 
ATOM     11  C   UNL     1       2.529   3.771  -0.639  0.00  0.00    +0.247 C 
ATOM     12  H   UNL     1       2.295   0.403   1.034  0.00  0.00    +0.156 HD
ENDROOT
BRANCH   1  16
ATOM     13  C   UNL     1       7.436   4.932  -0.043  0.00  0.00    +0.121 A 
ATOM     14  C   UNL     1       6.520   5.243   0.951  0.00  0.00    +0.047 A 
ATOM     15  C   UNL     1       5.279   4.639   0.961  0.00  0.00    +0.027 A 
ATOM     16  C   UNL     1       4.946   3.720  -0.026  0.00  0.00    +0.042 A 
ATOM     17  C   UNL     1       5.865   3.405  -1.018  0.00  0.00    +0.027 A 
ATOM     18  C   UNL     1       7.105   4.014  -1.029  0.00  0.00    +0.047 A 
BRANCH  13  19
ATOM     19  O   UNL     1       8.658   5.527  -0.052  0.00  0.00    -0.492 OA
BRANCH  19  21
ATOM     20  C   UNL     1      10.866   5.926  -0.950  0.00  0.00    +0.048 C 
ATOM     21  C   UNL     1       9.551   5.159  -1.106  0.00  0.00    +0.225 C 
ENDBRANCH  19  21
ENDBRANCH  13  19
ENDBRANCH   1  16
BRANCH  11  22
ATOM     22  C   UNL     1       2.861   4.022  -2.088  0.00  0.00    +0.269 C 
ATOM     23  O   UNL     1       2.999   5.158  -2.490  0.00  0.00    -0.270 OA
ATOM     24  N   UNL     1       3.004   2.985  -2.936  0.00  0.00    -0.311 N 
ATOM     25  H   UNL     1       2.893   2.076  -2.614  0.00  0.00    +0.149 HD
BRANCH  24  26
ATOM     26  C   UNL     1       3.326   3.229  -4.344  0.00  0.00    +0.102 C 
BRANCH  26  27
ATOM     27  C   UNL     1       3.432   1.893  -5.082  0.00  0.00    +0.000 C 
BRANCH  27  28
ATOM     28  C   UNL     1       3.769   2.147  -6.552  0.00  0.00    -0.077 C 
BRANCH  28  30
ATOM     29  C   UNL     1       2.568   0.188  -7.313  0.00  0.00    -0.096 C 
ATOM     30  N   UNL     1       3.889   0.848  -7.246  0.00  0.00    +0.381 N 
ATOM     31  H   UNL     1       4.535   0.248  -6.721  0.00  0.00    -0.082 HD
BRANCH  30  32
ATOM     32  C   UNL     1       4.422   1.050  -8.610  0.00  0.00    -0.043 C 
BRANCH  32  33
ATOM     33  C   UNL     1       4.740  -0.294  -9.212  0.00  0.00    -0.064 A 
ATOM     34  C   UNL     1       5.992  -0.852  -9.034  0.00  0.00    +0.002 A 
ATOM     35  C   UNL     1       6.283  -2.087  -9.582  0.00  0.00    +0.000 A 
ATOM     36  C   UNL     1       5.325  -2.760 -10.317  0.00  0.00    +0.000 A 
ATOM     37  C   UNL     1       4.074  -2.199 -10.500  0.00  0.00    +0.000 A 
ATOM     38  C   UNL     1       3.782  -0.966  -9.947  0.00  0.00    +0.002 A 
ENDBRANCH  32  33
ENDBRANCH  30  32
ENDBRANCH  28  30
ENDBRANCH  27  28
ENDBRANCH  26  27
ENDBRANCH  24  26
ENDBRANCH  11  22
BRANCH  11  39
ATOM     39  O   UNL     1       2.355   5.040  -0.005  0.00  0.00    -0.360 OA
ATOM     40  H   UNL     1       1.685   5.599  -0.421  0.00  0.00    +0.213 HD
ENDBRANCH  11  39
TORSDOF 11
