REMARK  Name = ZINC25384102
REMARK  7 active torsions:
REMARK  status: ('A' for Active; 'I' for Inactive)
REMARK    1  A    between atoms: C_6  and  N_27
REMARK    2  A    between atoms: C_7  and  C_11
REMARK    3  A    between atoms: N_13  and  C_14
REMARK    4  A    between atoms: C_14  and  C_15
REMARK    5  A    between atoms: C_15  and  C_17
REMARK    6  A    between atoms: C_15  and  N_22
REMARK    7  A    between atoms: C_28  and  C_30
REMARK                            x       y       z     vdW  Elec       q    Type
REMARK                         _______ _______ _______ _____ _____    ______ ____
ROOT
ATOM      1  C   UNL     1      -8.443   1.042   0.054  0.00  0.00    +0.001 A 
ATOM      2  C   UNL     1      -9.435   1.544  -0.787  0.00  0.00    +0.001 A 
ATOM      3  C   UNL     1      -9.134   2.000  -2.033  0.00  0.00    +0.008 A 
ATOM      4  C   UNL     1      -7.803   1.967  -2.484  0.00  0.00    -0.016 A 
ATOM      5  C   UNL     1      -7.462   2.431  -3.766  0.00  0.00    +0.032 A 
ATOM      6  C   UNL     1      -6.163   2.389  -4.183  0.00  0.00    +0.046 A 
ATOM      7  C   UNL     1      -5.151   1.883  -3.339  0.00  0.00    +0.058 A 
ATOM      8  C   UNL     1      -5.463   1.415  -2.073  0.00  0.00    +0.023 A 
ATOM      9  C   UNL     1      -6.792   1.457  -1.629  0.00  0.00    -0.017 A 
ATOM     10  C   UNL     1      -7.143   0.995  -0.347  0.00  0.00    +0.008 A 
ENDROOT
BRANCH   7  11
ATOM     11  C   UNL     1      -3.753   1.846  -3.810  0.00  0.00    +0.246 C 
ATOM     12  O   UNL     1      -3.488   2.168  -4.952  0.00  0.00    -0.270 OA
ATOM     13  N   UNL     1      -2.770   1.455  -2.975  0.00  0.00    -0.313 N 
ATOM     14  H   UNL     1      -3.010   1.164  -1.942  0.00  0.00    +0.149 HD
BRANCH  13  15
ATOM     15  C   UNL     1      -1.382   1.419  -3.443  0.00  0.00    +0.094 C 
BRANCH  15  16
ATOM     16  C   UNL     1      -0.491   0.826  -2.350  0.00  0.00    -0.013 C 
BRANCH  16  17
ATOM     17  N   UNL     1       0.915   0.910  -2.766  0.00  0.00    +0.386 N 
ATOM     18  C   UNL     1       1.824   0.542  -1.649  0.00  0.00    -0.078 C 
ATOM     19  C   UNL     1       3.182   1.172  -2.026  0.00  0.00    -0.020 C 
ATOM     20  C   UNL     1       2.830   2.337  -2.979  0.00  0.00    -0.020 C 
ATOM     21  C   UNL     1       1.291   2.309  -3.096  0.00  0.00    -0.078 C 
ATOM     22  H   UNL     1       1.003   0.231  -3.627  0.00  0.00    -0.081 HD
ENDBRANCH  16  17
BRANCH  16  23
ATOM     23  C   UNL     1      -0.863  -0.617  -2.125  0.00  0.00    -0.022 A 
ATOM     24  C   UNL     1      -1.634  -1.157  -1.150  0.00  0.00    +0.009 A 
ATOM     25  C   UNL     1      -1.844  -2.523  -1.141  0.00  0.00    +0.008 A 
ATOM     26  C   UNL     1      -1.272  -3.282  -2.108  0.00  0.00    +0.045 A 
ATOM     27  S   UNL     1      -0.410  -2.056  -3.078  0.00  0.00    -0.103 S 
ENDBRANCH  16  23
ENDBRANCH  15  16
ENDBRANCH  13  15
ENDBRANCH   7  11
BRANCH   6  28
ATOM     28  N   UNL     1      -5.832   2.851  -5.457  0.00  0.00    -0.285 N 
ATOM     29  C   UNL     1      -6.489   3.904  -5.984  0.00  0.00    +0.220 C 
ATOM     30  O   UNL     1      -7.300   4.509  -5.315  0.00  0.00    -0.275 OA
ATOM     31  H   UNL     1      -5.036   2.356  -6.032  0.00  0.00    +0.155 HD
BRANCH  29  32
ATOM     32  C   UNL     1      -6.214   4.331  -7.402  0.00  0.00    +0.075 C 
ATOM     33  C   UNL     1      -5.503   5.669  -7.613  0.00  0.00    +0.013 C 
ATOM     34  C   UNL     1      -6.991   5.533  -7.942  0.00  0.00    +0.013 C 
ENDBRANCH  29  32
ENDBRANCH   6  28
TORSDOF 7
