REMARK  Name = ZINC15501887
REMARK  10 active torsions:
REMARK  status: ('A' for Active; 'I' for Inactive)
REMARK    1  A    between atoms: C_1  and  C_2
REMARK    2  A    between atoms: C_6  and  C_30
REMARK    3  A    between atoms: C_7  and  O_8
REMARK    4  A    between atoms: O_8  and  C_9
REMARK    5  A    between atoms: C_9  and  C_10
REMARK    6  A    between atoms: C_10  and  C_12
REMARK    7  A    between atoms: C_10  and  O_29
REMARK    8  A    between atoms: C_12  and  N_13
REMARK    9  A    between atoms: C_16  and  C_20
REMARK   10  A    between atoms: C_16  and  C_21
REMARK                            x       y       z     vdW  Elec       q    Type
REMARK                         _______ _______ _______ _____ _____    ______ ____
ROOT
ATOM      1  N   UNL     1      -6.159  -0.618   2.267  0.00  0.00    -0.221 N 
ATOM      2  C   UNL     1      -7.362  -0.039   2.085  0.00  0.00    +0.251 C 
ATOM      3  O   UNL     1      -7.605   1.149   2.050  0.00  0.00    -0.272 OA
ATOM      4  C   UNL     1      -8.348  -1.180   1.933  0.00  0.00    +0.135 C 
ATOM      5  N   UNL     1      -7.508  -2.383   2.065  0.00  0.00    -0.281 N 
ATOM      6  C   UNL     1      -6.247  -1.953   2.257  0.00  0.00    +0.310 C 
ATOM      7  O   UNL     1      -5.296  -2.695   2.406  0.00  0.00    -0.252 OA
ATOM      8  C   UNL     1      -9.016  -1.139   0.557  0.00  0.00    +0.047 C 
ATOM      9  H   UNL     1      -7.805  -3.305   2.022  0.00  0.00    +0.152 HD
ENDROOT
BRANCH   4  10
ATOM     10  C   UNL     1      -9.382  -1.132   3.028  0.00  0.00    -0.014 A 
ATOM     11  C   UNL     1      -9.895  -2.307   3.545  0.00  0.00    +0.008 A 
ATOM     12  C   UNL     1     -10.844  -2.264   4.550  0.00  0.00    +0.022 A 
ATOM     13  C   UNL     1     -11.280  -1.045   5.037  0.00  0.00    +0.059 A 
ATOM     14  C   UNL     1     -10.766   0.131   4.519  0.00  0.00    +0.060 A 
ATOM     15  C   UNL     1      -9.812   0.086   3.518  0.00  0.00    +0.027 A 
ATOM     16 CL   UNL     1     -11.312   1.661   5.131  0.00  0.00    -0.082 Cl
ATOM     17 CL   UNL     1     -12.472  -0.991   6.299  0.00  0.00    -0.082 Cl
ENDBRANCH   4  10
BRANCH   1  18
ATOM     18  C   UNL     1      -4.909   0.122   2.457  0.00  0.00    +0.152 C 
BRANCH  18  19
ATOM     19  C   UNL     1      -4.255   0.376   1.097  0.00  0.00    +0.170 C 
BRANCH  19  20
ATOM     20  O   UNL     1      -3.976  -0.874   0.462  0.00  0.00    -0.387 OA
ATOM     21  H   UNL     1      -3.379  -1.446   0.964  0.00  0.00    +0.210 HD
ENDBRANCH  19  20
BRANCH  19  22
ATOM     22  C   UNL     1      -2.949   1.149   1.296  0.00  0.00    +0.262 C 
BRANCH  22  23
ATOM     23  O   UNL     1      -2.397   1.487   0.021  0.00  0.00    -0.489 OA
BRANCH  23  30
ATOM     24  C   UNL     1       0.002  -0.004   0.002  0.00  0.00    +0.047 C 
ATOM     25  C   UNL     1      -0.018   1.503   0.010  0.00  0.00    -0.009 A 
ATOM     26  C   UNL     1       1.168   2.210   0.003  0.00  0.00    +0.007 A 
ATOM     27  C   UNL     1       1.150   3.593   0.010  0.00  0.00    +0.001 A 
ATOM     28  C   UNL     1      -0.055   4.271   0.025  0.00  0.00    +0.007 A 
ATOM     29  C   UNL     1      -1.244   3.568   0.033  0.00  0.00    -0.009 A 
ATOM     30  C   UNL     1      -1.229   2.181   0.020  0.00  0.00    +0.126 A 
ATOM     31  C   UNL     1      -2.557   4.307   0.049  0.00  0.00    +0.047 C 
ENDBRANCH  23  30
ENDBRANCH  22  23
ENDBRANCH  19  22
ENDBRANCH  18  19
ENDBRANCH   1  18
TORSDOF 7
