REMARK  Name = ZINC55569037
REMARK  6 active torsions:
REMARK  status: ('A' for Active; 'I' for Inactive)
REMARK    1  A    between atoms: C_1  and  C_2
REMARK    2  A    between atoms: C_4  and  C_13
REMARK    3  A    between atoms: C_6  and  S_9
REMARK    4  A    between atoms: C_7  and  C_8
REMARK    5  A    between atoms: S_9  and  N_12
REMARK    6  A    between atoms: N_18  and  C_21
REMARK                            x       y       z     vdW  Elec       q    Type
REMARK                         _______ _______ _______ _____ _____    ______ ____
ROOT
ATOM      1  C   UNL     1       0.029  -2.818  -2.485  0.00  0.00    +0.247 C 
ATOM      2  O   UNL     1       0.152  -4.028  -2.490  0.00  0.00    -0.270 OA
ATOM      3  N   UNL     1      -0.088  -2.148  -3.648  0.00  0.00    -0.301 N 
ATOM      4  C   UNL     1      -0.105  -0.677  -3.675  0.00  0.00    +0.089 C 
ATOM      5  C   UNL     1       0.917  -0.199  -4.712  0.00  0.00    -0.059 C 
ATOM      6  N   UNL     1       0.634  -0.832  -6.006  0.00  0.00    +0.384 N 
ATOM      7  C   UNL     1       0.824  -2.284  -5.904  0.00  0.00    -0.059 C 
ATOM      8  C   UNL     1      -0.197  -2.866  -4.928  0.00  0.00    +0.089 C 
ATOM      9  H   UNL     1      -0.320  -0.637  -6.273  0.00  0.00    -0.081 HD
ENDROOT
BRANCH   1  13
ATOM     10  C   UNL     1      -1.781   0.871   0.346  0.00  0.00    +0.044 C 
ATOM     11  C   UNL     1      -0.862  -0.309   0.164  0.00  0.00    -0.045 A 
ATOM     12  C   UNL     1      -0.846  -0.991  -1.036  0.00  0.00    +0.016 A 
ATOM     13  C   UNL     1       0.007  -2.083  -1.203  0.00  0.00    +0.039 A 
ATOM     14  C   UNL     1       0.838  -2.478  -0.153  0.00  0.00    +0.041 A 
ATOM     15  C   UNL     1       0.812  -1.788   1.041  0.00  0.00    +0.109 A 
ATOM     16  C   UNL     1      -0.031  -0.703   1.198  0.00  0.00    -0.021 A 
ATOM     17  C   UNL     1      -0.050   0.050   2.503  0.00  0.00    +0.046 C 
BRANCH  15  18
ATOM     18  S   UNL     1       1.861  -2.286   2.366  0.00  0.00    +0.056 S 
ATOM     19  O   UNL     1       1.042  -2.364   3.525  0.00  0.00    -0.153 OA
ATOM     20  O   UNL     1       2.618  -3.392   1.893  0.00  0.00    -0.153 OA
BRANCH  18  21
ATOM     21  N   UNL     1       2.936  -1.055   2.629  0.00  0.00    -0.204 NA
ATOM     22  H   UNL     1       2.897  -0.252   2.086  0.00  0.00    +0.144 HD
ATOM     23  H   UNL     1       3.606  -1.136   3.327  0.00  0.00    +0.144 HD
ENDBRANCH  18  21
ENDBRANCH  15  18
ENDBRANCH   1  13
BRANCH   6  24
ATOM     24  C   UNL     1       1.544  -0.290  -7.024  0.00  0.00    -0.068 C 
ATOM     25  C   UNL     1       1.339   1.221  -7.139  0.00  0.00    -0.015 C 
ATOM     26  C   UNL     1       2.287   1.785  -8.199  0.00  0.00    -0.002 C 
ATOM     27  C   UNL     1       1.993   1.127  -9.548  0.00  0.00    -0.000 C 
ATOM     28  C   UNL     1       2.198  -0.385  -9.433  0.00  0.00    -0.002 C 
ATOM     29  C   UNL     1       1.250  -0.949  -8.373  0.00  0.00    -0.015 C 
ENDBRANCH   6  24
TORSDOF 4
