REMARK  Name = ZINC17418623
REMARK  12 active torsions:
REMARK  status: ('A' for Active; 'I' for Inactive)
REMARK    1  A    between atoms: C_1  and  N_2
REMARK    2  A    between atoms: N_2  and  C_3
REMARK    3  A    between atoms: N_2  and  C_4
REMARK    4  A    between atoms: C_7  and  C_10
REMARK    5  A    between atoms: C_11  and  C_12
REMARK    6  A    between atoms: N_13  and  N_14
REMARK    7  A    between atoms: N_25  and  N_26
REMARK    8  A    between atoms: C_27  and  C_28
REMARK    9  A    between atoms: C_29  and  C_30
REMARK   10  A    between atoms: C_33  and  N_36
REMARK   11  A    between atoms: N_36  and  C_37
REMARK   12  A    between atoms: N_36  and  C_38
REMARK                            x       y       z     vdW  Elec       q    Type
REMARK                         _______ _______ _______ _____ _____    ______ ____
ROOT
ATOM      1  N   UNL     1      -0.937   4.021  -3.843  0.00  0.00    -0.219 N 
ATOM      2  C   UNL     1      -2.072   3.261  -3.605  0.00  0.00    +0.168 A 
ATOM      3  C   UNL     1      -1.997   1.848  -3.569  0.00  0.00    +0.029 A 
ATOM      4  C   UNL     1      -0.803   1.149  -3.768  0.00  0.00    +0.012 A 
ATOM      5  C   UNL     1      -0.809  -0.214  -3.720  0.00  0.00    +0.001 A 
ATOM      6  C   UNL     1      -1.985  -0.918  -3.475  0.00  0.00    +0.001 A 
ATOM      7  C   UNL     1      -3.167  -0.266  -3.282  0.00  0.00    +0.012 A 
ATOM      8  C   UNL     1      -3.195   1.131  -3.320  0.00  0.00    +0.029 A 
ATOM      9  C   UNL     1      -4.381   1.879  -3.125  0.00  0.00    +0.168 A 
ATOM     10  N   UNL     1      -4.322   3.197  -3.182  0.00  0.00    -0.130 NA
ATOM     11  N   UNL     1      -3.240   3.845  -3.407  0.00  0.00    -0.130 NA
ATOM     12  N   UNL     1      -5.585   1.238  -2.877  0.00  0.00    -0.219 N 
ATOM     13  H   UNL     1      -0.083   3.584  -3.987  0.00  0.00    +0.176 HD
ATOM     14  H   UNL     1      -5.619   0.270  -2.836  0.00  0.00    +0.176 HD
ENDROOT
BRANCH   1  16
ATOM     15  C   UNL     1       0.044   6.133  -4.100  0.00  0.00    +0.130 C 
ATOM     16  N   UNL     1      -1.023   5.419  -3.876  0.00  0.00    -0.189 NA
BRANCH  15  18
ATOM     17  C   UNL     1       1.050   8.284  -4.422  0.00  0.00    +0.009 C 
ATOM     18  C   UNL     1      -0.043   7.547  -4.133  0.00  0.00    +0.022 C 
BRANCH  17  22
ATOM     19  C   UNL     1       4.849   6.418  -4.719  0.00  0.00    +0.029 A 
ATOM     20  C   UNL     1       4.539   7.496  -5.543  0.00  0.00    +0.023 A 
ATOM     21  C   UNL     1       3.307   8.104  -5.450  0.00  0.00    +0.010 A 
ATOM     22  C   UNL     1       2.367   7.637  -4.525  0.00  0.00    -0.025 A 
ATOM     23  C   UNL     1       2.685   6.557  -3.695  0.00  0.00    +0.010 A 
ATOM     24  C   UNL     1       3.917   5.951  -3.798  0.00  0.00    +0.023 A 
BRANCH  19  26
ATOM     25  C   UNL     1       7.082   6.296  -5.786  0.00  0.00    +0.129 C 
ATOM     26  N   UNL     1       6.098   5.805  -4.817  0.00  0.00    -0.336 N 
ATOM     27  C   UNL     1       6.427   4.670  -3.951  0.00  0.00    +0.129 C 
ENDBRANCH  19  26
ENDBRANCH  17  22
ENDBRANCH  15  18
ENDBRANCH   1  16
BRANCH  12  28
ATOM     28  N   UNL     1      -6.752   1.989  -2.685  0.00  0.00    -0.189 NA
ATOM     29  C   UNL     1      -7.884   1.386  -2.452  0.00  0.00    +0.130 C 
BRANCH  29  30
ATOM     30  C   UNL     1      -7.934  -0.029  -2.392  0.00  0.00    +0.022 C 
ATOM     31  C   UNL     1      -9.116  -0.655  -2.209  0.00  0.00    +0.009 C 
BRANCH  31  32
ATOM     32  C   UNL     1     -10.321   0.127  -1.893  0.00  0.00    -0.025 A 
ATOM     33  C   UNL     1     -10.224   1.275  -1.098  0.00  0.00    +0.010 A 
ATOM     34  C   UNL     1     -11.355   2.006  -0.808  0.00  0.00    +0.023 A 
ATOM     35  C   UNL     1     -12.593   1.599  -1.295  0.00  0.00    +0.029 A 
ATOM     36  C   UNL     1     -12.694   0.456  -2.081  0.00  0.00    +0.023 A 
ATOM     37  C   UNL     1     -11.568  -0.279  -2.380  0.00  0.00    +0.010 A 
BRANCH  35  38
ATOM     38  N   UNL     1     -13.736   2.340  -0.994  0.00  0.00    -0.336 N 
ATOM     39  C   UNL     1     -15.041   1.913  -1.506  0.00  0.00    +0.129 C 
ATOM     40  C   UNL     1     -13.631   3.545  -0.167  0.00  0.00    +0.129 C 
ENDBRANCH  35  38
ENDBRANCH  31  32
ENDBRANCH  29  30
ENDBRANCH  12  28
TORSDOF 8
