REMARK  Name = ZINC09246573
REMARK  7 active torsions:
REMARK  status: ('A' for Active; 'I' for Inactive)
REMARK    1  A    between atoms: C_1  and  C_2
REMARK    2  A    between atoms: C_6  and  C_24
REMARK    3  A    between atoms: C_16  and  C_17
REMARK    4  A    between atoms: C_24  and  O_26
REMARK    5  A    between atoms: O_26  and  C_27
REMARK    6  A    between atoms: C_27  and  C_29
REMARK    7  A    between atoms: C_27  and  C_30
REMARK                            x       y       z     vdW  Elec       q    Type
REMARK                         _______ _______ _______ _____ _____    ______ ____
ROOT
ATOM      1  C   UNL     1      -2.231   5.333   0.761  0.00  0.00    +0.008 C 
ATOM      2  C   UNL     1      -2.240   3.804   0.810  0.00  0.00    -0.005 C 
ATOM      3  C   UNL     1      -3.625   3.289   0.429  0.00  0.00    +0.041 C 
ATOM      4  C   UNL     1      -3.642   1.789   0.334  0.00  0.00    -0.007 A 
ATOM      5  C   UNL     1      -4.855   1.124   0.464  0.00  0.00    +0.073 A 
ATOM      6  C   UNL     1      -4.844  -0.335   0.352  0.00  0.00    +0.015 A 
ATOM      7  C   UNL     1      -6.017  -1.087   0.467  0.00  0.00    +0.011 A 
ATOM      8  C   UNL     1      -5.961  -2.445   0.354  0.00  0.00    +0.001 A 
ATOM      9  C   UNL     1      -4.749  -3.093   0.124  0.00  0.00    +0.002 A 
ATOM     10  C   UNL     1      -3.588  -2.391   0.008  0.00  0.00    +0.028 A 
ATOM     11  C   UNL     1      -3.607  -0.988   0.120  0.00  0.00    +0.072 A 
ATOM     12  N   UNL     1      -2.488  -0.274   0.012  0.00  0.00    -0.247 NA
ATOM     13  C   UNL     1      -2.471   1.045   0.111  0.00  0.00    +0.072 A 
ATOM     14  C   UNL     1      -1.175   1.749  -0.018  0.00  0.00    -0.021 C 
ATOM     15  C   UNL     1      -0.013   1.076   0.008  0.00  0.00    +0.013 C 
ATOM     16  C   UNL     1      -1.204   3.255  -0.173  0.00  0.00    +0.041 C 
ENDROOT
BRANCH  15  17
ATOM     17  C   UNL     1       1.249   1.772  -0.297  0.00  0.00    -0.025 A 
ATOM     18  C   UNL     1       1.266   2.823  -1.219  0.00  0.00    +0.008 A 
ATOM     19  C   UNL     1       2.450   3.474  -1.495  0.00  0.00    +0.001 A 
ATOM     20  C   UNL     1       3.621   3.082  -0.871  0.00  0.00    +0.000 A 
ATOM     21  C   UNL     1       3.614   2.039   0.038  0.00  0.00    +0.001 A 
ATOM     22  C   UNL     1       2.436   1.382   0.329  0.00  0.00    +0.008 A 
ENDBRANCH  15  17
BRANCH   5  23
ATOM     23  C   UNL     1      -6.112   1.863   0.707  0.00  0.00    +0.341 C 
ATOM     24  O   UNL     1      -6.473   2.088   1.844  0.00  0.00    -0.245 OA
BRANCH  23  25
ATOM     25  O   UNL     1      -6.856   2.287  -0.333  0.00  0.00    -0.449 OA
BRANCH  25  26
ATOM     26  C   UNL     1      -8.078   3.006  -0.019  0.00  0.00    +0.259 C 
ATOM     27  C   UNL     1      -7.777   4.503   0.076  0.00  0.00    +0.062 C 
BRANCH  26  28
ATOM     28  C   UNL     1      -9.095   2.766  -1.105  0.00  0.00    +0.261 C 
ATOM     29  O   UNL     1      -8.818   2.058  -2.050  0.00  0.00    -0.271 OA
ATOM     30  N   UNL     1     -10.313   3.337  -1.026  0.00  0.00    -0.237 N 
ATOM     31  C   UNL     1     -11.222   3.123  -1.997  0.00  0.00    +0.303 C 
ATOM     32  O   UNL     1     -10.944   2.413  -2.944  0.00  0.00    -0.253 OA
ATOM     33  N   UNL     1     -12.440   3.694  -1.918  0.00  0.00    -0.313 N 
ATOM     34  H   UNL     1     -10.534   3.904  -0.270  0.00  0.00    +0.159 HD
ATOM     35  H   UNL     1     -12.662   4.261  -1.162  0.00  0.00    +0.146 HD
ATOM     36  H   UNL     1     -13.095   3.540  -2.616  0.00  0.00    +0.146 HD
ENDBRANCH  26  28
ENDBRANCH  25  26
ENDBRANCH  23  25
ENDBRANCH   5  23
TORSDOF 5
