REMARK  Name = ZINC64040375
REMARK  14 active torsions:
REMARK  status: ('A' for Active; 'I' for Inactive)
REMARK    1  A    between atoms: C_1  and  C_2
REMARK    2  A    between atoms: C_2  and  C_3
REMARK    3  A    between atoms: C_2  and  C_4
REMARK    4  A    between atoms: C_4  and  C_5
REMARK    5  A    between atoms: C_5  and  N_6
REMARK    6  A    between atoms: C_7  and  C_9
REMARK    7  A    between atoms: N_11  and  C_30
REMARK    8  A    between atoms: C_13  and  C_16
REMARK    9  A    between atoms: N_18  and  C_19
REMARK   10  A    between atoms: C_19  and  C_20
REMARK   11  A    between atoms: C_20  and  C_21
REMARK   12  A    between atoms: C_30  and  C_31
REMARK   13  A    between atoms: C_31  and  C_32
REMARK   14  A    between atoms: C_31  and  C_33
REMARK                            x       y       z     vdW  Elec       q    Type
REMARK                         _______ _______ _______ _____ _____    ______ ____
ROOT
ATOM      1  C   UNL     1       0.807  -0.971   6.096  0.00  0.00    +0.100 A 
ATOM      2  C   UNL     1       0.252  -0.829   7.349  0.00  0.00    +0.102 A 
ATOM      3  N   UNL     1       0.844  -1.345   8.440  0.00  0.00    -0.351 N 
ATOM      4  C   UNL     1       2.000  -2.027   8.400  0.00  0.00    +0.102 A 
ATOM      5  C   UNL     1       2.665  -2.244   7.213  0.00  0.00    +0.100 A 
ATOM      6  C   UNL     1       2.073  -1.713   5.973  0.00  0.00    +0.206 A 
ATOM      7  O   UNL     1       2.611  -1.877   4.891  0.00  0.00    -0.286 OA
ENDROOT
BRANCH   1   9
ATOM      8  N   UNL     1       0.645  -0.644   3.680  0.00  0.00    -0.311 N 
ATOM      9  C   UNL     1       0.148  -0.400   4.909  0.00  0.00    +0.249 C 
ATOM     10  O   UNL     1      -0.844   0.291   5.038  0.00  0.00    -0.270 OA
ATOM     11  H   UNL     1       1.477  -1.132   3.582  0.00  0.00    +0.149 HD
BRANCH   8  12
ATOM     12  C   UNL     1      -0.072  -0.171   2.494  0.00  0.00    +0.105 C 
BRANCH  12  13
ATOM     13  C   UNL     1       0.699  -0.576   1.236  0.00  0.00    +0.022 C 
BRANCH  13  15
ATOM     14  C   UNL     1      -0.066   1.448  -0.013  0.00  0.00    +0.007 C 
ATOM     15  C   UNL     1      -0.050  -0.082  -0.003  0.00  0.00    -0.016 C 
ATOM     16  C   UNL     1       0.654  -0.593  -1.262  0.00  0.00    +0.007 C 
ENDBRANCH  13  15
ENDBRANCH  12  13
ENDBRANCH   8  12
ENDBRANCH   1   9
BRANCH   5  17
ATOM     17  C   UNL     1       3.933  -2.993   7.184  0.00  0.00    +0.249 C 
ATOM     18  O   UNL     1       4.353  -3.517   8.198  0.00  0.00    -0.270 OA
ATOM     19  N   UNL     1       4.628  -3.098   6.034  0.00  0.00    -0.311 N 
ATOM     20  H   UNL     1       4.258  -2.744   5.210  0.00  0.00    +0.149 HD
BRANCH  19  21
ATOM     21  C   UNL     1       5.941  -3.746   6.028  0.00  0.00    +0.108 C 
BRANCH  21  22
ATOM     22  C   UNL     1       6.510  -3.733   4.607  0.00  0.00    +0.065 C 
BRANCH  22  23
ATOM     23  C   UNL     1       7.882  -4.410   4.601  0.00  0.00    +0.175 C 
ATOM     24  N   UNL     1       8.822  -3.653   5.439  0.00  0.00    -0.363 N 
ATOM     25  C   UNL     1       9.797  -3.259   4.672  0.00  0.00    +0.060 A 
ATOM     26  C   UNL     1      11.015  -2.477   4.928  0.00  0.00    +0.027 A 
ATOM     27  C   UNL     1      11.864  -2.217   3.913  0.00  0.00    +0.002 A 
ATOM     28  C   UNL     1      11.636  -2.666   2.600  0.00  0.00    +0.002 A 
ATOM     29  C   UNL     1      10.551  -3.390   2.258  0.00  0.00    +0.027 A 
ATOM     30  C   UNL     1       9.556  -3.735   3.283  0.00  0.00    +0.060 A 
ATOM     31  N   UNL     1       8.441  -4.404   3.244  0.00  0.00    -0.363 N 
ATOM     32  H   UNL     1       8.731  -3.478   6.388  0.00  0.00    +0.162 HD
ATOM     33  H   UNL     1       8.050  -4.824   2.461  0.00  0.00    +0.162 HD
ENDBRANCH  22  23
ENDBRANCH  21  22
ENDBRANCH  19  21
ENDBRANCH   5  17
BRANCH   3  34
ATOM     34  C   UNL     1       0.194  -1.153   9.739  0.00  0.00    +0.124 C 
BRANCH  34  35
ATOM     35  C   UNL     1      -0.764  -2.315  10.007  0.00  0.00    +0.003 C 
ATOM     36  C   UNL     1       0.035  -3.614  10.141  0.00  0.00    +0.009 C 
ATOM     37  C   UNL     1      -1.533  -2.053  11.303  0.00  0.00    +0.009 C 
ENDBRANCH  34  35
ENDBRANCH   3  34
TORSDOF 10
