REMARK  Name = ZINC11566818
REMARK  6 active torsions:
REMARK  status: ('A' for Active; 'I' for Inactive)
REMARK    1  A    between atoms: C_1  and  C_2
REMARK    2  A    between atoms: C_5  and  N_8
REMARK    3  A    between atoms: C_9  and  N_23
REMARK    4  A    between atoms: C_10  and  C_17
REMARK    5  A    between atoms: C_17  and  C_19
REMARK    6  A    between atoms: C_19  and  C_21
REMARK                            x       y       z     vdW  Elec       q    Type
REMARK                         _______ _______ _______ _____ _____    ______ ____
ROOT
ATOM      1  N   UNL     1      -2.846   0.654  -0.595  0.00  0.00    -0.250 N 
ATOM      2  C   UNL     1      -3.743   1.601  -0.181  0.00  0.00    +0.121 A 
ATOM      3  C   UNL     1      -4.999   1.186   0.292  0.00  0.00    +0.121 A 
ATOM      4  C   UNL     1      -5.282  -0.255   0.316  0.00  0.00    +0.266 A 
ATOM      5  O   UNL     1      -6.354  -0.671   0.717  0.00  0.00    -0.267 OA
ATOM      6  N   UNL     1      -4.330  -1.108  -0.114  0.00  0.00    -0.274 N 
ATOM      7  H   UNL     1      -4.506  -2.092  -0.100  0.00  0.00    +0.173 HD
ATOM      8  C   UNL     1      -3.148  -0.653  -0.562  0.00  0.00    +0.335 A 
ATOM      9  O   UNL     1      -2.320  -1.455  -0.946  0.00  0.00    -0.246 OA
ENDROOT
BRANCH   1  14
ATOM     10  C   UNL     1       2.236   2.299  -2.512  0.00  0.00    +0.044 C 
ATOM     11  C   UNL     1       0.887   1.859  -2.004  0.00  0.00    -0.050 A 
ATOM     12  C   UNL     1      -0.188   1.790  -2.871  0.00  0.00    +0.005 A 
ATOM     13  C   UNL     1      -1.426   1.388  -2.408  0.00  0.00    +0.026 A 
ATOM     14  C   UNL     1      -1.591   1.058  -1.069  0.00  0.00    +0.053 A 
ATOM     15  C   UNL     1      -0.508   1.122  -0.203  0.00  0.00    +0.026 A 
ATOM     16  C   UNL     1       0.727   1.526  -0.671  0.00  0.00    +0.005 A 
ENDBRANCH   1  14
BRANCH   2  17
ATOM     17  N   UNL     1      -3.423   2.923  -0.227  0.00  0.00    -0.343 N 
ATOM     18  H   UNL     1      -2.523   3.196  -0.467  0.00  0.00    +0.144 HD
ATOM     19  H   UNL     1      -4.094   3.592  -0.020  0.00  0.00    +0.144 HD
ENDBRANCH   2  17
BRANCH   3  20
ATOM     20  C   UNL     1      -5.958   2.124   0.730  0.00  0.00    +0.189 C 
ATOM     21  O   UNL     1      -6.802   2.535  -0.041  0.00  0.00    -0.290 OA
BRANCH  20  22
ATOM     22  C   UNL     1      -5.936   2.615   2.155  0.00  0.00    +0.149 C 
ATOM     23  C   UNL     1      -6.748   1.662   3.035  0.00  0.00    +0.033 C 
ATOM     24 CL   UNL     1      -4.233   2.674   2.744  0.00  0.00    -0.114 Cl
ENDBRANCH  20  22
ENDBRANCH   3  20
TORSDOF 4
