REMARK  Name = ZINC12033630
REMARK  6 active torsions:
REMARK  status: ('A' for Active; 'I' for Inactive)
REMARK    1  A    between atoms: C_5  and  C_6
REMARK    2  A    between atoms: N_8  and  C_9
REMARK    3  A    between atoms: C_10  and  N_28
REMARK    4  A    between atoms: C_12  and  S_17
REMARK    5  A    between atoms: S_17  and  C_18
REMARK    6  A    between atoms: C_18  and  C_19
REMARK                            x       y       z     vdW  Elec       q    Type
REMARK                         _______ _______ _______ _____ _____    ______ ____
ROOT
ATOM      1  C   UNL     1      -3.608   1.710   8.149  0.00  0.00    +0.139 A 
ATOM      2  C   UNL     1      -3.331   2.396   6.971  0.00  0.00    +0.146 A 
ATOM      3  N   UNL     1      -2.700   1.769   5.972  0.00  0.00    -0.207 NA
ATOM      4  C   UNL     1      -2.342   0.506   6.076  0.00  0.00    +0.171 A 
ATOM      5  N   UNL     1      -2.589  -0.211   7.208  0.00  0.00    -0.300 N 
ATOM      6  H   UNL     1      -2.312  -1.139   7.262  0.00  0.00    +0.171 HD
ATOM      7  C   UNL     1      -3.218   0.366   8.253  0.00  0.00    +0.275 A 
ATOM      8  O   UNL     1      -3.443  -0.270   9.271  0.00  0.00    -0.266 OA
ENDROOT
BRANCH   1  11
ATOM      9  C   UNL     1      -5.442   1.872   9.668  0.00  0.00    +0.284 C 
ATOM     10  O   UNL     1      -5.893   0.837   9.213  0.00  0.00    -0.266 OA
ATOM     11  N   UNL     1      -4.266   2.351   9.216  0.00  0.00    -0.272 N 
ATOM     12  H   UNL     1      -3.873   3.138   9.626  0.00  0.00    +0.155 HD
BRANCH   9  17
ATOM     13  C   UNL     1      -7.376   2.228  11.249  0.00  0.00    +0.056 A 
ATOM     14  C   UNL     1      -7.706   3.202  12.203  0.00  0.00    +0.058 A 
ATOM     15  C   UNL     1      -6.711   4.118  12.197  0.00  0.00    +0.171 A 
ATOM     16  O   UNL     1      -5.792   3.749  11.295  0.00  0.00    -0.444 OA
ATOM     17  C   UNL     1      -6.178   2.597  10.708  0.00  0.00    +0.191 A 
ATOM     18 BR   UNL     1      -6.630   5.663  13.284  0.00  0.00    -0.008 Br
ENDBRANCH   9  17
ENDBRANCH   1  11
BRANCH   2  19
ATOM     19  N   UNL     1      -3.702   3.721   6.835  0.00  0.00    -0.341 N 
ATOM     20  H   UNL     1      -4.157   4.174   7.563  0.00  0.00    +0.144 HD
ATOM     21  H   UNL     1      -3.508   4.197   6.013  0.00  0.00    +0.144 HD
ENDBRANCH   2  19
BRANCH   4  22
ATOM     22  S   UNL     1      -1.520  -0.271   4.726  0.00  0.00    -0.078 S 
BRANCH  22  23
ATOM     23  C   UNL     1      -1.469   1.107   3.553  0.00  0.00    +0.173 C 
BRANCH  23  24
ATOM     24  C   UNL     1      -0.789   0.662   2.284  0.00  0.00    +0.226 C 
ATOM     25  O   UNL     1      -0.379  -0.475   2.182  0.00  0.00    -0.275 OA
ATOM     26  N   UNL     1      -0.637   1.527   1.262  0.00  0.00    -0.301 N 
ATOM     27  C   UNL     1       0.034   1.060   0.033  0.00  0.00    +0.108 C 
ATOM     28  C   UNL     1      -0.675   1.560  -1.238  0.00  0.00    +0.019 C 
ATOM     29  C   UNL     1      -2.172   1.484  -1.061  0.00  0.00    +0.002 C 
ATOM     30  C   UNL     1      -2.684   2.813  -0.517  0.00  0.00    +0.002 C 
ATOM     31  C   UNL     1      -2.609   2.939   0.947  0.00  0.00    +0.019 C 
ATOM     32  C   UNL     1      -1.135   2.875   1.417  0.00  0.00    +0.108 C 
ENDBRANCH  23  24
ENDBRANCH  22  23
ENDBRANCH   4  22
TORSDOF 6
