REMARK  Name = ZINC36643438
REMARK  12 active torsions:
REMARK  status: ('A' for Active; 'I' for Inactive)
REMARK    1  A    between atoms: C_1  and  C_2
REMARK    2  A    between atoms: N_5  and  S_8
REMARK    3  A    between atoms: S_8  and  C_11
REMARK    4  A    between atoms: C_14  and  C_17
REMARK    5  A    between atoms: N_19  and  C_20
REMARK    6  A    between atoms: C_20  and  C_21
REMARK    7  A    between atoms: C_21  and  C_22
REMARK    8  A    between atoms: C_22  and  N_23
REMARK    9  A    between atoms: N_23  and  C_24
REMARK   10  A    between atoms: N_23  and  C_25
REMARK   11  A    between atoms: C_29  and  O_35
REMARK   12  A    between atoms: O_35  and  C_36
REMARK                            x       y       z     vdW  Elec       q    Type
REMARK                         _______ _______ _______ _____ _____    ______ ____
ROOT
ATOM      1  C   UNL     1       0.087  -8.703   0.060  0.00  0.00    +0.252 C 
ATOM      2  O   UNL     1      -0.874  -9.140  -0.543  0.00  0.00    -0.270 OA
ATOM      3  N   UNL     1       1.163  -9.487   0.273  0.00  0.00    -0.246 N 
ATOM      4  C   UNL     1       1.226 -10.747  -0.298  0.00  0.00    +0.168 A 
ATOM      5  N   UNL     1       0.351 -11.344  -1.072  0.00  0.00    -0.221 NA
ATOM      6  C   UNL     1       0.546 -12.588  -1.563  0.00  0.00    +0.122 A 
ATOM      7  C   UNL     1      -0.313 -13.342  -2.403  0.00  0.00    +0.146 A 
ATOM      8  C   UNL     1       0.041 -14.606  -2.813  0.00  0.00    +0.048 A 
ATOM      9  C   UNL     1       1.241 -15.183  -2.425  0.00  0.00    +0.005 A 
ATOM     10  C   UNL     1       2.101 -14.474  -1.607  0.00  0.00    +0.017 A 
ATOM     11  C   UNL     1       1.757 -13.211  -1.190  0.00  0.00    +0.044 A 
ATOM     12  S   UNL     1       2.524 -11.970  -0.176  0.00  0.00    -0.052 S 
ENDROOT
BRANCH   1  16
ATOM     13  C   UNL     1       0.051  -4.707   1.498  0.00  0.00    +0.106 A 
ATOM     14  C   UNL     1      -0.372  -4.979   0.209  0.00  0.00    +0.029 A 
ATOM     15  C   UNL     1      -0.363  -6.275  -0.264  0.00  0.00    +0.015 A 
ATOM     16  C   UNL     1       0.075  -7.313   0.560  0.00  0.00    +0.037 A 
ATOM     17  C   UNL     1       0.501  -7.031   1.860  0.00  0.00    +0.015 A 
ATOM     18  C   UNL     1       0.492  -5.730   2.319  0.00  0.00    +0.029 A 
BRANCH  13  19
ATOM     19  S   UNL     1       0.036  -3.049   2.094  0.00  0.00    +0.061 S 
ATOM     20  O   UNL     1      -0.030  -3.128   3.512  0.00  0.00    -0.153 OA
ATOM     21  O   UNL     1      -0.932  -2.349   1.324  0.00  0.00    -0.153 OA
BRANCH  19  26
ATOM     22  C   UNL     1       4.101   0.988   1.855  0.00  0.00    +0.007 C 
ATOM     23  C   UNL     1       3.526  -0.406   1.597  0.00  0.00    -0.012 C 
ATOM     24  C   UNL     1       2.267  -0.286   0.735  0.00  0.00    +0.020 C 
ATOM     25  C   UNL     1       1.713  -1.686   0.449  0.00  0.00    +0.110 C 
ATOM     26  N   UNL     1       1.506  -2.382   1.726  0.00  0.00    -0.177 NA
ATOM     27  C   UNL     1       2.628  -2.476   2.670  0.00  0.00    +0.110 C 
ATOM     28  C   UNL     1       3.172  -1.067   2.930  0.00  0.00    +0.020 C 
ENDBRANCH  19  26
ENDBRANCH  13  19
ENDBRANCH   1  16
BRANCH   7  29
ATOM     29  O   UNL     1      -1.498 -12.811  -2.805  0.00  0.00    -0.493 OA
ATOM     30  C   UNL     1      -2.318 -13.621  -3.650  0.00  0.00    +0.277 C 
ENDBRANCH   7  29
BRANCH   3  31
ATOM     31  C   UNL     1       2.265  -9.005   1.109  0.00  0.00    +0.114 C 
BRANCH  31  32
ATOM     32  C   UNL     1       2.116  -9.568   2.524  0.00  0.00    +0.001 C 
BRANCH  32  33
ATOM     33  C   UNL     1       3.188  -8.960   3.431  0.00  0.00    -0.078 C 
BRANCH  33  34
ATOM     34  N   UNL     1       3.044  -9.499   4.789  0.00  0.00    +0.376 N 
ATOM     35  C   UNL     1       3.320 -10.942   4.775  0.00  0.00    -0.097 C 
ATOM     36  C   UNL     1       3.994  -8.828   5.686  0.00  0.00    -0.097 C 
ATOM     37  H   UNL     1       2.103  -9.340   5.117  0.00  0.00    -0.083 HD
ENDBRANCH  33  34
ENDBRANCH  32  33
ENDBRANCH  31  32
ENDBRANCH   3  31
TORSDOF 8
