REMARK  Name = ZINC00861307
REMARK  11 active torsions:
REMARK  status: ('A' for Active; 'I' for Inactive)
REMARK    1  A    between atoms: C_1  and  C_2
REMARK    2  A    between atoms: C_3  and  C_31
REMARK    3  A    between atoms: C_4  and  C_21
REMARK    4  A    between atoms: C_10  and  C_15
REMARK    5  A    between atoms: C_23  and  O_29
REMARK    6  A    between atoms: C_24  and  O_28
REMARK    7  A    between atoms: O_29  and  C_30
REMARK    8  A    between atoms: C_31  and  O_33
REMARK    9  A    between atoms: O_33  and  C_34
REMARK   10  A    between atoms: C_34  and  C_35
REMARK   11  A    between atoms: C_35  and  C_36
REMARK                            x       y       z     vdW  Elec       q    Type
REMARK                         _______ _______ _______ _____ _____    ______ ____
ROOT
ATOM      1  C   UNL     1      -0.018   1.503   0.010  0.00  0.00    +0.061 C 
ATOM      2  C   UNL     1       0.002  -0.004   0.002  0.00  0.00    +0.016 C 
ATOM      3  C   UNL     1      -1.155  -0.688   0.004  0.00  0.00    +0.065 C 
ATOM      4  C   UNL     1      -1.174  -2.188  -0.014  0.00  0.00    +0.092 C 
ATOM      5  C   UNL     1       0.164  -2.751   0.395  0.00  0.00    +0.024 C 
ATOM      6  C   UNL     1       1.271  -1.978   0.381  0.00  0.00    +0.016 C 
ATOM      7  N   UNL     1       1.198  -0.667  -0.013  0.00  0.00    -0.321 N 
ATOM      8  C   UNL     1       2.612  -2.532   0.794  0.00  0.00    +0.059 C 
ATOM      9  C   UNL     1       2.675  -4.025   0.462  0.00  0.00    +0.032 C 
ATOM     10  C   UNL     1       1.529  -4.734   1.190  0.00  0.00    +0.088 C 
ATOM     11  C   UNL     1       0.226  -4.099   0.788  0.00  0.00    +0.162 C 
ATOM     12  O   UNL     1      -0.791  -4.764   0.802  0.00  0.00    -0.292 OA
ATOM     13  H   UNL     1       2.000  -0.204  -0.301  0.00  0.00    +0.152 HD
ENDROOT
BRANCH   4  14
ATOM     14  C   UNL     1      -1.505  -2.662  -1.405  0.00  0.00    -0.030 A 
ATOM     15  C   UNL     1      -2.632  -3.434  -1.621  0.00  0.00    +0.054 A 
ATOM     16  C   UNL     1      -2.938  -3.872  -2.899  0.00  0.00    +0.163 A 
ATOM     17  C   UNL     1      -2.110  -3.533  -3.965  0.00  0.00    +0.177 A 
ATOM     18  C   UNL     1      -0.982  -2.759  -3.742  0.00  0.00    +0.086 A 
ATOM     19  C   UNL     1      -0.685  -2.321  -2.463  0.00  0.00    +0.028 A 
ATOM     20 CL   UNL     1       0.056  -2.334  -5.068  0.00  0.00    -0.080 Cl
BRANCH  17  21
ATOM     21  O   UNL     1      -2.406  -3.961  -5.221  0.00  0.00    -0.502 OA
ATOM     22  H   UNL     1      -2.967  -3.353  -5.722  0.00  0.00    +0.292 HD
ENDBRANCH  17  21
BRANCH  16  23
ATOM     23  O   UNL     1      -4.046  -4.631  -3.112  0.00  0.00    -0.491 OA
ATOM     24  C   UNL     1      -4.850  -4.940  -1.972  0.00  0.00    +0.277 C 
ENDBRANCH  16  23
ENDBRANCH   4  14
BRANCH   9  25
ATOM     25  C   UNL     1       3.997  -4.589   0.917  0.00  0.00    -0.044 A 
ATOM     26  C   UNL     1       4.347  -4.537   2.253  0.00  0.00    +0.004 A 
ATOM     27  C   UNL     1       5.559  -5.054   2.670  0.00  0.00    +0.000 A 
ATOM     28  C   UNL     1       6.420  -5.625   1.752  0.00  0.00    +0.000 A 
ATOM     29  C   UNL     1       6.069  -5.678   0.416  0.00  0.00    +0.000 A 
ATOM     30  C   UNL     1       4.856  -5.164  -0.001  0.00  0.00    +0.004 A 
ENDBRANCH   9  25
BRANCH   3  31
ATOM     31  C   UNL     1      -2.379   0.021   0.023  0.00  0.00    +0.338 C 
ATOM     32  O   UNL     1      -2.378   1.238   0.038  0.00  0.00    -0.245 OA
BRANCH  31  33
ATOM     33  O   UNL     1      -3.549  -0.652   0.025  0.00  0.00    -0.461 OA
BRANCH  33  34
ATOM     34  C   UNL     1      -4.746   0.127   0.045  0.00  0.00    +0.237 C 
BRANCH  34  35
ATOM     35  C   UNL     1      -5.961  -0.803   0.044  0.00  0.00    +0.076 C 
BRANCH  35  36
ATOM     36  C   UNL     1      -7.224   0.019   0.065  0.00  0.00    -0.044 A 
ATOM     37  C   UNL     1      -7.789   0.387   1.272  0.00  0.00    +0.004 A 
ATOM     38  C   UNL     1      -8.947   1.141   1.291  0.00  0.00    +0.000 A 
ATOM     39  C   UNL     1      -9.540   1.528   0.104  0.00  0.00    +0.000 A 
ATOM     40  C   UNL     1      -8.974   1.161  -1.103  0.00  0.00    +0.000 A 
ATOM     41  C   UNL     1      -7.813   0.411  -1.122  0.00  0.00    +0.004 A 
ENDBRANCH  35  36
ENDBRANCH  34  35
ENDBRANCH  33  34
ENDBRANCH  31  33
ENDBRANCH   3  31
TORSDOF 9
