REMARK  Name = ZINC39684116
REMARK  6 active torsions:
REMARK  status: ('A' for Active; 'I' for Inactive)
REMARK    1  A    between atoms: C_1  and  C_2
REMARK    2  A    between atoms: C_7  and  C_11
REMARK    3  A    between atoms: C_11  and  C_12
REMARK    4  A    between atoms: C_12  and  N_13
REMARK    5  A    between atoms: C_14  and  C_16
REMARK    6  A    between atoms: C_27  and  C_29
REMARK                            x       y       z     vdW  Elec       q    Type
REMARK                         _______ _______ _______ _____ _____    ______ ____
ROOT
ATOM      1  C   UNL     1      -9.142   2.159  -6.491  0.00  0.00    +0.100 C 
ATOM      2  C   UNL     1      -8.328   3.156  -7.345  0.00  0.00    +0.121 C 
ATOM      3  N   UNL     1      -7.939   2.386  -8.550  0.00  0.00    -0.296 N 
ATOM      4  C   UNL     1      -9.134   1.569  -8.867  0.00  0.00    +0.115 C 
ATOM      5  C   UNL     1      -9.673   1.121  -7.494  0.00  0.00    -0.004 C 
ATOM      6  C   UNL     1     -11.199   1.123  -7.499  0.00  0.00    -0.010 C 
ATOM      7  C   UNL     1     -11.703   0.043  -8.460  0.00  0.00    -0.082 C 
ATOM      8  N   UNL     1     -11.196  -1.268  -8.036  0.00  0.00    +0.379 N 
ATOM      9  C   UNL     1      -9.731  -1.291  -8.123  0.00  0.00    -0.082 C 
ATOM     10  C   UNL     1      -9.144  -0.267  -7.147  0.00  0.00    -0.010 C 
ATOM     11  C   UNL     1      -6.763   2.421  -9.208  0.00  0.00    +0.247 C 
ATOM     12  O   UNL     1      -5.829   3.051  -8.752  0.00  0.00    -0.270 OA
ATOM     13  H   UNL     1     -11.478  -1.443  -7.083  0.00  0.00    -0.086 HD
ATOM     14  H   UNL     1     -11.579  -1.984  -8.634  0.00  0.00    -0.086 HD
ENDROOT
BRANCH  11  15
ATOM     15  C   UNL     1      -6.610   1.694 -10.486  0.00  0.00    +0.037 A 
ATOM     16  C   UNL     1      -7.737   1.344 -11.232  0.00  0.00    +0.014 A 
ATOM     17  C   UNL     1      -7.588   0.665 -12.424  0.00  0.00    +0.016 A 
ATOM     18  C   UNL     1      -6.323   0.331 -12.880  0.00  0.00    +0.018 A 
ATOM     19  C   UNL     1      -5.202   0.676 -12.144  0.00  0.00    +0.016 A 
ATOM     20  C   UNL     1      -5.338   1.360 -10.954  0.00  0.00    +0.014 A 
ATOM     21 BR   UNL     1      -6.128  -0.600 -14.514  0.00  0.00    -0.050 Br
ENDBRANCH  11  15
BRANCH   1  23
ATOM     22  N   UNL     1      -8.790   0.979  -4.346  0.00  0.00    -0.315 N 
ATOM     23  C   UNL     1      -8.255   1.496  -5.469  0.00  0.00    +0.218 C 
ATOM     24  O   UNL     1      -7.059   1.427  -5.659  0.00  0.00    -0.275 OA
ATOM     25  H   UNL     1      -9.746   1.034  -4.194  0.00  0.00    +0.149 HD
BRANCH  22  26
ATOM     26  C   UNL     1      -7.927   0.334  -3.353  0.00  0.00    +0.109 C 
BRANCH  26  27
ATOM     27  C   UNL     1      -8.778  -0.163  -2.183  0.00  0.00    +0.056 C 
BRANCH  27  34
ATOM     28  C   UNL     1      -4.934  -1.925   2.447  0.00  0.00    +0.046 C 
ATOM     29  C   UNL     1      -5.671  -0.848   1.694  0.00  0.00    -0.027 A 
ATOM     30  C   UNL     1      -5.556   0.469   2.081  0.00  0.00    +0.005 A 
ATOM     31  C   UNL     1      -6.230   1.470   1.396  0.00  0.00    +0.001 A 
ATOM     32  C   UNL     1      -7.020   1.166   0.323  0.00  0.00    +0.010 A 
ATOM     33  C   UNL     1      -7.151  -0.161  -0.087  0.00  0.00    +0.003 A 
ATOM     34  C   UNL     1      -7.891  -0.827  -1.162  0.00  0.00    -0.021 A 
ATOM     35  C   UNL     1      -7.629  -2.140  -1.064  0.00  0.00    +0.087 A 
ATOM     36  N   UNL     1      -6.782  -2.370  -0.015  0.00  0.00    -0.360 N 
ATOM     37  C   UNL     1      -6.465  -1.180   0.601  0.00  0.00    +0.050 A 
ATOM     38  H   UNL     1      -6.450  -3.241   0.253  0.00  0.00    +0.165 HD
ENDBRANCH  27  34
ENDBRANCH  26  27
ENDBRANCH  22  26
ENDBRANCH   1  23
TORSDOF 5
