REMARK  Name = ZINC09970891
REMARK  11 active torsions:
REMARK  status: ('A' for Active; 'I' for Inactive)
REMARK    1  A    between atoms: C_1  and  C_2
REMARK    2  A    between atoms: C_2  and  O_3
REMARK    3  A    between atoms: O_3  and  C_4
REMARK    4  A    between atoms: C_4  and  C_6
REMARK    5  A    between atoms: C_7  and  C_30
REMARK    6  A    between atoms: C_8  and  C_29
REMARK    7  A    between atoms: C_10  and  N_11
REMARK    8  A    between atoms: C_12  and  C_14
REMARK    9  A    between atoms: C_14  and  N_15
REMARK   10  A    between atoms: C_22  and  C_28
REMARK   11  A    between atoms: C_23  and  C_25
REMARK                            x       y       z     vdW  Elec       q    Type
REMARK                         _______ _______ _______ _____ _____    ______ ____
ROOT
ATOM      1  C   UNL     1       3.164  -3.842  -0.049  0.00  0.00    +0.222 C 
ENDROOT
BRANCH   1   2
ATOM      2  N   UNL     1       4.618  -4.020  -0.064  0.00  0.00    -0.290 N 
ATOM      3  C   UNL     1       5.265  -4.099  -1.252  0.00  0.00    +0.203 A 
ATOM      4  N   UNL     1       6.559  -4.253  -1.325  0.00  0.00    -0.230 NA
ATOM      5  C   UNL     1       7.310  -4.349  -0.235  0.00  0.00    +0.116 A 
ATOM      6  C   UNL     1       6.753  -4.286   1.063  0.00  0.00    +0.076 A 
ATOM      7  C   UNL     1       5.284  -4.106   1.104  0.00  0.00    +0.263 A 
ATOM      8  O   UNL     1       4.693  -4.038   2.167  0.00  0.00    -0.267 OA
ATOM      9  C   UNL     1       7.659  -4.402   2.120  0.00  0.00    -0.017 A 
ATOM     10  C   UNL     1       8.988  -4.564   1.860  0.00  0.00    +0.079 A 
ATOM     11  S   UNL     1       9.045  -4.564   0.076  0.00  0.00    -0.064 S 
ATOM     12  C   UNL     1       7.169  -4.347   3.544  0.00  0.00    +0.046 C 
BRANCH  10  13
ATOM     13  C   UNL     1      10.096  -4.703   2.811  0.00  0.00    +0.248 C 
ATOM     14  O   UNL     1       9.877  -4.681   4.008  0.00  0.00    -0.270 OA
ATOM     15  N   UNL     1      11.357  -4.856   2.359  0.00  0.00    -0.325 N 
ATOM     16  H   UNL     1      11.531  -4.874   1.405  0.00  0.00    +0.145 HD
ATOM     17  H   UNL     1      12.089  -4.948   2.988  0.00  0.00    +0.145 HD
ENDBRANCH  10  13
ENDBRANCH   1   2
BRANCH   1  19
ATOM     18  N   UNL     1       1.553  -1.965  -0.023  0.00  0.00    -0.278 N 
ATOM     19  C   UNL     1       2.838  -2.370  -0.038  0.00  0.00    +0.238 C 
ATOM     20  O   UNL     1       3.732  -1.551  -0.042  0.00  0.00    -0.273 OA
ATOM     21  H   UNL     1       0.838  -2.620  -0.020  0.00  0.00    +0.155 HD
BRANCH  18  26
ATOM     22  C   UNL     1       0.002  -0.004   0.002  0.00  0.00    +0.091 A 
ATOM     23  C   UNL     1      -0.018   1.440   0.010  0.00  0.00    -0.025 A 
ATOM     24  C   UNL     1       1.170   2.070   0.002  0.00  0.00    -0.008 A 
ATOM     25  S   UNL     1       2.345   0.732  -0.016  0.00  0.00    -0.078 S 
ATOM     26  C   UNL     1       1.253  -0.612  -0.013  0.00  0.00    +0.086 A 
ATOM     27  C   UNL     1       1.442   3.552   0.007  0.00  0.00    +0.052 C 
ATOM     28  C   UNL     1      -1.314   2.208   0.020  0.00  0.00    +0.045 C 
BRANCH  22  29
ATOM     29  C   UNL     1      -1.234  -0.789   0.010  0.00  0.00    +0.342 C 
ATOM     30  O   UNL     1      -1.758  -1.110  -1.040  0.00  0.00    -0.245 OA
BRANCH  29  31
ATOM     31  O   UNL     1      -1.791  -1.157   1.182  0.00  0.00    -0.461 OA
BRANCH  31  33
ATOM     32  C   UNL     1      -3.495  -2.256   2.531  0.00  0.00    +0.048 C 
ATOM     33  C   UNL     1      -3.016  -1.935   1.114  0.00  0.00    +0.229 C 
ENDBRANCH  31  33
ENDBRANCH  29  31
ENDBRANCH  22  29
ENDBRANCH  18  26
ENDBRANCH   1  19
TORSDOF 7
