REMARK  Name = ZINC40115483
REMARK  9 active torsions:
REMARK  status: ('A' for Active; 'I' for Inactive)
REMARK    1  A    between atoms: C_1  and  C_2
REMARK    2  A    between atoms: C_2  and  C_3
REMARK    3  A    between atoms: C_2  and  C_4
REMARK    4  A    between atoms: C_4  and  C_6
REMARK    5  A    between atoms: C_4  and  N_11
REMARK    6  A    between atoms: C_12  and  C_14
REMARK    7  A    between atoms: C_16  and  S_20
REMARK    8  A    between atoms: S_20  and  N_23
REMARK    9  A    between atoms: N_23  and  C_24
REMARK                            x       y       z     vdW  Elec       q    Type
REMARK                         _______ _______ _______ _____ _____    ______ ____
ROOT
ATOM      1  C   UNL     1      -3.725   1.492  -2.471  0.00  0.00    +0.104 A 
ATOM      2  C   UNL     1      -4.290   2.746  -2.568  0.00  0.00    +0.061 A 
ATOM      3  C   UNL     1      -4.784   2.874  -3.870  0.00  0.00    +0.126 A 
ATOM      4  C   UNL     1      -4.518   1.722  -4.531  0.00  0.00    +0.112 A 
ATOM      5  N   UNL     1      -3.870   0.876  -3.694  0.00  0.00    -0.355 N 
ATOM      6  H   UNL     1      -3.561  -0.016  -3.918  0.00  0.00    +0.166 HD
ENDROOT
BRANCH   1   8
ATOM      7  N   UNL     1      -2.562  -0.323  -1.330  0.00  0.00    -0.303 N 
ATOM      8  C   UNL     1      -3.081   0.921  -1.284  0.00  0.00    +0.261 C 
ATOM      9  O   UNL     1      -3.015   1.569  -0.256  0.00  0.00    -0.269 OA
ATOM     10  H   UNL     1      -2.615  -0.840  -2.149  0.00  0.00    +0.150 HD
BRANCH   7  11
ATOM     11  C   UNL     1      -1.919  -0.893  -0.144  0.00  0.00    +0.113 C 
BRANCH  11  12
ATOM     12  C   UNL     1      -1.981  -2.397  -0.214  0.00  0.00    +0.010 A 
ATOM     13  C   UNL     1      -2.227  -3.288   0.778  0.00  0.00    +0.013 A 
ATOM     14  C   UNL     1      -2.235  -4.638   0.479  0.00  0.00    +0.008 A 
ATOM     15  C   UNL     1      -1.996  -5.030  -0.796  0.00  0.00    +0.045 A 
ATOM     16  S   UNL     1      -1.756  -3.467  -1.625  0.00  0.00    -0.100 S 
ENDBRANCH  11  12
BRANCH  11  18
ATOM     17  C   UNL     1      -0.396   1.083  -0.020  0.00  0.00    +0.009 C 
ATOM     18  C   UNL     1      -0.458  -0.444  -0.091  0.00  0.00    +0.008 C 
ATOM     19  C   UNL     1       0.214  -1.040   1.148  0.00  0.00    +0.009 C 
ENDBRANCH  11  18
ENDBRANCH   7  11
ENDBRANCH   1   8
BRANCH   3  20
ATOM     20  S   UNL     1      -5.606   4.284  -4.533  0.00  0.00    +0.074 S 
ATOM     21  O   UNL     1      -6.401   3.819  -5.616  0.00  0.00    -0.150 OA
ATOM     22  O   UNL     1      -6.160   4.988  -3.430  0.00  0.00    -0.150 OA
BRANCH  20  23
ATOM     23  N   UNL     1      -4.445   5.266  -5.187  0.00  0.00    -0.213 N 
ATOM     24  H   UNL     1      -4.326   6.168  -4.850  0.00  0.00    +0.174 HD
BRANCH  23  25
ATOM     25  C   UNL     1      -3.634   4.796  -6.225  0.00  0.00    +0.083 A 
ATOM     26  C   UNL     1      -4.157   3.937  -7.182  0.00  0.00    +0.027 A 
ATOM     27  C   UNL     1      -3.354   3.474  -8.207  0.00  0.00    +0.002 A 
ATOM     28  C   UNL     1      -2.030   3.865  -8.280  0.00  0.00    +0.003 A 
ATOM     29  C   UNL     1      -1.504   4.719  -7.329  0.00  0.00    +0.040 A 
ATOM     30  C   UNL     1      -2.303   5.191  -6.304  0.00  0.00    +0.146 A 
ATOM     31  F   UNL     1      -1.791   6.031  -5.378  0.00  0.00    -0.204 F 
ENDBRANCH  23  25
ENDBRANCH  20  23
ENDBRANCH   3  20
TORSDOF 7
