REMARK  Name = ZINC45850823
REMARK  9 active torsions:
REMARK  status: ('A' for Active; 'I' for Inactive)
REMARK    1  A    between atoms: C_1  and  C_2
REMARK    2  A    between atoms: C_3  and  C_27
REMARK    3  A    between atoms: C_4  and  C_26
REMARK    4  A    between atoms: C_7  and  C_8
REMARK    5  A    between atoms: N_10  and  C_11
REMARK    6  A    between atoms: C_11  and  C_13
REMARK    7  A    between atoms: C_11  and  C_20
REMARK    8  A    between atoms: N_24  and  C_25
REMARK    9  A    between atoms: C_27  and  C_29
REMARK                            x       y       z     vdW  Elec       q    Type
REMARK                         _______ _______ _______ _____ _____    ______ ____
ROOT
ATOM      1  C   UNL     1      -0.374  -0.768   2.561  0.00  0.00    +0.261 C 
ATOM      2  O   UNL     1      -0.527   0.363   2.983  0.00  0.00    -0.269 OA
ATOM      3  N   UNL     1      -0.398  -1.814   3.410  0.00  0.00    -0.296 N 
ATOM      4  H   UNL     1      -0.276  -2.715   3.073  0.00  0.00    +0.150 HD
ENDROOT
BRANCH   1  11
ATOM      5  C   UNL     1      -0.274   1.457   0.379  0.00  0.00    +0.047 C 
ATOM      6  C   UNL     1      -0.118  -0.026   0.165  0.00  0.00    -0.010 A 
ATOM      7  C   UNL     1       0.109  -0.680  -1.070  0.00  0.00    +0.041 A 
ATOM      8  C   UNL     1       0.186  -2.038  -0.800  0.00  0.00    +0.024 A 
ATOM      9  N   UNL     1       0.018  -2.217   0.518  0.00  0.00    -0.354 N 
ATOM     10  H   UNL     1       0.028  -3.073   0.974  0.00  0.00    +0.166 HD
ATOM     11  C   UNL     1      -0.164  -0.992   1.125  0.00  0.00    +0.106 A 
ATOM     12  C   UNL     1       0.420  -3.127  -1.815  0.00  0.00    +0.064 C 
BRANCH   7  13
ATOM     13  C   UNL     1       0.237  -0.043  -2.384  0.00  0.00    +0.162 C 
ATOM     14  O   UNL     1      -0.752   0.175  -3.051  0.00  0.00    -0.292 OA
ATOM     15  C   UNL     1       1.598   0.341  -2.906  0.00  0.00    +0.091 C 
ENDBRANCH   7  13
ENDBRANCH   1  11
BRANCH   3  16
ATOM     16  C   UNL     1      -0.609  -1.590   4.842  0.00  0.00    +0.170 C 
BRANCH  16  17
ATOM     17  C   UNL     1      -0.007  -2.730   5.623  0.00  0.00    -0.020 A 
ATOM     18  C   UNL     1      -0.127  -4.026   5.155  0.00  0.00    +0.009 A 
ATOM     19  C   UNL     1       0.425  -5.072   5.870  0.00  0.00    +0.038 A 
ATOM     20  C   UNL     1       1.097  -4.823   7.054  0.00  0.00    +0.123 A 
ATOM     21  C   UNL     1       1.216  -3.525   7.522  0.00  0.00    +0.038 A 
ATOM     22  C   UNL     1       0.668  -2.479   6.803  0.00  0.00    +0.009 A 
ATOM     23  F   UNL     1       1.636  -5.845   7.754  0.00  0.00    -0.205 F 
ENDBRANCH  16  17
BRANCH  16  24
ATOM     24  C   UNL     1      -2.086  -1.510   5.127  0.00  0.00    +0.134 A 
ATOM     25  N   UNL     1      -2.995  -2.322   4.660  0.00  0.00    -0.238 NA
ATOM     26  C   UNL     1      -4.199  -1.951   5.121  0.00  0.00    +0.130 A 
ATOM     27  C   UNL     1      -4.029  -0.867   5.903  0.00  0.00    +0.106 A 
ATOM     28  N   UNL     1      -2.689  -0.591   5.911  0.00  0.00    -0.336 N 
ATOM     29  C   UNL     1      -2.031   0.501   6.633  0.00  0.00    +0.150 C 
ENDBRANCH  16  24
ENDBRANCH   3  16
TORSDOF 5
