REMARK  Name = ZINC08962470
REMARK  3 active torsions:
REMARK  status: ('A' for Active; 'I' for Inactive)
REMARK    1  A    between atoms: C_3  and  S_8
REMARK    2  A    between atoms: S_8  and  N_11
REMARK    3  A    between atoms: N_11  and  C_12
REMARK                            x       y       z     vdW  Elec       q    Type
REMARK                         _______ _______ _______ _____ _____    ______ ____
ROOT
ATOM      1  N   UNL     1       0.024  -0.502   1.581  0.00  0.00    -0.216 N 
ATOM      2  H   UNL     1       0.795  -0.976   1.930  0.00  0.00    +0.174 HD
ENDROOT
BRANCH   1   3
ATOM      3  C   UNL     1      -1.070  -0.239   2.413  0.00  0.00    +0.048 A 
ATOM      4  C   UNL     1      -2.362  -0.461   1.952  0.00  0.00    +0.026 A 
ATOM      5  C   UNL     1      -3.441  -0.201   2.773  0.00  0.00    +0.025 A 
ATOM      6  C   UNL     1      -3.236   0.281   4.058  0.00  0.00    +0.037 A 
ATOM      7  C   UNL     1      -1.945   0.503   4.519  0.00  0.00    -0.024 A 
ATOM      8  C   UNL     1      -0.865   0.238   3.701  0.00  0.00    +0.030 A 
ATOM      9  C   UNL     1      -1.726   1.026   5.914  0.00  0.00    +0.046 C 
ATOM     10  C   UNL     1      -2.863   1.977   6.288  0.00  0.00    +0.101 C 
ATOM     11  C   UNL     1      -4.189   1.341   5.969  0.00  0.00    +0.218 C 
ATOM     12  O   UNL     1      -5.143   1.548   6.690  0.00  0.00    -0.275 OA
ATOM     13  N   UNL     1      -4.329   0.545   4.893  0.00  0.00    -0.285 N 
ATOM     14  H   UNL     1      -5.193   0.152   4.694  0.00  0.00    +0.155 HD
ENDBRANCH   1   3
BRANCH   1  15
ATOM     15  S   UNL     1       0.002  -0.004   0.002  0.00  0.00    +0.072 S 
ATOM     16  O   UNL     1      -1.243  -0.424  -0.539  0.00  0.00    -0.150 OA
ATOM     17  O   UNL     1       1.248  -0.390  -0.563  0.00  0.00    -0.150 OA
BRANCH  15  20
ATOM     18  C   UNL     1       1.148   3.847   0.011  0.00  0.00    +0.003 A 
ATOM     19  C   UNL     1       1.166   2.465   0.004  0.00  0.00    +0.029 A 
ATOM     20  C   UNL     1      -0.022   1.758   0.012  0.00  0.00    +0.110 A 
ATOM     21  C   UNL     1      -1.228   2.432   0.021  0.00  0.00    +0.048 A 
ATOM     22  C   UNL     1      -1.247   3.816   0.033  0.00  0.00    +0.043 A 
ATOM     23  C   UNL     1      -0.058   4.523   0.025  0.00  0.00    +0.020 A 
ATOM     24 CL   UNL     1      -2.762   4.663   0.051  0.00  0.00    -0.083 Cl
ENDBRANCH  15  20
ENDBRANCH   1  15
TORSDOF 3
