REMARK  Name = ZINC22121216
REMARK  5 active torsions:
REMARK  status: ('A' for Active; 'I' for Inactive)
REMARK    1  A    between atoms: C_1  and  C_2
REMARK    2  A    between atoms: C_6  and  S_10
REMARK    3  A    between atoms: C_7  and  C_8
REMARK    4  A    between atoms: S_10  and  C_11
REMARK    5  A    between atoms: C_11  and  C_12
REMARK                            x       y       z     vdW  Elec       q    Type
REMARK                         _______ _______ _______ _____ _____    ______ ____
ROOT
ATOM      1  C   UNL     1      -0.018   1.503   0.010  0.00  0.00    +0.045 C 
ATOM      2  C   UNL     1       0.002  -0.004   0.002  0.00  0.00    -0.026 A 
ATOM      3  C   UNL     1       0.006  -0.705  -1.193  0.00  0.00    -0.022 A 
ATOM      4  C   UNL     1       0.026  -2.088  -1.176  0.00  0.00    +0.046 A 
ATOM      5  N   UNL     1       0.041  -2.749  -0.028  0.00  0.00    -0.244 NA
ATOM      6  C   UNL     1       0.038  -2.130   1.140  0.00  0.00    +0.115 A 
ATOM      7  C   UNL     1       0.023  -0.725   1.200  0.00  0.00    +0.087 A 
ATOM      8  C   UNL     1       0.027  -2.613  -2.598  0.00  0.00    +0.056 C 
ATOM      9  C   UNL     1      -0.435  -1.426  -3.468  0.00  0.00    +0.011 C 
ATOM     10  C   UNL     1      -0.008  -0.208  -2.622  0.00  0.00    +0.037 C 
ENDROOT
BRANCH   7  11
ATOM     11  C   UNL     1       0.026  -0.046   2.462  0.00  0.00    +0.102 C 
ATOM     12  N   UNL     1       0.028   0.491   3.462  0.00  0.00    -0.191 NA
ENDBRANCH   7  11
BRANCH   6  13
ATOM     13  S   UNL     1       0.058  -3.071   2.630  0.00  0.00    -0.095 S 
BRANCH  13  14
ATOM     14  C   UNL     1       0.079  -4.793   2.061  0.00  0.00    +0.172 C 
BRANCH  14  15
ATOM     15  C   UNL     1       0.098  -5.715   3.253  0.00  0.00    +0.231 C 
ATOM     16  O   UNL     1       0.097  -5.256   4.375  0.00  0.00    -0.274 OA
ATOM     17  N   UNL     1       0.116  -7.051   3.071  0.00  0.00    -0.240 N 
ATOM     18  C   UNL     1       0.132  -7.876   4.137  0.00  0.00    +0.303 C 
ATOM     19  O   UNL     1       0.131  -7.415   5.261  0.00  0.00    -0.253 OA
ATOM     20  N   UNL     1       0.150  -9.211   3.955  0.00  0.00    -0.313 N 
ATOM     21  H   UNL     1       0.116  -7.418   2.173  0.00  0.00    +0.159 HD
ATOM     22  H   UNL     1       0.150  -9.578   3.057  0.00  0.00    +0.146 HD
ATOM     23  H   UNL     1       0.162  -9.805   4.722  0.00  0.00    +0.146 HD
ENDBRANCH  14  15
ENDBRANCH  13  14
ENDBRANCH   6  13
TORSDOF 4
