REMARK  Name = ZINC09731169
REMARK  7 active torsions:
REMARK  status: ('A' for Active; 'I' for Inactive)
REMARK    1  A    between atoms: C_1  and  C_2
REMARK    2  A    between atoms: C_2  and  C_3
REMARK    3  A    between atoms: C_3  and  C_26
REMARK    4  A    between atoms: N_6  and  C_10
REMARK    5  A    between atoms: C_10  and  C_11
REMARK    6  A    between atoms: N_17  and  C_18
REMARK    7  A    between atoms: C_23  and  C_24
REMARK                            x       y       z     vdW  Elec       q    Type
REMARK                         _______ _______ _______ _____ _____    ______ ____
ROOT
ATOM      1  C   UNL     1      -3.354  -1.468  -2.702  0.00  0.00    +0.194 C 
ENDROOT
BRANCH   1   2
ATOM      2  C   UNL     1      -2.109  -1.716  -3.514  0.00  0.00    +0.154 A 
ATOM      3  N   UNL     1      -1.735  -0.841  -4.431  0.00  0.00    -0.198 NA
ATOM      4  C   UNL     1      -0.633  -1.054  -5.147  0.00  0.00    +0.217 A 
ATOM      5  N   UNL     1       0.086  -2.153  -4.944  0.00  0.00    -0.181 NA
ATOM      6  C   UNL     1      -0.295  -3.032  -4.024  0.00  0.00    +0.224 A 
ATOM      7  N   UNL     1      -1.396  -2.810  -3.309  0.00  0.00    -0.198 NA
ATOM      8  N   UNL     1       0.449  -4.176  -3.811  0.00  0.00    -0.283 N 
ATOM      9  N   UNL     1      -0.240  -0.138  -6.101  0.00  0.00    -0.327 N 
ATOM     10  H   UNL     1       0.219  -4.776  -3.083  0.00  0.00    +0.155 HD
ATOM     11  H   UNL     1       0.561  -0.295  -6.624  0.00  0.00    +0.145 HD
ATOM     12  H   UNL     1      -0.766   0.664  -6.248  0.00  0.00    +0.145 HD
BRANCH   8  13
ATOM     13  C   UNL     1       1.533  -4.471  -4.643  0.00  0.00    +0.036 A 
ATOM     14  C   UNL     1       1.576  -3.964  -5.936  0.00  0.00    +0.023 A 
ATOM     15  C   UNL     1       2.649  -4.257  -6.755  0.00  0.00    +0.002 A 
ATOM     16  C   UNL     1       3.679  -5.053  -6.289  0.00  0.00    +0.000 A 
ATOM     17  C   UNL     1       3.639  -5.560  -5.003  0.00  0.00    +0.005 A 
ATOM     18  C   UNL     1       2.572  -5.266  -4.177  0.00  0.00    -0.029 A 
ATOM     19  C   UNL     1       2.532  -5.813  -2.773  0.00  0.00    +0.045 C 
ENDBRANCH   8  13
ENDBRANCH   1   2
BRANCH   1  23
ATOM     20  C   UNL     1      -2.580   0.943   0.015  0.00  0.00    +0.138 C 
ATOM     21  C   UNL     1      -2.990   0.624  -1.408  0.00  0.00    +0.251 C 
ATOM     22  O   UNL     1      -3.250   1.415  -2.290  0.00  0.00    -0.272 OA
ATOM     23  N   UNL     1      -3.006  -0.721  -1.490  0.00  0.00    -0.217 N 
ATOM     24  C   UNL     1      -2.667  -1.290  -0.328  0.00  0.00    +0.310 C 
ATOM     25  O   UNL     1      -2.610  -2.492  -0.156  0.00  0.00    -0.252 OA
ATOM     26  N   UNL     1      -2.396  -0.383   0.631  0.00  0.00    -0.281 N 
ATOM     27  H   UNL     1      -2.131  -0.565   1.547  0.00  0.00    +0.152 HD
BRANCH  20  28
ATOM     28  C   UNL     1      -1.289   1.720   0.034  0.00  0.00    -0.015 A 
ATOM     29  C   UNL     1      -0.079   1.050   0.035  0.00  0.00    +0.009 A 
ATOM     30  C   UNL     1       1.105   1.762   0.046  0.00  0.00    +0.039 A 
ATOM     31  C   UNL     1       1.081   3.146   0.061  0.00  0.00    +0.123 A 
ATOM     32  C   UNL     1      -0.131   3.816   0.066  0.00  0.00    +0.039 A 
ATOM     33  C   UNL     1      -1.315   3.102   0.054  0.00  0.00    +0.009 A 
ATOM     34  F   UNL     1       2.238   3.842   0.072  0.00  0.00    -0.205 F 
ENDBRANCH  20  28
BRANCH  20  36
ATOM     35  C   UNL     1      -4.947   0.861   0.810  0.00  0.00    +0.007 C 
ATOM     36  C   UNL     1      -3.685   1.721   0.733  0.00  0.00    +0.037 C 
ENDBRANCH  20  36
ENDBRANCH   1  23
TORSDOF 5
