REMARK  Name = ZINC55412301
REMARK  7 active torsions:
REMARK  status: ('A' for Active; 'I' for Inactive)
REMARK    1  A    between atoms: C_1  and  C_2
REMARK    2  A    between atoms: C_2  and  O_3
REMARK    3  A    between atoms: O_3  and  C_4
REMARK    4  A    between atoms: C_7  and  C_10
REMARK    5  A    between atoms: C_12  and  C_26
REMARK    6  A    between atoms: C_13  and  C_25
REMARK    7  A    between atoms: C_18  and  C_20
REMARK                            x       y       z     vdW  Elec       q    Type
REMARK                         _______ _______ _______ _____ _____    ______ ____
ROOT
ATOM      1  C   UNL     1      -1.878  -6.238  -0.059  0.00  0.00    +0.158 C 
ATOM      2  C   UNL     1      -2.806  -6.508  -1.250  0.00  0.00    +0.148 C 
ATOM      3  C   UNL     1      -4.214  -6.079  -0.948  0.00  0.00    +0.034 C 
ATOM      4  N   UNL     1      -4.727  -6.141   0.237  0.00  0.00    -0.220 NA
ATOM      5  C   UNL     1      -3.947  -6.572   1.272  0.00  0.00    +0.250 A 
ATOM      6  N   UNL     1      -2.583  -6.633   1.161  0.00  0.00    -0.220 N 
ATOM      7  N   UNL     1      -2.099  -7.111   2.374  0.00  0.00    -0.147 NA
ATOM      8  C   UNL     1      -3.151  -7.297   3.154  0.00  0.00    +0.190 A 
ATOM      9  N   UNL     1      -4.265  -6.957   2.479  0.00  0.00    -0.189 NA
ATOM     10  C   UNL     1      -5.065  -5.555  -2.076  0.00  0.00    +0.062 C 
ENDROOT
BRANCH   1  14
ATOM     11  C   UNL     1      -0.915  -2.078   0.110  0.00  0.00    +0.121 A 
ATOM     12  C   UNL     1       0.095  -3.020  -0.022  0.00  0.00    +0.046 A 
ATOM     13  C   UNL     1      -0.219  -4.364  -0.076  0.00  0.00    +0.009 A 
ATOM     14  C   UNL     1      -1.538  -4.771   0.001  0.00  0.00    -0.022 A 
ATOM     15  C   UNL     1      -2.547  -3.834   0.132  0.00  0.00    +0.009 A 
ATOM     16  C   UNL     1      -2.237  -2.489   0.193  0.00  0.00    +0.046 A 
BRANCH  11  17
ATOM     17  O   UNL     1      -0.609  -0.755   0.163  0.00  0.00    -0.492 OA
BRANCH  17  19
ATOM     18  C   UNL     1       0.921   1.116   0.150  0.00  0.00    +0.048 C 
ATOM     19  C   UNL     1       0.774  -0.405   0.072  0.00  0.00    +0.225 C 
ENDBRANCH  17  19
ENDBRANCH  11  17
ENDBRANCH   1  14
BRANCH   8  20
ATOM     20  C   UNL     1      -3.109  -7.799   4.544  0.00  0.00    +0.058 A 
ATOM     21  C   UNL     1      -4.144  -8.024   5.411  0.00  0.00    +0.019 A 
ATOM     22  C   UNL     1      -3.860  -8.500   6.673  0.00  0.00    +0.008 A 
ATOM     23  C   UNL     1      -2.567  -8.731   7.016  0.00  0.00    +0.046 A 
ATOM     24  S   UNL     1      -1.697  -8.276   5.526  0.00  0.00    -0.093 S 
ENDBRANCH   8  20
BRANCH   2  25
ATOM     25  C   UNL     1      -2.304  -5.747  -2.449  0.00  0.00    +0.221 C 
ATOM     26  O   UNL     1      -2.437  -4.542  -2.503  0.00  0.00    -0.275 OA
ATOM     27  N   UNL     1      -1.707  -6.404  -3.463  0.00  0.00    -0.329 N 
ATOM     28  H   UNL     1      -1.601  -7.367  -3.420  0.00  0.00    +0.145 HD
ATOM     29  H   UNL     1      -1.384  -5.914  -4.235  0.00  0.00    +0.145 HD
ENDBRANCH   2  25
TORSDOF 5
