REMARK  Name = ZINC67187306
REMARK  5 active torsions:
REMARK  status: ('A' for Active; 'I' for Inactive)
REMARK    1  A    between atoms: C_3  and  C_23
REMARK    2  A    between atoms: C_6  and  C_7
REMARK    3  A    between atoms: C_10  and  C_12
REMARK    4  A    between atoms: C_12  and  N_13
REMARK    5  A    between atoms: N_13  and  C_14
REMARK                            x       y       z     vdW  Elec       q    Type
REMARK                         _______ _______ _______ _____ _____    ______ ____
ROOT
ATOM      1  C   UNL     1      -1.322  -1.216  -0.141  0.00  0.00    +0.135 A 
ATOM      2  C   UNL     1      -1.429  -2.507   0.272  0.00  0.00    +0.050 A 
ATOM      3  C   UNL     1      -2.805  -2.772   0.420  0.00  0.00    +0.043 A 
ATOM      4  C   UNL     1      -3.463  -1.643   0.093  0.00  0.00    +0.089 A 
ATOM      5  O   UNL     1      -2.563  -0.703  -0.241  0.00  0.00    -0.462 OA
ENDROOT
BRANCH   1  11
ATOM      6  C   UNL     1      -0.091   0.833  -0.841  0.00  0.00    +0.012 A 
ATOM      7  C   UNL     1       1.089   1.497  -1.104  0.00  0.00    +0.013 A 
ATOM      8  C   UNL     1       2.301   0.845  -0.959  0.00  0.00    +0.055 A 
ATOM      9  C   UNL     1       2.337  -0.476  -0.549  0.00  0.00    +0.013 A 
ATOM     10  C   UNL     1       1.165  -1.152  -0.282  0.00  0.00    +0.012 A 
ATOM     11  C   UNL     1      -0.061  -0.499  -0.426  0.00  0.00    +0.017 A 
BRANCH   8  12
ATOM     12  C   UNL     1       3.586   1.576  -1.250  0.00  0.00    +0.417 C 
ATOM     13  F   UNL     1       4.044   2.195  -0.082  0.00  0.00    -0.166 F 
ATOM     14  F   UNL     1       4.547   0.667  -1.704  0.00  0.00    -0.166 F 
ATOM     15  F   UNL     1       3.359   2.545  -2.233  0.00  0.00    -0.166 F 
ENDBRANCH   8  12
ENDBRANCH   1  11
BRANCH   4  16
ATOM     16  C   UNL     1      -4.959  -1.462   0.105  0.00  0.00    -0.006 C 
BRANCH  16  17
ATOM     17  N   UNL     1      -5.384  -0.986   1.428  0.00  0.00    +0.391 N 
ATOM     18  H   UNL     1      -5.122  -1.662   2.129  0.00  0.00    -0.084 HD
ATOM     19  H   UNL     1      -4.937  -0.103   1.627  0.00  0.00    -0.084 HD
BRANCH  17  20
ATOM     20  C   UNL     1      -6.842  -0.809   1.439  0.00  0.00    +0.017 C 
ATOM     21  C   UNL     1      -7.193   0.605   0.969  0.00  0.00    -0.007 C 
ATOM     22  C   UNL     1      -6.145   1.601   1.432  0.00  0.00    +0.000 C 
ATOM     23  C   UNL     1      -6.104   1.792   2.937  0.00  0.00    +0.019 C 
ATOM     24  C   UNL     1      -5.624   0.519   3.636  0.00  0.00    +0.104 C 
ATOM     25  N   UNL     1      -6.784  -0.358   3.868  0.00  0.00    -0.317 N 
ATOM     26  C   UNL     1      -7.366  -0.996   2.847  0.00  0.00    +0.199 C 
ATOM     27  O   UNL     1      -8.318  -1.720   3.047  0.00  0.00    -0.278 OA
ATOM     28  H   UNL     1      -7.127  -0.475   4.767  0.00  0.00    +0.149 HD
ENDBRANCH  17  20
ENDBRANCH  16  17
ENDBRANCH   4  16
TORSDOF 5
