REMARK  Name = ZINC62258029
REMARK  11 active torsions:
REMARK  status: ('A' for Active; 'I' for Inactive)
REMARK    1  A    between atoms: C_1  and  C_2
REMARK    2  A    between atoms: C_2  and  C_3
REMARK    3  A    between atoms: C_2  and  C_4
REMARK    4  A    between atoms: C_4  and  C_5
REMARK    5  A    between atoms: C_4  and  N_16
REMARK    6  A    between atoms: C_7  and  C_10
REMARK    7  A    between atoms: N_16  and  C_17
REMARK    8  A    between atoms: C_17  and  C_18
REMARK    9  A    between atoms: C_21  and  O_25
REMARK   10  A    between atoms: C_22  and  O_24
REMARK   11  A    between atoms: O_25  and  C_26
REMARK                            x       y       z     vdW  Elec       q    Type
REMARK                         _______ _______ _______ _____ _____    ______ ____
ROOT
ATOM      1  C   UNL     1      -1.480  -0.215   0.183  0.00  0.00    +0.022 C 
ENDROOT
BRANCH   1   2
ATOM      2  C   UNL     1      -2.032   0.276  -1.131  0.00  0.00    +0.214 A 
ATOM      3  N   UNL     1      -2.737   1.357  -1.304  0.00  0.00    -0.193 NA
ATOM      4  C   UNL     1      -3.064   1.492  -2.602  0.00  0.00    +0.202 A 
ATOM      5  N   UNL     1      -2.560   0.482  -3.267  0.00  0.00    -0.056 NA
ATOM      6  O   UNL     1      -1.875  -0.323  -2.318  0.00  0.00    -0.339 OA
BRANCH   4   7
ATOM      7  C   UNL     1      -3.862   2.599  -3.183  0.00  0.00    +0.022 A 
ATOM      8  C   UNL     1      -4.339   3.622  -2.365  0.00  0.00    +0.012 A 
ATOM      9  C   UNL     1      -5.081   4.649  -2.912  0.00  0.00    +0.001 A 
ATOM     10  C   UNL     1      -5.352   4.665  -4.268  0.00  0.00    +0.000 A 
ATOM     11  C   UNL     1      -4.881   3.653  -5.084  0.00  0.00    +0.001 A 
ATOM     12  C   UNL     1      -4.133   2.624  -4.550  0.00  0.00    +0.012 A 
ENDBRANCH   4   7
ENDBRANCH   1   2
BRANCH   1  14
ATOM     13  C   UNL     1       0.279   1.554   0.046  0.00  0.00    +0.006 C 
ATOM     14  C   UNL     1       0.024   0.057   0.238  0.00  0.00    -0.022 C 
ATOM     15  C   UNL     1       0.573  -0.383   1.597  0.00  0.00    +0.006 C 
ENDBRANCH   1  14
BRANCH   1  16
ATOM     16  N   UNL     1      -1.721  -1.659   0.306  0.00  0.00    +0.390 N 
ATOM     17  H   UNL     1      -1.343  -2.133  -0.500  0.00  0.00    -0.084 HD
ATOM     18  H   UNL     1      -1.272  -2.005   1.141  0.00  0.00    -0.084 HD
BRANCH  16  19
ATOM     19  C   UNL     1      -3.167  -1.909   0.388  0.00  0.00    -0.046 C 
BRANCH  19  20
ATOM     20  C   UNL     1      -3.415  -3.392   0.491  0.00  0.00    -0.061 A 
ATOM     21  C   UNL     1      -3.578  -4.146  -0.656  0.00  0.00    +0.005 A 
ATOM     22  C   UNL     1      -3.806  -5.506  -0.567  0.00  0.00    +0.049 A 
ATOM     23  C   UNL     1      -3.871  -6.117   0.675  0.00  0.00    +0.161 A 
ATOM     24  C   UNL     1      -3.706  -5.359   1.830  0.00  0.00    +0.159 A 
ATOM     25  C   UNL     1      -3.474  -3.996   1.733  0.00  0.00    +0.051 A 
BRANCH  24  26
ATOM     26  O   UNL     1      -3.769  -5.954   3.051  0.00  0.00    -0.503 OA
ATOM     27  H   UNL     1      -2.917  -6.274   3.377  0.00  0.00    +0.292 HD
ENDBRANCH  24  26
BRANCH  23  28
ATOM     28  O   UNL     1      -4.095  -7.456   0.765  0.00  0.00    -0.491 OA
ATOM     29  C   UNL     1      -4.255  -8.170  -0.462  0.00  0.00    +0.277 C 
ENDBRANCH  23  28
ENDBRANCH  19  20
ENDBRANCH  16  19
ENDBRANCH   1  16
TORSDOF 8
