REMARK  Name = ZINC31159290
REMARK  17 active torsions:
REMARK  status: ('A' for Active; 'I' for Inactive)
REMARK    1  A    between atoms: C_1  and  C_2
REMARK    2  A    between atoms: C_2  and  C_3
REMARK    3  A    between atoms: C_2  and  C_4
REMARK    4  A    between atoms: C_4  and  C_5
REMARK    5  A    between atoms: C_5  and  C_7
REMARK    6  A    between atoms: C_5  and  C_21
REMARK    7  A    between atoms: C_8  and  O_20
REMARK    8  A    between atoms: C_10  and  O_19
REMARK    9  A    between atoms: C_11  and  C_14
REMARK   10  A    between atoms: C_12  and  O_13
REMARK   11  A    between atoms: C_14  and  C_16
REMARK   12  A    between atoms: C_16  and  C_17
REMARK   13  A    between atoms: C_16  and  C_18
REMARK   14  A    between atoms: C_23  and  C_31
REMARK   15  A    between atoms: C_23  and  C_32
REMARK   16  A    between atoms: C_26  and  C_29
REMARK   17  A    between atoms: C_26  and  C_30
REMARK                            x       y       z     vdW  Elec       q    Type
REMARK                         _______ _______ _______ _____ _____    ______ ____
ROOT
ATOM      1  C   UNL     1      -1.255   3.843   1.504  0.00  0.00    +0.044 C 
ENDROOT
BRANCH   1   2
ATOM      2  C   UNL     1      -0.425   4.696   0.579  0.00  0.00    +0.131 C 
ATOM      3  C   UNL     1      -1.025   5.717  -0.051  0.00  0.00    +0.157 C 
ATOM      4  C   UNL     1      -0.270   6.635  -0.976  0.00  0.00    +0.083 C 
ATOM      5  C   UNL     1       0.951   5.902  -1.491  0.00  0.00    +0.159 C 
ATOM      6  O   UNL     1       1.218   5.872  -2.668  0.00  0.00    -0.295 OA
ATOM      7  C   UNL     1       1.824   5.207  -0.465  0.00  0.00    +0.083 C 
ATOM      8  C   UNL     1       0.930   4.383   0.428  0.00  0.00    +0.157 C 
ATOM      9  O   UNL     1       1.394   3.430   1.022  0.00  0.00    -0.296 OA
ATOM     10  C   UNL     1       2.832   4.300  -1.173  0.00  0.00    +0.027 C 
ATOM     11  C   UNL     1       2.565   6.250   0.374  0.00  0.00    +0.027 C 
ATOM     12  C   UNL     1      -1.165   7.031  -2.152  0.00  0.00    +0.027 C 
ATOM     13  C   UNL     1       0.163   7.890  -0.214  0.00  0.00    +0.027 C 
ATOM     14  O   UNL     1      -2.340   5.927   0.149  0.00  0.00    -0.296 OA
ENDBRANCH   1   2
BRANCH   1  15
ATOM     15  C   UNL     1      -1.181   2.404   1.061  0.00  0.00    +0.040 A 
ATOM     16  C   UNL     1      -1.787   2.013  -0.127  0.00  0.00    +0.127 A 
ATOM     17  C   UNL     1      -1.726   0.690  -0.546  0.00  0.00    +0.092 A 
ATOM     18  C   UNL     1      -1.062  -0.251   0.218  0.00  0.00    +0.134 A 
ATOM     19  C   UNL     1      -0.450   0.134   1.425  0.00  0.00    +0.101 A 
ATOM     20  C   UNL     1      -0.512   1.478   1.838  0.00  0.00    +0.138 A 
BRANCH  20  21
ATOM     21  O   UNL     1       0.079   1.862   2.997  0.00  0.00    -0.506 OA
ATOM     22  H   UNL     1       0.611   1.123   3.614  0.00  0.00    +0.292 HD
ENDBRANCH  20  21
BRANCH  19  23
ATOM     23  C   UNL     1       0.251  -0.855   2.243  0.00  0.00    +0.173 C 
ATOM     24  O   UNL     1       1.408  -1.131   2.002  0.00  0.00    -0.292 OA
BRANCH  23  25
ATOM     25  C   UNL     1      -0.464  -1.531   3.384  0.00  0.00    +0.054 C 
ATOM     26  C   UNL     1      -1.117  -2.821   2.885  0.00  0.00    +0.015 C 
ATOM     27  C   UNL     1       0.541  -1.863   4.490  0.00  0.00    +0.015 C 
ENDBRANCH  23  25
ENDBRANCH  19  23
BRANCH  18  28
ATOM     28  O   UNL     1      -1.004  -1.542  -0.193  0.00  0.00    -0.506 OA
ATOM     29  H   UNL     1      -0.475  -2.290   0.416  0.00  0.00    +0.292 HD
ENDBRANCH  18  28
BRANCH  16  30
ATOM     30  O   UNL     1      -2.442   2.930  -0.883  0.00  0.00    -0.506 OA
ATOM     31  H   UNL     1      -2.922   2.624  -1.824  0.00  0.00    +0.292 HD
ENDBRANCH  16  30
ENDBRANCH   1  15
BRANCH   1  32
ATOM     32  C   UNL     1      -0.717   3.966   2.930  0.00  0.00    +0.012 C 
BRANCH  32  34
ATOM     33  C   UNL     1      -2.428   5.668   3.574  0.00  0.00    +0.007 C 
ATOM     34  C   UNL     1      -0.929   5.394   3.435  0.00  0.00    -0.017 C 
ATOM     35  C   UNL     1      -0.252   5.561   4.796  0.00  0.00    +0.007 C 
ENDBRANCH  32  34
ENDBRANCH   1  32
TORSDOF 9
