REMARK  Name = ZINC39521463
REMARK  5 active torsions:
REMARK  status: ('A' for Active; 'I' for Inactive)
REMARK    1  A    between atoms: C_4  and  O_7
REMARK    2  A    between atoms: O_7  and  S_8
REMARK    3  A    between atoms: S_8  and  C_11
REMARK    4  A    between atoms: N_23  and  C_24
REMARK    5  A    between atoms: C_29  and  O_30
REMARK                            x       y       z     vdW  Elec       q    Type
REMARK                         _______ _______ _______ _____ _____    ______ ____
ROOT
ATOM      1  C   UNL     1       3.125  -2.313   1.960  0.00  0.00    +0.173 C 
ATOM      2  C   UNL     1       3.260  -3.510   1.016  0.00  0.00    +0.030 C 
ATOM      3  C   UNL     1       2.403  -4.667   1.532  0.00  0.00    +0.004 C 
ATOM      4  C   UNL     1       2.877  -5.067   2.931  0.00  0.00    +0.026 C 
ATOM      5  C   UNL     1       2.745  -3.871   3.875  0.00  0.00    +0.038 C 
ATOM      6  C   UNL     1       3.599  -2.712   3.359  0.00  0.00    +0.055 C 
ATOM      7  C   UNL     1       1.280  -3.436   3.951  0.00  0.00    +0.026 C 
ATOM      8  C   UNL     1       0.454  -4.551   4.599  0.00  0.00    +0.005 C 
ATOM      9  C   UNL     1       0.961  -4.802   6.021  0.00  0.00    +0.034 C 
ATOM     10  C   UNL     1       2.423  -5.253   5.966  0.00  0.00    +0.142 C 
ATOM     11  N   UNL     1       3.199  -4.255   5.218  0.00  0.00    -0.309 N 
ATOM     12 BR   UNL     1       3.133  -5.411   7.793  0.00  0.00    -0.067 Br
ENDROOT
BRANCH  11  13
ATOM     13  C   UNL     1       4.348  -3.681   5.774  0.00  0.00    +0.073 A 
ATOM     14  C   UNL     1       4.251  -2.523   6.531  0.00  0.00    +0.027 A 
ATOM     15  C   UNL     1       5.387  -1.958   7.079  0.00  0.00    +0.002 A 
ATOM     16  C   UNL     1       6.622  -2.546   6.875  0.00  0.00    +0.004 A 
ATOM     17  C   UNL     1       6.727  -3.700   6.121  0.00  0.00    +0.047 A 
ATOM     18  C   UNL     1       5.593  -4.275   5.573  0.00  0.00    +0.138 A 
BRANCH  18  19
ATOM     19  O   UNL     1       5.693  -5.414   4.835  0.00  0.00    -0.505 OA
ATOM     20  H   UNL     1       5.835  -5.260   3.892  0.00  0.00    +0.292 HD
ENDBRANCH  18  19
ENDBRANCH  11  13
BRANCH   1  21
ATOM     21  S   UNL     1       4.140  -0.941   1.346  0.00  0.00    +0.124 S 
ATOM     22  O   UNL     1       5.471  -1.383   1.113  0.00  0.00    -0.136 OA
ATOM     23  O   UNL     1       3.889   0.232   2.108  0.00  0.00    -0.136 OA
BRANCH  21  24
ATOM     24  O   UNL     1       3.586  -0.632  -0.037  0.00  0.00    -0.346 OA
BRANCH  24  28
ATOM     25  C   UNL     1      -0.017   1.378   0.010  0.00  0.00    +0.000 A 
ATOM     26  C   UNL     1       1.170   2.088   0.002  0.00  0.00    +0.004 A 
ATOM     27  C   UNL     1       2.377   1.417  -0.013  0.00  0.00    +0.048 A 
ATOM     28  C   UNL     1       2.399   0.030  -0.021  0.00  0.00    +0.156 A 
ATOM     29  C   UNL     1       1.207  -0.680  -0.013  0.00  0.00    +0.048 A 
ATOM     30  C   UNL     1       0.002  -0.004   0.002  0.00  0.00    +0.004 A 
ENDBRANCH  24  28
ENDBRANCH  21  24
ENDBRANCH   1  21
TORSDOF 5
