REMARK  Name = ZINC36551039
REMARK  6 active torsions:
REMARK  status: ('A' for Active; 'I' for Inactive)
REMARK    1  A    between atoms: C_1  and  N_2
REMARK    2  A    between atoms: N_2  and  C_3
REMARK    3  A    between atoms: N_2  and  C_4
REMARK    4  A    between atoms: C_7  and  C_10
REMARK    5  A    between atoms: C_21  and  S_26
REMARK    6  A    between atoms: S_26  and  N_29
REMARK                            x       y       z     vdW  Elec       q    Type
REMARK                         _______ _______ _______ _____ _____    ______ ____
ROOT
ATOM      1  C   UNL     1      -0.006  -2.813  -4.924  0.00  0.00    +0.105 C 
ATOM      2  C   UNL     1      -1.423  -2.939  -5.454  0.00  0.00    +0.029 C 
ATOM      3  C   UNL     1      -2.468  -3.564  -4.520  0.00  0.00    +0.033 C 
ATOM      4  C   UNL     1      -3.752  -2.877  -4.990  0.00  0.00    -0.030 C 
ATOM      5  C   UNL     1      -3.463  -1.704  -5.540  0.00  0.00    -0.023 C 
ATOM      6  C   UNL     1      -1.986  -1.486  -5.488  0.00  0.00    +0.049 C 
ATOM      7  C   UNL     1      -1.244  -0.737  -6.526  0.00  0.00    -0.018 A 
ATOM      8  C   UNL     1      -1.838   0.230  -7.306  0.00  0.00    +0.034 A 
ATOM      9  C   UNL     1      -1.099   0.912  -8.255  0.00  0.00    +0.109 A 
ATOM     10  C   UNL     1       0.244   0.625  -8.422  0.00  0.00    +0.030 A 
ATOM     11  C   UNL     1       0.847  -0.345  -7.649  0.00  0.00    +0.025 A 
ATOM     12  C   UNL     1       0.111  -1.042  -6.698  0.00  0.00    +0.031 A 
ATOM     13  N   UNL     1       0.739  -2.049  -5.949  0.00  0.00    -0.336 N 
ATOM     14  H   UNL     1       1.675  -2.249  -6.105  0.00  0.00    +0.147 HD
ENDROOT
BRANCH   1  18
ATOM     15  C   UNL     1      -0.003  -0.696  -1.211  0.00  0.00    +0.029 A 
ATOM     16  C   UNL     1       0.139  -0.004  -2.408  0.00  0.00    +0.023 A 
ATOM     17  C   UNL     1       0.138  -0.691  -3.605  0.00  0.00    +0.007 A 
ATOM     18  C   UNL     1      -0.005  -2.066  -3.615  0.00  0.00    -0.027 A 
ATOM     19  C   UNL     1      -0.146  -2.758  -2.426  0.00  0.00    +0.007 A 
ATOM     20  C   UNL     1      -0.140  -2.078  -1.224  0.00  0.00    +0.023 A 
BRANCH  15  22
ATOM     21  C   UNL     1      -0.145  -0.736   1.263  0.00  0.00    +0.129 C 
ATOM     22  N   UNL     1      -0.002  -0.004   0.002  0.00  0.00    -0.336 N 
ATOM     23  C   UNL     1       0.143   1.454   0.014  0.00  0.00    +0.129 C 
ENDBRANCH  15  22
ENDBRANCH   1  18
BRANCH   9  24
ATOM     24  S   UNL     1      -1.867   2.147  -9.250  0.00  0.00    +0.075 S 
ATOM     25  O   UNL     1      -1.089   2.255 -10.435  0.00  0.00    -0.150 OA
ATOM     26  O   UNL     1      -3.255   1.843  -9.275  0.00  0.00    -0.150 OA
BRANCH  24  27
ATOM     27  N   UNL     1      -1.711   3.588  -8.450  0.00  0.00    -0.202 N 
ATOM     28  C   UNL     1      -2.674   4.118  -7.480  0.00  0.00    +0.136 C 
ATOM     29  C   UNL     1      -2.087   5.464  -7.025  0.00  0.00    +0.058 C 
ATOM     30  C   UNL     1      -0.795   5.596  -7.798  0.00  0.00    -0.023 A 
ATOM     31  C   UNL     1      -0.642   4.473  -8.596  0.00  0.00    +0.054 A 
ATOM     32  C   UNL     1       0.491   4.365  -9.405  0.00  0.00    +0.025 A 
ATOM     33  C   UNL     1       1.444   5.362  -9.403  0.00  0.00    +0.002 A 
ATOM     34  C   UNL     1       1.283   6.477  -8.601  0.00  0.00    +0.000 A 
ATOM     35  C   UNL     1       0.160   6.595  -7.804  0.00  0.00    +0.005 A 
ENDBRANCH  24  27
ENDBRANCH   9  24
TORSDOF 4
