REMARK  Name = ZINC39710339
REMARK  13 active torsions:
REMARK  status: ('A' for Active; 'I' for Inactive)
REMARK    1  A    between atoms: C_1  and  C_2
REMARK    2  A    between atoms: C_9  and  C_14
REMARK    3  A    between atoms: C_14  and  C_16
REMARK    4  A    between atoms: C_14  and  N_26
REMARK    5  A    between atoms: N_21  and  C_22
REMARK    6  A    between atoms: C_22  and  C_23
REMARK    7  A    between atoms: C_22  and  C_24
REMARK    8  A    between atoms: C_22  and  C_25
REMARK    9  A    between atoms: N_26  and  C_27
REMARK   10  A    between atoms: N_26  and  C_35
REMARK   11  A    between atoms: C_27  and  C_28
REMARK   12  A    between atoms: C_28  and  C_29
REMARK   13  A    between atoms: C_35  and  C_36
REMARK                            x       y       z     vdW  Elec       q    Type
REMARK                         _______ _______ _______ _____ _____    ______ ____
ROOT
ATOM      1  C   UNL     1       1.454  -5.528   3.078  0.00  0.00    -0.009 C 
ENDROOT
BRANCH   1  10
ATOM      2  C   UNL     1       0.334   1.404   1.774  0.00  0.00    +0.044 C 
ATOM      3  C   UNL     1       0.249  -0.061   1.431  0.00  0.00    -0.050 A 
ATOM      4  C   UNL     1       0.108  -0.443   0.097  0.00  0.00    +0.005 A 
ATOM      5  C   UNL     1       0.026  -1.743  -0.289  0.00  0.00    +0.024 A 
ATOM      6  C   UNL     1       0.080  -2.776   0.665  0.00  0.00    +0.040 A 
ATOM      7  N   UNL     1      -0.001  -4.048   0.275  0.00  0.00    -0.285 N 
ATOM      8  C   UNL     1       0.043  -5.066   1.118  0.00  0.00    +0.223 C 
ATOM      9  O   UNL     1      -0.036  -6.206   0.703  0.00  0.00    -0.275 OA
ATOM     10  C   UNL     1       0.192  -4.806   2.600  0.00  0.00    +0.088 C 
ATOM     11  C   UNL     1       0.286  -3.361   3.049  0.00  0.00    -0.006 C 
ATOM     12  C   UNL     1       0.228  -2.401   2.082  0.00  0.00    -0.007 A 
ATOM     13  C   UNL     1       0.316  -0.982   2.427  0.00  0.00    +0.012 A 
ATOM     14  H   UNL     1      -0.097  -4.235  -0.671  0.00  0.00    +0.155 HD
ENDBRANCH   1  10
BRANCH   1  15
ATOM     15  C   UNL     1       1.536  -5.456   4.604  0.00  0.00    +0.205 C 
ATOM     16  N   UNL     1       0.195  -5.564   5.195  0.00  0.00    -0.152 NA
ATOM     17  N   UNL     1      -0.047  -4.533   5.826  0.00  0.00    -0.070 NA
ATOM     18  N   UNL     1       0.999  -3.612   5.783  0.00  0.00    -0.179 N 
ATOM     19  N   UNL     1       2.026  -4.129   5.033  0.00  0.00    -0.183 NA
ATOM     20  H   UNL     1       1.001  -2.744   6.215  0.00  0.00    +0.191 HD
BRANCH  19  21
ATOM     21  C   UNL     1       3.253  -4.254   5.831  0.00  0.00    +0.035 C 
ATOM     22  C   UNL     1       4.323  -4.979   5.012  0.00  0.00    +0.029 C 
ATOM     23  C   UNL     1       3.759  -2.861   6.211  0.00  0.00    +0.029 C 
ATOM     24  C   UNL     1       2.955  -5.052   7.102  0.00  0.00    +0.029 C 
ENDBRANCH  19  21
ENDBRANCH   1  15
BRANCH   1  25
ATOM     25  N   UNL     1       1.403  -6.934   2.656  0.00  0.00    +0.387 N 
ATOM     26  H   UNL     1       1.214  -6.981   1.666  0.00  0.00    -0.081 HD
BRANCH  25  27
ATOM     27  C   UNL     1       2.693  -7.577   2.940  0.00  0.00    -0.073 C 
BRANCH  27  28
ATOM     28  C   UNL     1       2.684  -9.004   2.386  0.00  0.00    +0.016 C 
BRANCH  28  29
ATOM     29  C   UNL     1       4.008  -9.663   2.678  0.00  0.00    -0.049 A 
ATOM     30  C   UNL     1       5.046  -9.559   1.772  0.00  0.00    +0.003 A 
ATOM     31  C   UNL     1       6.260 -10.164   2.039  0.00  0.00    +0.000 A 
ATOM     32  C   UNL     1       6.435 -10.874   3.212  0.00  0.00    +0.000 A 
ATOM     33  C   UNL     1       5.397 -10.977   4.119  0.00  0.00    +0.000 A 
ATOM     34  C   UNL     1       4.184 -10.368   3.853  0.00  0.00    +0.003 A 
ENDBRANCH  28  29
ENDBRANCH  27  28
ENDBRANCH  25  27
BRANCH  25  35
ATOM     35  C   UNL     1       0.338  -7.628   3.392  0.00  0.00    -0.042 C 
BRANCH  35  36
ATOM     36  C   UNL     1      -0.953  -7.529   2.619  0.00  0.00    -0.064 A 
ATOM     37  C   UNL     1      -1.929  -6.634   3.016  0.00  0.00    +0.004 A 
ATOM     38  C   UNL     1      -3.112  -6.543   2.308  0.00  0.00    +0.038 A 
ATOM     39  C   UNL     1      -3.320  -7.348   1.201  0.00  0.00    +0.123 A 
ATOM     40  C   UNL     1      -2.341  -8.243   0.804  0.00  0.00    +0.038 A 
ATOM     41  C   UNL     1      -1.157  -8.330   1.511  0.00  0.00    +0.004 A 
ATOM     42  F   UNL     1      -4.476  -7.259   0.508  0.00  0.00    -0.205 F 
ENDBRANCH  35  36
ENDBRANCH  25  35
ENDBRANCH   1  25
TORSDOF 9
