REMARK  Name = ZINC64423319
REMARK  1 active torsions:
REMARK  status: ('A' for Active; 'I' for Inactive)
REMARK    1  A    between atoms: C_6  and  N_7
REMARK                            x       y       z     vdW  Elec       q    Type
REMARK                         _______ _______ _______ _____ _____    ______ ____
ROOT
ATOM      1  N   UNL     1      -1.199  -0.721   0.010  0.00  0.00    -0.284 N 
ATOM      2  C   UNL     1      -1.183  -2.087  -0.101  0.00  0.00    +0.223 C 
ATOM      3  N   UNL     1      -0.008  -2.721  -0.108  0.00  0.00    -0.197 NA
ATOM      4  C   UNL     1      -0.011  -4.003  -0.422  0.00  0.00    +0.166 C 
ATOM      5  N   UNL     1       0.802  -4.999  -0.200  0.00  0.00    -0.218 NA
ATOM      6  C   UNL     1       0.171  -6.173  -0.319  0.00  0.00    +0.218 C 
ATOM      7  N   UNL     1      -1.031  -6.061  -0.820  0.00  0.00    -0.253 NA
ATOM      8  C   UNL     1      -1.198  -4.649  -1.128  0.00  0.00    +0.237 C 
ATOM      9  C   UNL     1      -2.438  -3.991  -0.614  0.00  0.00    +0.134 C 
ATOM     10  N   UNL     1      -2.345  -2.744  -0.193  0.00  0.00    -0.201 NA
ATOM     11  N   UNL     1      -3.616  -4.652  -0.578  0.00  0.00    -0.316 N 
ATOM     12  C   UNL     1      -3.832  -6.041  -1.010  0.00  0.00    +0.106 C 
ATOM     13  C   UNL     1      -5.329  -6.355  -0.810  0.00  0.00    +0.020 C 
ATOM     14  C   UNL     1      -5.982  -4.947  -0.809  0.00  0.00    +0.020 C 
ATOM     15  C   UNL     1      -4.895  -4.103  -0.094  0.00  0.00    +0.106 C 
ATOM     16  H   UNL     1      -2.043  -0.252   0.100  0.00  0.00    +0.155 HD
ENDROOT
BRANCH   1  22
ATOM     17  C   UNL     1       1.066  -0.446  -0.781  0.00  0.00    +0.026 A 
ATOM     18  C   UNL     1       2.250   0.265  -0.796  0.00  0.00    +0.040 A 
ATOM     19  C   UNL     1       2.377   1.417  -0.039  0.00  0.00    +0.124 A 
ATOM     20  C   UNL     1       1.318   1.859   0.735  0.00  0.00    +0.040 A 
ATOM     21  C   UNL     1       0.132   1.152   0.754  0.00  0.00    +0.026 A 
ATOM     22  C   UNL     1       0.002  -0.003  -0.006  0.00  0.00    +0.034 A 
ATOM     23  F   UNL     1       3.537   2.110  -0.055  0.00  0.00    -0.205 F 
ENDBRANCH   1  22
TORSDOF 1
