REMARK  Name = ZINC02093539
REMARK  4 active torsions:
REMARK  status: ('A' for Active; 'I' for Inactive)
REMARK    1  A    between atoms: C_11  and  C_31
REMARK    2  A    between atoms: N_19  and  C_23
REMARK    3  A    between atoms: C_23  and  C_24
REMARK    4  A    between atoms: C_35  and  N_37
REMARK                            x       y       z     vdW  Elec       q    Type
REMARK                         _______ _______ _______ _____ _____    ______ ____
ROOT
ATOM      1  C   UNL     1       3.373  -5.770  -5.237  0.00  0.00    +0.001 A 
ATOM      2  C   UNL     1       3.627  -4.500  -5.731  0.00  0.00    +0.002 A 
ATOM      3  C   UNL     1       3.575  -3.373  -4.930  0.00  0.00    +0.026 A 
ATOM      4  C   UNL     1       3.253  -3.566  -3.588  0.00  0.00    +0.047 A 
ATOM      5  C   UNL     1       2.996  -4.868  -3.088  0.00  0.00    +0.003 A 
ATOM      6  C   UNL     1       3.055  -5.990  -3.920  0.00  0.00    +0.010 A 
ATOM      7  C   UNL     1       2.702  -4.705  -1.679  0.00  0.00    -0.015 A 
ATOM      8  C   UNL     1       2.787  -3.383  -1.408  0.00  0.00    +0.046 A 
ATOM      9  N   UNL     1       3.117  -2.696  -2.545  0.00  0.00    -0.356 N 
ATOM     10  H   UNL     1       3.237  -1.735  -2.600  0.00  0.00    +0.166 HD
ATOM     11  C   UNL     1       2.542  -2.797  -0.036  0.00  0.00    +0.154 C 
ATOM     12  N   UNL     1       2.502  -3.920   0.924  0.00  0.00    -0.276 N 
ATOM     13  C   UNL     1       1.722  -5.102   0.559  0.00  0.00    +0.167 C 
ATOM     14  C   UNL     1       2.364  -5.769  -0.666  0.00  0.00    +0.069 C 
ATOM     15  C   UNL     1       1.639  -6.088   1.680  0.00  0.00    +0.237 C 
ATOM     16  O   UNL     1       0.936  -7.064   1.527  0.00  0.00    -0.274 OA
ATOM     17  N   UNL     1       2.287  -5.962   2.836  0.00  0.00    -0.287 N 
ATOM     18  C   UNL     1       3.156  -4.842   3.158  0.00  0.00    +0.204 C 
ATOM     19  C   UNL     1       3.173  -3.815   2.073  0.00  0.00    +0.234 C 
ATOM     20  O   UNL     1       3.843  -2.819   2.247  0.00  0.00    -0.274 OA
ENDROOT
BRANCH  11  21
ATOM     21  C   UNL     1       1.227  -2.061  -0.020  0.00  0.00    -0.019 A 
ATOM     22  C   UNL     1       0.076  -2.694  -0.452  0.00  0.00    +0.006 A 
ATOM     23  C   UNL     1      -1.130  -2.019  -0.437  0.00  0.00    +0.003 A 
ATOM     24  C   UNL     1      -1.186  -0.713   0.015  0.00  0.00    +0.033 A 
ATOM     25  C   UNL     1      -0.035  -0.079   0.441  0.00  0.00    +0.127 A 
ATOM     26  C   UNL     1       1.172  -0.754   0.426  0.00  0.00    +0.038 A 
BRANCH  25  27
ATOM     27  N   UNL     1      -0.094   1.320   0.919  0.00  0.00    +0.056 N 
ATOM     28  O   UNL     1       0.920   1.877   1.299  0.00  0.00    -0.126 OA
ATOM     29  O   UNL     1      -1.156   1.916   0.928  0.00  0.00    -0.126 OA
ENDBRANCH  25  27
ENDBRANCH  11  21
BRANCH  17  30
ATOM     30  C   UNL     1       2.116  -7.013   3.841  0.00  0.00    +0.143 C 
BRANCH  30  31
ATOM     31  C   UNL     1       3.166  -8.076   3.641  0.00  0.00    -0.030 A 
ATOM     32  C   UNL     1       2.909  -9.153   2.814  0.00  0.00    +0.006 A 
ATOM     33  C   UNL     1       3.874 -10.125   2.625  0.00  0.00    +0.020 A 
ATOM     34  C   UNL     1       5.092 -10.025   3.273  0.00  0.00    +0.041 A 
ATOM     35  C   UNL     1       5.346  -8.950   4.105  0.00  0.00    +0.020 A 
ATOM     36  C   UNL     1       4.383  -7.976   4.289  0.00  0.00    +0.006 A 
ATOM     37 CL   UNL     1       6.301 -11.249   3.042  0.00  0.00    -0.084 Cl
ENDBRANCH  30  31
ENDBRANCH  17  30
TORSDOF 4
