REMARK  Name = ZINC01160129
REMARK  5 active torsions:
REMARK  status: ('A' for Active; 'I' for Inactive)
REMARK    1  A    between atoms: C_1  and  C_2
REMARK    2  A    between atoms: C_2  and  S_3
REMARK    3  A    between atoms: S_3  and  C_4
REMARK    4  A    between atoms: C_17  and  C_20
REMARK    5  A    between atoms: C_21  and  C_22
REMARK                            x       y       z     vdW  Elec       q    Type
REMARK                         _______ _______ _______ _____ _____    ______ ____
ROOT
ATOM      1  C   UNL     1      -3.681   3.309   0.032  0.00  0.00    +0.212 A 
ATOM      2  N   UNL     1      -3.490   2.318   0.898  0.00  0.00    -0.184 NA
ATOM      3  C   UNL     1      -2.325   1.694   0.920  0.00  0.00    +0.248 A 
ATOM      4  C   UNL     1      -1.321   2.098   0.012  0.00  0.00    +0.156 A 
ATOM      5  N   UNL     1      -1.574   3.094  -0.823  0.00  0.00    -0.141 NA
ATOM      6  N   UNL     1      -2.722   3.678  -0.808  0.00  0.00    -0.122 NA
ATOM      7  C   UNL     1      -0.017   1.403   0.010  0.00  0.00    +0.029 A 
ATOM      8  C   UNL     1       1.181   2.107   0.002  0.00  0.00    +0.027 A 
ATOM      9  C   UNL     1       2.380   1.420  -0.023  0.00  0.00    +0.019 A 
ATOM     10  C   UNL     1       2.395   0.035  -0.041  0.00  0.00    +0.017 A 
ATOM     11  C   UNL     1       1.209  -0.677  -0.028  0.00  0.00    +0.025 A 
ATOM     12  C   UNL     1       0.002  -0.004   0.002  0.00  0.00    +0.040 A 
ATOM     13  N   UNL     1      -1.215  -0.692   0.043  0.00  0.00    -0.306 N 
ATOM     14  C   UNL     1      -2.015  -0.634   1.262  0.00  0.00    +0.287 C 
ATOM     15  O   UNL     1      -2.080   0.685   1.790  0.00  0.00    -0.449 OA
ATOM     16 BR   UNL     1       4.011   2.377  -0.032  0.00  0.00    -0.050 Br
ATOM     17  H   UNL     1      -1.522  -1.198  -0.726  0.00  0.00    +0.150 HD
ENDROOT
BRANCH  14  18
ATOM     18  C   UNL     1      -1.404  -1.546   2.295  0.00  0.00    +0.041 C 
ATOM     19  C   UNL     1      -2.110  -2.558   2.790  0.00  0.00    +0.047 C 
BRANCH  19  20
ATOM     20  C   UNL     1      -1.513  -3.448   3.797  0.00  0.00    +0.128 A 
ATOM     21  C   UNL     1      -2.125  -4.513   4.387  0.00  0.00    +0.049 A 
ATOM     22  C   UNL     1      -1.190  -5.074   5.279  0.00  0.00    +0.042 A 
ATOM     23  C   UNL     1      -0.069  -4.330   5.197  0.00  0.00    +0.195 A 
ATOM     24  O   UNL     1      -0.267  -3.349   4.302  0.00  0.00    -0.464 OA
ENDBRANCH  19  20
ENDBRANCH  14  18
BRANCH   1  25
ATOM     25  S   UNL     1      -5.232   4.145  -0.001  0.00  0.00    -0.085 S 
BRANCH  25  27
ATOM     26  C   UNL     1      -6.160   6.206  -1.536  0.00  0.00    +0.016 C 
ATOM     27  C   UNL     1      -4.915   5.342  -1.322  0.00  0.00    +0.074 C 
ENDBRANCH  25  27
ENDBRANCH   1  25
TORSDOF 4
