REMARK  Name = ZINC38517979
REMARK  10 active torsions:
REMARK  status: ('A' for Active; 'I' for Inactive)
REMARK    1  A    between atoms: C_1  and  N_2
REMARK    2  A    between atoms: N_5  and  C_8
REMARK    3  A    between atoms: C_8  and  C_10
REMARK    4  A    between atoms: C_8  and  C_24
REMARK    5  A    between atoms: C_10  and  N_11
REMARK    6  A    between atoms: N_14  and  C_15
REMARK    7  A    between atoms: C_15  and  C_16
REMARK    8  A    between atoms: C_16  and  C_17
REMARK    9  A    between atoms: C_17  and  C_18
REMARK   10  A    between atoms: N_32  and  C_33
REMARK                            x       y       z     vdW  Elec       q    Type
REMARK                         _______ _______ _______ _____ _____    ______ ____
ROOT
ATOM      1  C   UNL     1       1.463  -3.975  -0.029  0.00  0.00    +0.104 C 
ENDROOT
BRANCH   1   2
ATOM      2  C   UNL     1       2.191  -4.579   1.145  0.00  0.00    -0.028 A 
ATOM      3  C   UNL     1       3.377  -4.020   1.587  0.00  0.00    +0.007 A 
ATOM      4  C   UNL     1       4.045  -4.569   2.659  0.00  0.00    +0.024 A 
ATOM      5  C   UNL     1       3.532  -5.694   3.308  0.00  0.00    +0.033 A 
ATOM      6  C   UNL     1       2.343  -6.247   2.857  0.00  0.00    -0.025 A 
ATOM      7  C   UNL     1       1.674  -5.689   1.785  0.00  0.00    +0.010 A 
ATOM      8  C   UNL     1       2.010  -7.442   3.722  0.00  0.00    +0.056 C 
ATOM      9  C   UNL     1       3.161  -7.516   4.738  0.00  0.00    +0.109 C 
ATOM     10  N   UNL     1       4.045  -6.397   4.399  0.00  0.00    -0.332 N 
ATOM     11  C   UNL     1       5.287  -6.066   5.103  0.00  0.00    +0.129 C 
ENDBRANCH   1   2
BRANCH   1  16
ATOM     12  C   UNL     1       0.524   1.571   0.294  0.00  0.00    -0.096 C 
ATOM     13  N   UNL     1       0.402   0.109   0.212  0.00  0.00    +0.379 N 
ATOM     14  C   UNL     1       1.042  -0.366  -1.022  0.00  0.00    -0.064 C 
ATOM     15  C   UNL     1       0.898  -1.887  -1.117  0.00  0.00    +0.066 C 
ATOM     16  N   UNL     1       1.530  -2.510   0.054  0.00  0.00    -0.297 NA
ATOM     17  C   UNL     1       0.917  -2.024   1.298  0.00  0.00    +0.066 C 
ATOM     18  C   UNL     1       1.060  -0.503   1.374  0.00  0.00    -0.064 C 
ATOM     19  H   UNL     1      -0.574  -0.146   0.205  0.00  0.00    -0.082 HD
ENDBRANCH   1  16
BRANCH   1  20
ATOM     20  C   UNL     1       2.117  -4.443  -1.330  0.00  0.00    +0.129 C 
BRANCH  20  21
ATOM     21  N   UNL     1       1.979  -5.897  -1.451  0.00  0.00    -0.298 N 
ATOM     22  C   UNL     1       2.577  -6.548  -2.469  0.00  0.00    +0.300 C 
ATOM     23  O   UNL     1       3.231  -5.929  -3.286  0.00  0.00    -0.253 OA
ATOM     24  N   UNL     1       2.450  -7.885  -2.580  0.00  0.00    -0.299 N 
ATOM     25  H   UNL     1       1.457  -6.390  -0.799  0.00  0.00    +0.150 HD
ATOM     26  H   UNL     1       1.929  -8.379  -1.928  0.00  0.00    +0.150 HD
BRANCH  24  27
ATOM     27  C   UNL     1       3.100  -8.593  -3.685  0.00  0.00    +0.106 C 
BRANCH  27  28
ATOM     28  C   UNL     1       2.800 -10.090  -3.579  0.00  0.00    +0.023 C 
BRANCH  28  29
ATOM     29  C   UNL     1       3.479 -10.829  -4.734  0.00  0.00    +0.036 C 
BRANCH  29  30
ATOM     30  C   UNL     1       3.184 -12.303  -4.629  0.00  0.00    -0.047 A 
ATOM     31  C   UNL     1       4.025 -13.127  -3.905  0.00  0.00    +0.003 A 
ATOM     32  C   UNL     1       3.754 -14.479  -3.809  0.00  0.00    +0.000 A 
ATOM     33  C   UNL     1       2.642 -15.007  -4.437  0.00  0.00    +0.000 A 
ATOM     34  C   UNL     1       1.800 -14.183  -5.161  0.00  0.00    +0.000 A 
ATOM     35  C   UNL     1       2.069 -12.830  -5.253  0.00  0.00    +0.003 A 
ENDBRANCH  29  30
ENDBRANCH  28  29
ENDBRANCH  27  28
ENDBRANCH  24  27
ENDBRANCH  20  21
ENDBRANCH   1  20
TORSDOF 8
