REMARK  Name = ZINC15225694
REMARK  7 active torsions:
REMARK  status: ('A' for Active; 'I' for Inactive)
REMARK    1  A    between atoms: C_7  and  C_20
REMARK    2  A    between atoms: C_12  and  C_13
REMARK    3  A    between atoms: C_20  and  O_22
REMARK    4  A    between atoms: O_22  and  C_23
REMARK    5  A    between atoms: C_23  and  C_24
REMARK    6  A    between atoms: N_26  and  C_27
REMARK    7  A    between atoms: C_28  and  C_32
REMARK                            x       y       z     vdW  Elec       q    Type
REMARK                         _______ _______ _______ _____ _____    ______ ____
ROOT
ATOM      1  C   UNL     1      -1.235   1.744   0.017  0.00  0.00    +0.001 A 
ATOM      2  C   UNL     1      -0.013   1.076   0.008  0.00  0.00    +0.002 A 
ATOM      3  C   UNL     1       1.163   1.761   0.000  0.00  0.00    +0.028 A 
ATOM      4  C   UNL     1       1.151   3.169   0.008  0.00  0.00    +0.072 A 
ATOM      5  C   UNL     1      -0.096   3.842   0.023  0.00  0.00    +0.015 A 
ATOM      6  C   UNL     1      -1.285   3.107   0.030  0.00  0.00    +0.011 A 
ATOM      7  C   UNL     1      -0.098   5.306   0.030  0.00  0.00    +0.073 A 
ATOM      8  C   UNL     1       1.131   5.949   0.021  0.00  0.00    -0.007 A 
ATOM      9  C   UNL     1       2.317   5.196   0.006  0.00  0.00    +0.072 A 
ATOM     10  N   UNL     1       2.285   3.865  -0.000  0.00  0.00    -0.247 NA
ATOM     11  C   UNL     1       3.487   6.091  -0.002  0.00  0.00    -0.020 C 
ATOM     12  C   UNL     1       4.780   5.702  -0.016  0.00  0.00    +0.020 C 
ATOM     13  C   UNL     1       2.994   7.516   0.009  0.00  0.00    +0.042 C 
ATOM     14  C   UNL     1       1.463   7.421   0.024  0.00  0.00    +0.043 C 
ENDROOT
BRANCH  12  15
ATOM     15  C   UNL     1       5.846   6.704  -0.021  0.00  0.00    +0.013 A 
ATOM     16  C   UNL     1       7.220   6.519  -0.035  0.00  0.00    +0.015 A 
ATOM     17  C   UNL     1       8.027   7.630  -0.038  0.00  0.00    +0.008 A 
ATOM     18  C   UNL     1       7.460   8.866  -0.027  0.00  0.00    +0.046 A 
ATOM     19  S   UNL     1       5.716   8.485  -0.020  0.00  0.00    -0.097 S 
ENDBRANCH  12  15
BRANCH   7  20
ATOM     20  C   UNL     1      -1.363   6.070   0.046  0.00  0.00    +0.341 C 
ATOM     21  O   UNL     1      -1.893   6.389  -1.000  0.00  0.00    -0.245 OA
BRANCH  20  22
ATOM     22  O   UNL     1      -1.928   6.413   1.220  0.00  0.00    -0.452 OA
BRANCH  22  23
ATOM     23  C   UNL     1      -3.170   7.163   1.159  0.00  0.00    +0.328 C 
BRANCH  23  24
ATOM     24  C   UNL     1      -3.649   7.455   2.558  0.00  0.00    +0.255 C 
ATOM     25  O   UNL     1      -3.007   7.069   3.511  0.00  0.00    -0.272 OA
ATOM     26  N   UNL     1      -4.791   8.146   2.748  0.00  0.00    -0.277 N 
ATOM     27  H   UNL     1      -5.304   8.454   1.985  0.00  0.00    +0.155 HD
BRANCH  26  28
ATOM     28  C   UNL     1      -5.232   8.414   4.035  0.00  0.00    +0.084 A 
ATOM     29  C   UNL     1      -6.369   9.108   4.431  0.00  0.00    +0.065 A 
ATOM     30  C   UNL     1      -6.589   9.238   5.852  0.00  0.00    +0.022 A 
ATOM     31  C   UNL     1      -5.673   8.686   6.668  0.00  0.00    +0.048 A 
ATOM     32  S   UNL     1      -4.496   7.972   5.539  0.00  0.00    -0.081 S 
BRANCH  29  33
ATOM     33  C   UNL     1      -7.301   9.678   3.453  0.00  0.00    +0.244 C 
ATOM     34  O   UNL     1      -7.088   9.549   2.262  0.00  0.00    -0.270 OA
ATOM     35  N   UNL     1      -8.394  10.346   3.873  0.00  0.00    -0.325 N 
ATOM     36  H   UNL     1      -8.564  10.449   4.823  0.00  0.00    +0.145 HD
ATOM     37  H   UNL     1      -9.011  10.723   3.227  0.00  0.00    +0.145 HD
ENDBRANCH  29  33
ENDBRANCH  26  28
ENDBRANCH  23  24
ENDBRANCH  22  23
ENDBRANCH  20  22
ENDBRANCH   7  20
TORSDOF 7
