REMARK  Name = ZINC49903849
REMARK  9 active torsions:
REMARK  status: ('A' for Active; 'I' for Inactive)
REMARK    1  A    between atoms: C_1  and  C_2
REMARK    2  A    between atoms: N_4  and  C_20
REMARK    3  A    between atoms: C_7  and  C_18
REMARK    4  A    between atoms: C_8  and  C_9
REMARK    5  A    between atoms: C_12  and  O_17
REMARK    6  A    between atoms: C_13  and  O_15
REMARK    7  A    between atoms: O_15  and  C_16
REMARK    8  A    between atoms: C_20  and  C_21
REMARK    9  A    between atoms: C_20  and  C_22
REMARK                            x       y       z     vdW  Elec       q    Type
REMARK                         _______ _______ _______ _____ _____    ______ ____
ROOT
ATOM      1  C   UNL     1      -0.018   1.503   0.010  0.00  0.00    +0.046 C 
ATOM      2  C   UNL     1       0.002  -0.004   0.002  0.00  0.00    -0.025 A 
ATOM      3  C   UNL     1       0.006  -0.674  -1.173  0.00  0.00    +0.093 A 
ATOM      4  N   UNL     1       0.024  -2.031  -1.212  0.00  0.00    -0.311 N 
ATOM      5  C   UNL     1       0.040  -2.765  -0.084  0.00  0.00    +0.270 A 
ATOM      6  O   UNL     1       0.056  -3.982  -0.148  0.00  0.00    -0.266 OA
ATOM      7  C   UNL     1       0.037  -2.121   1.178  0.00  0.00    +0.124 A 
ATOM      8  C   UNL     1       0.023  -0.715   1.218  0.00  0.00    +0.009 A 
ENDROOT
BRANCH   8   9
ATOM      9  C   UNL     1       0.026   0.002   2.510  0.00  0.00    -0.013 A 
ATOM     10  C   UNL     1      -1.079   0.768   2.887  0.00  0.00    +0.012 A 
ATOM     11  C   UNL     1      -1.075   1.436   4.093  0.00  0.00    +0.050 A 
ATOM     12  C   UNL     1       0.025   1.349   4.935  0.00  0.00    +0.158 A 
ATOM     13  C   UNL     1       1.131   0.586   4.564  0.00  0.00    +0.162 A 
ATOM     14  C   UNL     1       1.131  -0.091   3.360  0.00  0.00    +0.058 A 
BRANCH  13  15
ATOM     15  O   UNL     1       2.207   0.502   5.391  0.00  0.00    -0.491 OA
ATOM     16  C   UNL     1       3.305  -0.297   4.948  0.00  0.00    +0.277 C 
ENDBRANCH  13  15
BRANCH  12  17
ATOM     17  O   UNL     1       0.024   2.009   6.122  0.00  0.00    -0.503 OA
ATOM     18  H   UNL     1      -0.333   1.494   6.858  0.00  0.00    +0.292 HD
ENDBRANCH  12  17
ENDBRANCH   8   9
BRANCH   4  19
ATOM     19  C   UNL     1       0.026  -2.711  -2.510  0.00  0.00    +0.084 C 
ATOM     20  C   UNL     1       1.287  -3.569  -2.634  0.00  0.00    +0.030 C 
ATOM     21  C   UNL     1      -1.212  -3.603  -2.620  0.00  0.00    +0.030 C 
ENDBRANCH   4  19
BRANCH   7  22
ATOM     22  C   UNL     1       0.053  -2.886   2.388  0.00  0.00    +0.105 C 
ATOM     23  N   UNL     1       0.066  -3.493   3.348  0.00  0.00    -0.191 NA
ENDBRANCH   7  22
TORSDOF 5
