REMARK  Name = ZINC22917846
REMARK  8 active torsions:
REMARK  status: ('A' for Active; 'I' for Inactive)
REMARK    1  A    between atoms: C_1  and  C_2
REMARK    2  A    between atoms: C_8  and  N_10
REMARK    3  A    between atoms: N_10  and  S_11
REMARK    4  A    between atoms: S_11  and  C_14
REMARK    5  A    between atoms: C_16  and  C_22
REMARK    6  A    between atoms: C_19  and  O_20
REMARK    7  A    between atoms: O_20  and  C_21
REMARK    8  A    between atoms: C_32  and  C_34
REMARK                            x       y       z     vdW  Elec       q    Type
REMARK                         _______ _______ _______ _____ _____    ______ ____
ROOT
ATOM      1  C   UNL     1      -1.240   2.490   0.515  0.00  0.00    +0.147 A 
ATOM      2  C   UNL     1      -0.209   3.403   0.469  0.00  0.00    +0.045 A 
ATOM      3  C   UNL     1       1.111   2.971   0.618  0.00  0.00    +0.039 A 
ATOM      4  C   UNL     1       1.381   1.613   0.813  0.00  0.00    +0.017 A 
ATOM      5  C   UNL     1       0.345   0.707   0.858  0.00  0.00    +0.048 A 
ATOM      6  C   UNL     1      -0.967   1.141   0.703  0.00  0.00    +0.146 A 
ENDROOT
BRANCH   3   7
ATOM      7  C   UNL     1       2.219   3.945   0.570  0.00  0.00    +0.251 C 
ATOM      8  O   UNL     1       1.978   5.136   0.508  0.00  0.00    -0.270 OA
ATOM      9  N   UNL     1       3.496   3.516   0.595  0.00  0.00    -0.264 N 
ATOM     10  C   UNL     1       4.620   4.346   0.600  0.00  0.00    +0.040 A 
ATOM     11  C   UNL     1       4.691   5.741   0.592  0.00  0.00    +0.024 A 
ATOM     12  C   UNL     1       5.914   6.375   0.606  0.00  0.00    +0.002 A 
ATOM     13  C   UNL     1       7.082   5.634   0.631  0.00  0.00    +0.000 A 
ATOM     14  C   UNL     1       7.020   4.253   0.643  0.00  0.00    +0.005 A 
ATOM     15  C   UNL     1       5.796   3.613   0.630  0.00  0.00    -0.024 A 
ATOM     16  C   UNL     1       5.446   2.142   0.639  0.00  0.00    +0.059 C 
ATOM     17  C   UNL     1       3.909   2.110   0.615  0.00  0.00    +0.083 C 
ATOM     18  C   UNL     1       3.410   1.392  -0.640  0.00  0.00    +0.029 C 
ENDBRANCH   3   7
BRANCH   1  19
ATOM     19  S   UNL     1      -2.905   3.034   0.328  0.00  0.00    +0.062 S 
ATOM     20  O   UNL     1      -2.856   4.444   0.157  0.00  0.00    -0.153 OA
ATOM     21  O   UNL     1      -3.509   2.172  -0.627  0.00  0.00    -0.153 OA
BRANCH  19  22
ATOM     22  N   UNL     1      -3.675   2.759   1.768  0.00  0.00    -0.187 NA
ATOM     23  H   UNL     1      -4.381   1.919   1.848  0.00  0.00    +0.148 HD
BRANCH  22  30
ATOM     24  C   UNL     1      -2.539   1.330   4.017  0.00  0.00    +0.009 C 
ATOM     25  C   UNL     1      -3.413   2.574   4.192  0.00  0.00    +0.005 C 
ATOM     26  C   UNL     1      -2.977   3.329   5.449  0.00  0.00    +0.005 C 
ATOM     27  C   UNL     1      -3.850   4.573   5.625  0.00  0.00    +0.000 C 
ATOM     28  C   UNL     1      -3.695   5.482   4.404  0.00  0.00    +0.002 C 
ATOM     29  C   UNL     1      -4.131   4.726   3.147  0.00  0.00    +0.020 C 
ATOM     30  C   UNL     1      -3.257   3.482   2.971  0.00  0.00    +0.079 C 
ENDBRANCH  22  30
ENDBRANCH  19  22
ENDBRANCH   1  19
BRANCH   6  31
ATOM     31  O   UNL     1      -1.985   0.244   0.742  0.00  0.00    -0.493 OA
ATOM     32  C   UNL     1      -1.635  -1.127   0.944  0.00  0.00    +0.277 C 
ENDBRANCH   6  31
TORSDOF 5
