REMARK  Name = ZINC44732118
REMARK  3 active torsions:
REMARK  status: ('A' for Active; 'I' for Inactive)
REMARK    1  A    between atoms: C_4  and  N_20
REMARK    2  A    between atoms: C_5  and  C_7
REMARK    3  A    between atoms: C_9  and  C_12
REMARK                            x       y       z     vdW  Elec       q    Type
REMARK                         _______ _______ _______ _____ _____    ______ ____
ROOT
ATOM      1  C   UNL     1       0.883  -2.128  -0.357  0.00  0.00    +0.204 A 
ATOM      2  N   UNL     1      -0.286  -2.783  -0.427  0.00  0.00    -0.187 NA
ATOM      3  C   UNL     1      -0.071  -4.067  -0.590  0.00  0.00    +0.260 A 
ATOM      4  O   UNL     1       1.258  -4.270  -0.629  0.00  0.00    -0.332 OA
ATOM      5  N   UNL     1       1.861  -2.993  -0.481  0.00  0.00    -0.056 NA
ENDROOT
BRANCH   3   6
ATOM      6  C   UNL     1      -1.110  -5.112  -0.709  0.00  0.00    +0.059 A 
ATOM      7  C   UNL     1      -2.461  -4.765  -0.657  0.00  0.00    +0.030 A 
ATOM      8  C   UNL     1      -3.426  -5.745  -0.769  0.00  0.00    +0.019 A 
ATOM      9  C   UNL     1      -3.057  -7.070  -0.932  0.00  0.00    +0.017 A 
ATOM     10  C   UNL     1      -1.720  -7.420  -0.984  0.00  0.00    +0.022 A 
ATOM     11  C   UNL     1      -0.744  -6.449  -0.880  0.00  0.00    +0.053 A 
ATOM     12 CL   UNL     1       0.934  -6.889  -0.953  0.00  0.00    -0.083 Cl
ATOM     13 BR   UNL     1      -5.257  -5.278  -0.699  0.00  0.00    -0.050 Br
ENDBRANCH   3   6
BRANCH   1  18
ATOM     14  C   UNL     1       2.071   1.410  -0.812  0.00  0.00    +0.001 A 
ATOM     15  C   UNL     1       1.345   2.071   0.164  0.00  0.00    +0.002 A 
ATOM     16  C   UNL     1       0.469   1.376   0.973  0.00  0.00    +0.023 A 
ATOM     17  C   UNL     1       0.311   0.006   0.811  0.00  0.00    +0.035 A 
ATOM     18  C   UNL     1       1.044  -0.665  -0.175  0.00  0.00    +0.043 A 
ATOM     19  C   UNL     1       1.925   0.049  -0.985  0.00  0.00    +0.013 A 
BRANCH  17  20
ATOM     20  N   UNL     1      -0.572  -0.698   1.626  0.00  0.00    -0.357 N 
ATOM     21  H   UNL     1      -1.146  -0.220   2.246  0.00  0.00    +0.142 HD
ATOM     22  H   UNL     1      -0.614  -1.665   1.575  0.00  0.00    +0.142 HD
ENDBRANCH  17  20
ENDBRANCH   1  18
TORSDOF 3
