REMARK  Name = ZINC45652105
REMARK  9 active torsions:
REMARK  status: ('A' for Active; 'I' for Inactive)
REMARK    1  A    between atoms: C_1  and  C_2
REMARK    2  A    between atoms: C_2  and  C_4
REMARK    3  A    between atoms: C_2  and  N_14
REMARK    4  A    between atoms: C_7  and  S_10
REMARK    5  A    between atoms: S_10  and  N_13
REMARK    6  A    between atoms: N_14  and  C_15
REMARK    7  A    between atoms: N_19  and  C_21
REMARK    8  A    between atoms: C_21  and  C_22
REMARK    9  A    between atoms: C_21  and  C_23
REMARK                            x       y       z     vdW  Elec       q    Type
REMARK                         _______ _______ _______ _____ _____    ______ ____
ROOT
ATOM      1  C   UNL     1      -0.019   1.526   0.010  0.00  0.00    +0.029 C 
ATOM      2  C   UNL     1       0.002  -0.004   0.002  0.00  0.00    +0.081 C 
ENDROOT
BRANCH   2   3
ATOM      3  C   UNL     1       0.731  -0.503   1.223  0.00  0.00    -0.031 A 
ATOM      4  C   UNL     1       0.081  -0.558   2.442  0.00  0.00    +0.007 A 
ATOM      5  C   UNL     1       0.749  -1.016   3.562  0.00  0.00    +0.029 A 
ATOM      6  C   UNL     1       2.068  -1.420   3.463  0.00  0.00    +0.105 A 
ATOM      7  C   UNL     1       2.718  -1.365   2.244  0.00  0.00    +0.029 A 
ATOM      8  C   UNL     1       2.048  -0.911   1.123  0.00  0.00    +0.007 A 
BRANCH   6   9
ATOM      9  S   UNL     1       2.921  -2.002   4.890  0.00  0.00    +0.056 S 
ATOM     10  O   UNL     1       4.306  -1.804   4.645  0.00  0.00    -0.153 OA
ATOM     11  O   UNL     1       2.259  -1.441   6.016  0.00  0.00    -0.153 OA
BRANCH   9  12
ATOM     12  N   UNL     1       2.683  -3.639   4.969  0.00  0.00    -0.204 NA
ATOM     13  H   UNL     1       2.150  -4.085   4.292  0.00  0.00    +0.144 HD
ATOM     14  H   UNL     1       3.076  -4.152   5.692  0.00  0.00    +0.144 HD
ENDBRANCH   9  12
ENDBRANCH   6   9
ENDBRANCH   2   3
BRANCH   2  15
ATOM     15  N   UNL     1      -1.376  -0.512   0.012  0.00  0.00    -0.309 NA
ATOM     16  H   UNL     1      -1.426  -1.413   0.464  0.00  0.00    +0.123 HD
BRANCH  15  17
ATOM     17  C   UNL     1      -1.924  -0.575  -1.349  0.00  0.00    +0.036 C 
ATOM     18  C   UNL     1      -2.575   0.775  -1.728  0.00  0.00    -0.002 C 
ATOM     19  C   UNL     1      -3.837   0.342  -2.515  0.00  0.00    -0.077 C 
ATOM     20  N   UNL     1      -4.295  -0.868  -1.785  0.00  0.00    +0.382 N 
ATOM     21  C   UNL     1      -3.065  -1.607  -1.419  0.00  0.00    -0.060 C 
ATOM     22  H   UNL     1      -4.802  -0.602  -0.954  0.00  0.00    -0.081 HD
BRANCH  20  23
ATOM     23  C   UNL     1      -5.142  -1.694  -2.655  0.00  0.00    -0.075 C 
ATOM     24  C   UNL     1      -5.575  -2.952  -1.899  0.00  0.00    -0.014 C 
ATOM     25  C   UNL     1      -6.380  -0.896  -3.069  0.00  0.00    -0.014 C 
ENDBRANCH  20  23
ENDBRANCH  15  17
ENDBRANCH   2  15
TORSDOF 6
