REMARK  Name = ZINC08847643
REMARK  7 active torsions:
REMARK  status: ('A' for Active; 'I' for Inactive)
REMARK    1  A    between atoms: C_1  and  C_2
REMARK    2  A    between atoms: C_4  and  C_33
REMARK    3  A    between atoms: N_9  and  N_10
REMARK    4  A    between atoms: C_22  and  C_24
REMARK    5  A    between atoms: C_27  and  O_32
REMARK    6  A    between atoms: C_28  and  O_30
REMARK    7  A    between atoms: O_30  and  C_31
REMARK                            x       y       z     vdW  Elec       q    Type
REMARK                         _______ _______ _______ _____ _____    ______ ____
ROOT
ATOM      1  C   UNL     1      -0.018   1.503   0.010  0.00  0.00    +0.044 C 
ATOM      2  C   UNL     1       0.002  -0.004   0.002  0.00  0.00    -0.049 A 
ATOM      3  C   UNL     1       0.006  -0.689  -1.201  0.00  0.00    +0.010 A 
ATOM      4  C   UNL     1       0.022  -2.070  -1.227  0.00  0.00    -0.007 A 
ATOM      5  C   UNL     1       0.035  -2.785  -0.038  0.00  0.00    +0.140 A 
ATOM      6  C   UNL     1       0.036  -2.088   1.178  0.00  0.00    +0.042 A 
ATOM      7  C   UNL     1       0.023  -0.700   1.195  0.00  0.00    +0.017 A 
ATOM      8  C   UNL     1       0.066  -2.879   2.435  0.00  0.00    +0.067 A 
ATOM      9  N   UNL     1      -0.173  -2.334   3.605  0.00  0.00    -0.303 N 
ATOM     10  C   UNL     1       0.380  -4.314   2.290  0.00  0.00    +0.074 A 
ATOM     11  C   UNL     1       0.356  -4.851   1.049  0.00  0.00    +0.138 A 
ATOM     12  O   UNL     1       0.044  -4.136  -0.049  0.00  0.00    -0.454 OA
ATOM     13  C   UNL     1       0.024  -2.799  -2.545  0.00  0.00    +0.047 C 
ATOM     14  H   UNL     1      -0.377  -1.387   3.667  0.00  0.00    +0.184 HD
ENDROOT
BRANCH   9  15
ATOM     15  N   UNL     1      -0.134  -3.119   4.765  0.00  0.00    -0.229 N 
ATOM     16  C   UNL     1      -0.384  -2.547   5.991  0.00  0.00    +0.212 A 
ATOM     17  N   UNL     1      -0.368  -3.212   7.186  0.00  0.00    -0.325 N 
ATOM     18  H   UNL     1      -0.181  -4.155   7.318  0.00  0.00    +0.169 HD
ATOM     19  C   UNL     1      -0.668  -2.288   8.173  0.00  0.00    +0.067 A 
ATOM     20  C   UNL     1      -0.797  -2.362   9.552  0.00  0.00    +0.028 A 
ATOM     21  C   UNL     1      -1.113  -1.230  10.274  0.00  0.00    +0.002 A 
ATOM     22  C   UNL     1      -1.304  -0.016   9.631  0.00  0.00    +0.002 A 
ATOM     23  C   UNL     1      -1.180   0.076   8.262  0.00  0.00    +0.030 A 
ATOM     24  C   UNL     1      -0.860  -1.061   7.516  0.00  0.00    +0.091 A 
ATOM     25  N   UNL     1      -0.669  -1.283   6.190  0.00  0.00    -0.213 NA
ATOM     26  H   UNL     1       0.070  -4.065   4.703  0.00  0.00    +0.175 HD
ENDBRANCH   9  15
BRANCH  11  27
ATOM     27  C   UNL     1       0.686  -6.281   0.891  0.00  0.00    +0.021 A 
ATOM     28  C   UNL     1       1.009  -7.053   2.010  0.00  0.00    +0.015 A 
ATOM     29  C   UNL     1       1.316  -8.389   1.860  0.00  0.00    +0.050 A 
ATOM     30  C   UNL     1       1.306  -8.969   0.600  0.00  0.00    +0.158 A 
ATOM     31  C   UNL     1       0.985  -8.206  -0.520  0.00  0.00    +0.162 A 
ATOM     32  C   UNL     1       0.670  -6.867  -0.377  0.00  0.00    +0.061 A 
BRANCH  31  33
ATOM     33  O   UNL     1       0.977  -8.778  -1.754  0.00  0.00    -0.491 OA
ATOM     34  C   UNL     1       0.639  -7.936  -2.858  0.00  0.00    +0.277 C 
ENDBRANCH  31  33
BRANCH  30  35
ATOM     35  O   UNL     1       1.610 -10.286   0.458  0.00  0.00    -0.503 OA
ATOM     36  H   UNL     1       0.846 -10.876   0.520  0.00  0.00    +0.292 HD
ENDBRANCH  30  35
ENDBRANCH  11  27
TORSDOF 4
