REMARK  Name = ZINC40260507
REMARK  4 active torsions:
REMARK  status: ('A' for Active; 'I' for Inactive)
REMARK    1  A    between atoms: C_1  and  C_2
REMARK    2  A    between atoms: C_5  and  C_7
REMARK    3  A    between atoms: C_7  and  C_9
REMARK    4  A    between atoms: C_7  and  O_20
REMARK                            x       y       z     vdW  Elec       q    Type
REMARK                         _______ _______ _______ _____ _____    ______ ____
ROOT
ATOM      1  C   UNL     1       1.446  -4.435  -1.430  0.00  0.00    -0.012 A 
ATOM      2  C   UNL     1       2.703  -4.100  -1.899  0.00  0.00    +0.010 A 
ATOM      3  C   UNL     1       3.080  -4.440  -3.185  0.00  0.00    +0.048 A 
ATOM      4  C   UNL     1       2.197  -5.118  -4.007  0.00  0.00    +0.142 A 
ATOM      5  C   UNL     1       0.929  -5.455  -3.534  0.00  0.00    +0.076 A 
ATOM      6  C   UNL     1       0.559  -5.117  -2.243  0.00  0.00    +0.033 A 
ATOM      7  N   UNL     1       0.043  -6.140  -4.378  0.00  0.00    -0.280 N 
ATOM      8  C   UNL     1       0.525  -6.731  -5.493  0.00  0.00    +0.255 C 
ATOM      9  O   UNL     1      -0.228  -7.302  -6.253  0.00  0.00    -0.272 OA
ATOM     10  C   UNL     1       2.002  -6.678  -5.788  0.00  0.00    +0.325 C 
ATOM     11  O   UNL     1       2.552  -5.462  -5.274  0.00  0.00    -0.481 OA
ATOM     12  H   UNL     1      -0.902  -6.189  -4.164  0.00  0.00    +0.155 HD
ENDROOT
BRANCH   1  13
ATOM     13  C   UNL     1       1.043  -4.062  -0.027  0.00  0.00    +0.181 C 
BRANCH  13  18
ATOM     14  C   UNL     1      -0.018   1.503   0.010  0.00  0.00    +0.051 C 
ATOM     15  C   UNL     1       0.002  -0.004   0.002  0.00  0.00    -0.013 A 
ATOM     16  C   UNL     1      -1.039  -0.872   0.002  0.00  0.00    +0.011 A 
ATOM     17  C   UNL     1      -0.780  -2.230  -0.007  0.00  0.00    +0.014 A 
ATOM     18  C   UNL     1       0.507  -2.653  -0.016  0.00  0.00    +0.023 A 
ATOM     19  S   UNL     1       1.404  -1.109  -0.018  0.00  0.00    -0.095 S 
ENDBRANCH  13  18
BRANCH  13  20
ATOM     20  O   UNL     1       2.181  -4.145   0.833  0.00  0.00    -0.382 OA
ATOM     21  H   UNL     1       2.909  -3.561   0.580  0.00  0.00    +0.211 HD
ENDBRANCH  13  20
ENDBRANCH   1  13
TORSDOF 3
