REMARK  Name = ZINC08327349
REMARK  3 active torsions:
REMARK  status: ('A' for Active; 'I' for Inactive)
REMARK    1  A    between atoms: C_1  and  C_2
REMARK    2  A    between atoms: C_14  and  C_16
REMARK    3  A    between atoms: C_16  and  N_17
REMARK                            x       y       z     vdW  Elec       q    Type
REMARK                         _______ _______ _______ _____ _____    ______ ____
ROOT
ATOM      1  C   UNL     1       1.155   5.305   4.968  0.00  0.00    +0.019 C 
ATOM      2  C   UNL     1       0.429   5.068   3.642  0.00  0.00    +0.050 C 
ATOM      3  C   UNL     1      -0.586   3.950   3.819  0.00  0.00    +0.033 C 
ATOM      4  C   UNL     1      -1.553   3.763   2.673  0.00  0.00    +0.115 C 
ATOM      5  N   UNL     1      -0.862   3.269   1.472  0.00  0.00    -0.269 N 
ATOM      6  C   UNL     1      -0.357   4.207   0.560  0.00  0.00    +0.050 A 
ATOM      7  C   UNL     1      -0.993   4.391  -0.662  0.00  0.00    +0.024 A 
ATOM      8  C   UNL     1      -0.524   5.349  -1.541  0.00  0.00    +0.002 A 
ATOM      9  C   UNL     1       0.571   6.130  -1.217  0.00  0.00    +0.001 A 
ATOM     10  C   UNL     1       1.222   5.941  -0.009  0.00  0.00    +0.016 A 
ATOM     11  C   UNL     1       0.765   4.967   0.858  0.00  0.00    +0.030 A 
ATOM     12  S   UNL     1       1.639   4.615   2.364  0.00  0.00    -0.120 S 
ATOM     13  C   UNL     1      -0.723   1.947   1.250  0.00  0.00    +0.238 C 
ATOM     14  O   UNL     1      -1.166   1.148   2.048  0.00  0.00    -0.274 OA
ENDROOT
BRANCH  13  15
ATOM     15  C   UNL     1      -0.018   1.461   0.010  0.00  0.00    +0.214 C 
BRANCH  15  16
ATOM     16  N   UNL     1       0.002  -0.004   0.002  0.00  0.00    -0.215 N 
ATOM     17  C   UNL     1       0.987  -0.752   0.542  0.00  0.00    +0.247 C 
ATOM     18  O   UNL     1       1.985  -0.356   1.104  0.00  0.00    -0.273 OA
ATOM     19  C   UNL     1       0.581  -2.188   0.301  0.00  0.00    +0.113 C 
ATOM     20  C   UNL     1       1.623  -2.893  -0.561  0.00  0.00    +0.035 C 
ATOM     21  C   UNL     1       1.178  -4.333  -0.826  0.00  0.00    +0.003 C 
ATOM     22  C   UNL     1       1.010  -5.068   0.506  0.00  0.00    +0.000 C 
ATOM     23  C   UNL     1      -0.053  -4.362   1.350  0.00  0.00    +0.003 C 
ATOM     24  C   UNL     1       0.389  -2.921   1.623  0.00  0.00    +0.035 C 
ATOM     25  N   UNL     1      -0.695  -2.082  -0.419  0.00  0.00    -0.285 N 
ATOM     26  C   UNL     1      -0.952  -0.766  -0.547  0.00  0.00    +0.310 C 
ATOM     27  O   UNL     1      -1.938  -0.321  -1.099  0.00  0.00    -0.252 OA
ATOM     28  H   UNL     1      -1.243  -2.815  -0.739  0.00  0.00    +0.151 HD
ENDBRANCH  15  16
ENDBRANCH  13  15
TORSDOF 2
