REMARK  Name = ZINC18127252
REMARK  5 active torsions:
REMARK  status: ('A' for Active; 'I' for Inactive)
REMARK    1  A    between atoms: C_1  and  C_2
REMARK    2  A    between atoms: C_2  and  C_3
REMARK    3  A    between atoms: C_2  and  C_4
REMARK    4  A    between atoms: C_10  and  C_11
REMARK    5  A    between atoms: C_14  and  C_16
REMARK                            x       y       z     vdW  Elec       q    Type
REMARK                         _______ _______ _______ _____ _____    ______ ____
ROOT
ATOM      1  C   UNL     1       0.482  -1.359   0.917  0.00  0.00    +0.102 C 
ATOM      2  N   UNL     1       1.765  -1.355   1.144  0.00  0.00    -0.169 NA
ATOM      3  N   UNL     1       2.288  -1.886   2.303  0.00  0.00    -0.152 N 
ATOM      4  C   UNL     1       3.646  -1.853   2.687  0.00  0.00    +0.153 C 
ATOM      5  N   UNL     1       4.502  -0.979   2.225  0.00  0.00    -0.283 NA
ATOM      6  C   UNL     1       4.007  -2.911   3.668  0.00  0.00    +0.084 C 
ATOM      7  C   UNL     1       5.263  -3.500   3.678  0.00  0.00    +0.063 C 
ATOM      8  C   UNL     1       2.956  -3.301   4.635  0.00  0.00    +0.273 C 
ATOM      9  O   UNL     1       3.248  -3.783   5.719  0.00  0.00    -0.268 OA
ATOM     10  N   UNL     1       1.668  -3.109   4.285  0.00  0.00    -0.152 NA
ATOM     11  C   UNL     1       1.396  -2.474   3.174  0.00  0.00    +0.181 C 
ATOM     12  S   UNL     1      -0.160  -2.150   2.386  0.00  0.00    -0.038 S 
ATOM     13  H   UNL     1       5.376  -0.891   2.637  0.00  0.00    +0.188 HD
ENDROOT
BRANCH   7  14
ATOM     14  C   UNL     1       6.117  -3.350   2.573  0.00  0.00    +0.129 A 
ATOM     15  C   UNL     1       7.440  -3.763   2.505  0.00  0.00    +0.050 A 
ATOM     16  C   UNL     1       7.904  -3.420   1.236  0.00  0.00    +0.050 A 
ATOM     17  C   UNL     1       6.859  -2.811   0.574  0.00  0.00    +0.137 A 
ATOM     18  O   UNL     1       5.792  -2.783   1.391  0.00  0.00    -0.455 OA
BRANCH  17  19
ATOM     19  C   UNL     1       6.902  -2.284  -0.803  0.00  0.00    +0.036 A 
ATOM     20  C   UNL     1       7.941  -1.438  -1.199  0.00  0.00    +0.013 A 
ATOM     21  C   UNL     1       7.976  -0.949  -2.488  0.00  0.00    +0.001 A 
ATOM     22  C   UNL     1       6.984  -1.294  -3.389  0.00  0.00    +0.001 A 
ATOM     23  C   UNL     1       5.951  -2.131  -3.006  0.00  0.00    +0.021 A 
ATOM     24  C   UNL     1       5.907  -2.634  -1.721  0.00  0.00    +0.052 A 
ATOM     25 CL   UNL     1       4.615  -3.691  -1.244  0.00  0.00    -0.083 Cl
ENDBRANCH  17  19
ENDBRANCH   7  14
BRANCH   1  27
ATOM     26  C   UNL     1      -0.743   0.599   0.015  0.00  0.00    +0.014 C 
ATOM     27  C   UNL     1      -0.270  -0.827  -0.275  0.00  0.00    +0.040 C 
ATOM     28  C   UNL     1       0.652  -0.818  -1.497  0.00  0.00    +0.014 C 
ENDBRANCH   1  27
TORSDOF 3
