REMARK  Name = ZINC45030007
REMARK  6 active torsions:
REMARK  status: ('A' for Active; 'I' for Inactive)
REMARK    1  A    between atoms: C_1  and  C_2
REMARK    2  A    between atoms: C_3  and  C_20
REMARK    3  A    between atoms: C_4  and  C_13
REMARK    4  A    between atoms: N_9  and  C_10
REMARK    5  A    between atoms: C_10  and  C_11
REMARK    6  A    between atoms: N_22  and  C_23
REMARK                            x       y       z     vdW  Elec       q    Type
REMARK                         _______ _______ _______ _____ _____    ______ ____
ROOT
ATOM      1  C   UNL     1       0.146   1.524  -0.306  0.00  0.00    +0.061 C 
ATOM      2  C   UNL     1       0.068   0.034  -0.100  0.00  0.00    +0.022 C 
ATOM      3  C   UNL     1      -1.137  -0.552   0.062  0.00  0.00    +0.056 C 
ATOM      4  C   UNL     1      -1.170  -2.053   0.267  0.00  0.00    +0.142 C 
ATOM      5  N   UNL     1       0.124  -2.754   0.273  0.00  0.00    -0.288 N 
ATOM      6  C   UNL     1       1.247  -2.030   0.098  0.00  0.00    +0.307 C 
ATOM      7  O   UNL     1       2.321  -2.600   0.101  0.00  0.00    -0.252 OA
ATOM      8  N   UNL     1       1.218  -0.704  -0.084  0.00  0.00    -0.255 N 
ATOM      9  H   UNL     1       0.168  -3.715   0.400  0.00  0.00    +0.151 HD
ENDROOT
BRANCH   4  10
ATOM     10  C   UNL     1      -2.018  -2.652  -0.826  0.00  0.00    -0.022 A 
ATOM     11  C   UNL     1      -1.482  -2.851  -2.085  0.00  0.00    +0.007 A 
ATOM     12  C   UNL     1      -2.259  -3.400  -3.088  0.00  0.00    +0.020 A 
ATOM     13  C   UNL     1      -3.572  -3.751  -2.831  0.00  0.00    +0.041 A 
ATOM     14  C   UNL     1      -4.107  -3.552  -1.571  0.00  0.00    +0.020 A 
ATOM     15  C   UNL     1      -3.328  -3.007  -0.568  0.00  0.00    +0.007 A 
ATOM     16 CL   UNL     1      -4.548  -4.441  -4.090  0.00  0.00    -0.084 Cl
ENDBRANCH   4  10
BRANCH   3  17
ATOM     17  C   UNL     1      -2.331   0.211   0.041  0.00  0.00    +0.243 C 
ATOM     18  O   UNL     1      -2.902   0.476   1.083  0.00  0.00    -0.270 OA
ATOM     19  N   UNL     1      -2.834   0.644  -1.132  0.00  0.00    -0.315 N 
ATOM     20  C   UNL     1      -4.006   1.522  -1.147  0.00  0.00    +0.128 C 
ATOM     21  H   UNL     1      -2.420   0.373  -1.966  0.00  0.00    +0.149 HD
ENDBRANCH   3  17
BRANCH   8  22
ATOM     22  C   UNL     1       2.491  -0.003  -0.271  0.00  0.00    +0.141 C 
BRANCH  22  23
ATOM     23  C   UNL     1       2.983   0.508   1.058  0.00  0.00    -0.015 C 
ATOM     24  C   UNL     1       4.180   0.186   1.482  0.00  0.00    +0.005 C 
ENDBRANCH  22  23
ENDBRANCH   8  22
TORSDOF 4
