REMARK  Name = ZINC09406996
REMARK  4 active torsions:
REMARK  status: ('A' for Active; 'I' for Inactive)
REMARK    1  A    between atoms: C_4  and  O_27
REMARK    2  A    between atoms: C_5  and  C_7
REMARK    3  A    between atoms: C_9  and  C_12
REMARK    4  A    between atoms: N_17  and  C_20
REMARK                            x       y       z     vdW  Elec       q    Type
REMARK                         _______ _______ _______ _____ _____    ______ ____
ROOT
ATOM      1  C   UNL     1      -1.167  -0.904   0.008  0.00  0.00    +0.285 C 
ATOM      2  O   UNL     1      -0.205  -0.163   0.078  0.00  0.00    -0.267 OA
ATOM      3  N   UNL     1      -2.409  -0.390  -0.078  0.00  0.00    -0.292 N 
ATOM      4  C   UNL     1      -2.620   1.063  -0.174  0.00  0.00    +0.127 C 
ATOM      5  C   UNL     1      -3.541   1.339  -1.373  0.00  0.00    +0.124 C 
ATOM      6  N   UNL     1      -4.767   0.542  -1.235  0.00  0.00    -0.327 N 
ATOM      7  C   UNL     1      -4.474  -0.897  -1.271  0.00  0.00    +0.124 C 
ATOM      8  C   UNL     1      -3.591  -1.265  -0.074  0.00  0.00    +0.127 C 
ENDROOT
BRANCH   6   9
ATOM      9  C   UNL     1      -5.702   0.887  -2.216  0.00  0.00    +0.030 A 
ATOM     10  C   UNL     1      -6.214  -0.087  -3.063  0.00  0.00    +0.026 A 
ATOM     11  C   UNL     1      -7.141   0.255  -4.028  0.00  0.00    +0.040 A 
ATOM     12  C   UNL     1      -7.551   1.571  -4.159  0.00  0.00    +0.124 A 
ATOM     13  C   UNL     1      -7.038   2.546  -3.319  0.00  0.00    +0.040 A 
ATOM     14  C   UNL     1      -6.115   2.206  -2.349  0.00  0.00    +0.026 A 
ATOM     15  F   UNL     1      -8.454   1.905  -5.106  0.00  0.00    -0.205 F 
ENDBRANCH   6   9
BRANCH   1  18
ATOM     16  C   UNL     1      -0.162  -4.406   0.009  0.00  0.00    +0.118 A 
ATOM     17  C   UNL     1       0.217  -3.035  -0.025  0.00  0.00    +0.086 A 
ATOM     18  C   UNL     1      -0.973  -2.367   0.018  0.00  0.00    +0.222 A 
ATOM     19  O   UNL     1      -1.935  -3.308   0.072  0.00  0.00    -0.349 OA
ATOM     20  N   UNL     1      -1.470  -4.424   0.066  0.00  0.00    -0.077 NA
BRANCH  16  25
ATOM     21  C   UNL     1       2.962  -6.495  -0.102  0.00  0.00    +0.001 A 
ATOM     22  C   UNL     1       2.437  -7.775  -0.063  0.00  0.00    +0.004 A 
ATOM     23  C   UNL     1       1.070  -7.966  -0.001  0.00  0.00    +0.046 A 
ATOM     24  C   UNL     1       0.217  -6.875   0.028  0.00  0.00    +0.126 A 
ATOM     25  C   UNL     1       0.744  -5.580  -0.017  0.00  0.00    +0.045 A 
ATOM     26  C   UNL     1       2.123  -5.399  -0.079  0.00  0.00    +0.014 A 
BRANCH  24  27
ATOM     27  O   UNL     1      -1.127  -7.061   0.096  0.00  0.00    -0.506 OA
ATOM     28  H   UNL     1      -1.558  -7.129  -0.767  0.00  0.00    +0.292 HD
ENDBRANCH  24  27
ENDBRANCH  16  25
ENDBRANCH   1  18
TORSDOF 4
