REMARK  Name = ZINC46780789
REMARK  9 active torsions:
REMARK  status: ('A' for Active; 'I' for Inactive)
REMARK    1  A    between atoms: C_1  and  C_2
REMARK    2  A    between atoms: N_8  and  C_9
REMARK    3  A    between atoms: C_9  and  C_10
REMARK    4  A    between atoms: C_13  and  C_16
REMARK    5  A    between atoms: C_16  and  N_17
REMARK    6  A    between atoms: C_18  and  C_20
REMARK    7  A    between atoms: C_20  and  S_21
REMARK    8  A    between atoms: S_21  and  C_22
REMARK    9  A    between atoms: C_22  and  C_23
REMARK                            x       y       z     vdW  Elec       q    Type
REMARK                         _______ _______ _______ _____ _____    ______ ____
ROOT
ATOM      1  N   UNL     1       3.805  -2.278   6.927  0.00  0.00    -0.311 N 
ATOM      2  C   UNL     1       4.211  -2.754   8.121  0.00  0.00    +0.223 C 
ATOM      3  O   UNL     1       5.321  -2.491   8.533  0.00  0.00    -0.275 OA
ATOM      4  H   UNL     1       2.918  -2.488   6.597  0.00  0.00    +0.149 HD
ENDROOT
BRANCH   1   5
ATOM      5  C   UNL     1       4.705  -1.444   6.127  0.00  0.00    +0.139 C 
BRANCH   5   9
ATOM      6  C   UNL     1       2.754  -0.315   2.498  0.00  0.00    -0.064 A 
ATOM      7  C   UNL     1       2.638   0.481   3.622  0.00  0.00    +0.002 A 
ATOM      8  C   UNL     1       3.269   0.116   4.796  0.00  0.00    +0.005 A 
ATOM      9  C   UNL     1       4.016  -1.046   4.847  0.00  0.00    -0.030 A 
ATOM     10  C   UNL     1       4.131  -1.843   3.723  0.00  0.00    +0.005 A 
ATOM     11  C   UNL     1       3.497  -1.480   2.550  0.00  0.00    +0.002 A 
BRANCH   6  12
ATOM     12  C   UNL     1       2.066   0.083   1.218  0.00  0.00    -0.043 C 
BRANCH  12  19
ATOM     13  C   UNL     1      -0.019   1.526   0.010  0.00  0.00    -0.013 C 
ATOM     14  C   UNL     1       0.002  -0.004   0.002  0.00  0.00    -0.071 C 
ATOM     15  C   UNL     1      -1.434  -0.533   0.011  0.00  0.00    -0.016 C 
ATOM     16  C   UNL     1      -1.408  -2.064   0.003  0.00  0.00    -0.003 C 
ATOM     17  C   UNL     1      -0.600  -2.558   1.206  0.00  0.00    -0.019 C 
ATOM     18  C   UNL     1       0.805  -1.954   1.152  0.00  0.00    -0.078 C 
ATOM     19  N   UNL     1       0.713  -0.490   1.191  0.00  0.00    +0.384 N 
ATOM     20  H   UNL     1       0.213  -0.206   2.020  0.00  0.00    -0.081 HD
ENDBRANCH  12  19
ENDBRANCH   6  12
ENDBRANCH   5   9
ENDBRANCH   1   5
BRANCH   2  21
ATOM     21  C   UNL     1       3.285  -3.612   8.944  0.00  0.00    +0.165 C 
BRANCH  21  22
ATOM     22  S   UNL     1       4.115  -4.091  10.485  0.00  0.00    -0.144 S 
BRANCH  22  23
ATOM     23  C   UNL     1       2.884  -5.106  11.349  0.00  0.00    +0.143 C 
BRANCH  23  24
ATOM     24  C   UNL     1       3.453  -5.575  12.663  0.00  0.00    +0.121 A 
ATOM     25  N   UNL     1       2.697  -6.359  13.474  0.00  0.00    -0.310 N 
ATOM     26  H   UNL     1       1.801  -6.606  13.196  0.00  0.00    +0.170 HD
ATOM     27  C   UNL     1       3.166  -6.800  14.657  0.00  0.00    +0.260 A 
ATOM     28  O   UNL     1       2.477  -7.503  15.375  0.00  0.00    -0.267 OA
ATOM     29  C   UNL     1       4.491  -6.428  15.055  0.00  0.00    +0.075 A 
ATOM     30  C   UNL     1       5.203  -6.791  16.290  0.00  0.00    -0.023 A 
ATOM     31  C   UNL     1       6.450  -6.312  16.435  0.00  0.00    -0.004 A 
ATOM     32  S   UNL     1       6.754  -5.367  14.960  0.00  0.00    -0.073 S 
ATOM     33  C   UNL     1       5.195  -5.619  14.153  0.00  0.00    +0.116 A 
ATOM     34  N   UNL     1       4.666  -5.225  12.998  0.00  0.00    -0.226 NA
ATOM     35  C   UNL     1       7.076  -6.742  17.734  0.00  0.00    +0.043 C 
ATOM     36  C   UNL     1       5.887  -7.214  18.600  0.00  0.00    +0.010 C 
ATOM     37  C   UNL     1       4.862  -7.628  17.526  0.00  0.00    +0.037 C 
ENDBRANCH  23  24
ENDBRANCH  22  23
ENDBRANCH  21  22
ENDBRANCH   2  21
TORSDOF 8
