REMARK  Name = ZINC65902921
REMARK  2 active torsions:
REMARK  status: ('A' for Active; 'I' for Inactive)
REMARK    1  A    between atoms: C_1  and  C_2
REMARK    2  A    between atoms: C_7  and  C_8
REMARK                            x       y       z     vdW  Elec       q    Type
REMARK                         _______ _______ _______ _____ _____    ______ ____
ROOT
ATOM      1  C   UNL     1       0.116   1.504   0.012  0.00  0.00    +0.047 C 
ATOM      2  C   UNL     1       0.060  -0.002   0.002  0.00  0.00    -0.010 A 
ATOM      3  C   UNL     1       0.042  -0.831  -1.126  0.00  0.00    +0.042 A 
ATOM      4  C   UNL     1      -0.014  -2.151  -0.680  0.00  0.00    +0.027 A 
ATOM      5  N   UNL     1      -0.026  -2.134   0.653  0.00  0.00    -0.354 N 
ATOM      6  H   UNL     1      -0.060  -2.917   1.224  0.00  0.00    +0.166 HD
ATOM      7  C   UNL     1       0.024  -0.825   1.093  0.00  0.00    +0.106 A 
ATOM      8  C   UNL     1      -0.054  -3.330  -1.619  0.00  0.00    +0.054 C 
ATOM      9  C   UNL     1      -0.529  -2.862  -2.997  0.00  0.00    +0.014 C 
ATOM     10  C   UNL     1       0.314  -1.681  -3.488  0.00  0.00    +0.080 C 
ATOM     11  C   UNL     1       0.074  -0.501  -2.559  0.00  0.00    +0.165 C 
ATOM     12  O   UNL     1      -0.080   0.630  -2.970  0.00  0.00    -0.292 OA
ENDROOT
BRANCH   7  13
ATOM     13  C   UNL     1       0.032  -0.391   2.496  0.00  0.00    +0.263 C 
ATOM     14  O   UNL     1      -0.999  -0.401   3.142  0.00  0.00    -0.268 OA
ATOM     15  N   UNL     1       1.182   0.018   3.068  0.00  0.00    -0.294 N 
ATOM     16  C   UNL     1       2.380   0.128   2.237  0.00  0.00    +0.117 C 
ATOM     17  C   UNL     1       3.437  -0.869   2.728  0.00  0.00    +0.114 C 
ATOM     18  C   UNL     1       4.133  -0.279   3.934  0.00  0.00    +0.215 C 
ATOM     19  O   UNL     1       5.280   0.103   3.841  0.00  0.00    -0.276 OA
ATOM     20  N   UNL     1       3.492  -0.176   5.102  0.00  0.00    -0.314 N 
ATOM     21  C   UNL     1       2.104  -0.640   5.239  0.00  0.00    +0.123 C 
ATOM     22  C   UNL     1       1.182   0.339   4.493  0.00  0.00    +0.127 C 
ATOM     23  H   UNL     1       3.948   0.207   5.868  0.00  0.00    +0.149 HD
ENDBRANCH   7  13
TORSDOF 1
