REMARK  Name = ZINC66563564
REMARK  5 active torsions:
REMARK  status: ('A' for Active; 'I' for Inactive)
REMARK    1  A    between atoms: C_10  and  C_11
REMARK    2  A    between atoms: C_11  and  N_12
REMARK    3  A    between atoms: C_18  and  C_20
REMARK    4  A    between atoms: C_20  and  N_21
REMARK    5  A    between atoms: C_26  and  C_28
REMARK                            x       y       z     vdW  Elec       q    Type
REMARK                         _______ _______ _______ _____ _____    ______ ____
ROOT
ATOM      1  N   UNL     1       4.970   2.296   1.180  0.00  0.00    -0.295 NA
ATOM      2  C   UNL     1       4.937   1.073   1.994  0.00  0.00    +0.103 C 
ATOM      3  C   UNL     1       5.183   1.436   3.463  0.00  0.00    +0.123 C 
ATOM      4  N   UNL     1       6.431   2.208   3.551  0.00  0.00    -0.301 N 
ATOM      5  C   UNL     1       6.595   3.370   2.664  0.00  0.00    +0.123 C 
ATOM      6  C   UNL     1       6.293   2.932   1.227  0.00  0.00    +0.103 C 
ATOM      7  C   UNL     1       7.400   1.861   4.421  0.00  0.00    +0.199 C 
ATOM      8  O   UNL     1       7.248   0.900   5.145  0.00  0.00    -0.278 OA
ENDROOT
BRANCH   1   9
ATOM      9  C   UNL     1       4.569   2.016  -0.206  0.00  0.00    +0.120 C 
BRANCH   9  19
ATOM     10  C   UNL     1       0.060   4.433  -0.058  0.00  0.00    +0.001 A 
ATOM     11  C   UNL     1       1.392   4.841  -0.028  0.00  0.00    +0.001 A 
ATOM     12  C   UNL     1       2.404   3.933  -0.085  0.00  0.00    +0.009 A 
ATOM     13  C   UNL     1       2.104   2.562  -0.174  0.00  0.00    -0.013 A 
ATOM     14  C   UNL     1       0.749   2.148  -0.204  0.00  0.00    -0.018 A 
ATOM     15  C   UNL     1      -0.268   3.115  -0.143  0.00  0.00    +0.008 A 
ATOM     16  C   UNL     1       0.450   0.778  -0.292  0.00  0.00    +0.008 A 
ATOM     17  C   UNL     1       1.462  -0.130  -0.349  0.00  0.00    +0.001 A 
ATOM     18  C   UNL     1       2.794   0.277  -0.320  0.00  0.00    +0.005 A 
ATOM     19  C   UNL     1       3.122   1.595  -0.235  0.00  0.00    -0.026 A 
ENDBRANCH   9  19
ENDBRANCH   1   9
BRANCH   7  20
ATOM     20  C   UNL     1       8.671   2.666   4.494  0.00  0.00    +0.020 C 
BRANCH  20  21
ATOM     21  N   UNL     1       9.559   2.088   5.512  0.00  0.00    +0.393 N 
ATOM     22  C   UNL     1       8.955   2.258   6.839  0.00  0.00    -0.077 C 
ATOM     23  C   UNL     1       9.837   1.586   7.894  0.00  0.00    -0.019 C 
ATOM     24  C   UNL     1      11.225   2.232   7.878  0.00  0.00    -0.003 C 
ATOM     25  C   UNL     1      11.815   2.115   6.469  0.00  0.00    -0.006 C 
ATOM     26  C   UNL     1      10.860   2.767   5.467  0.00  0.00    +0.020 C 
ATOM     27  H   UNL     1       9.687   1.105   5.326  0.00  0.00    -0.080 HD
BRANCH  26  28
ATOM     28  C   UNL     1      11.436   2.655   4.079  0.00  0.00    +0.197 C 
ATOM     29  O   UNL     1      11.156   1.703   3.381  0.00  0.00    -0.278 OA
ATOM     30  N   UNL     1      12.263   3.612   3.613  0.00  0.00    -0.331 N 
ATOM     31  H   UNL     1      12.487   4.373   4.171  0.00  0.00    +0.145 HD
ATOM     32  H   UNL     1      12.634   3.540   2.720  0.00  0.00    +0.145 HD
ENDBRANCH  26  28
ENDBRANCH  20  21
ENDBRANCH   7  20
TORSDOF 5
