REMARK  Name = ZINC09516499
REMARK  6 active torsions:
REMARK  status: ('A' for Active; 'I' for Inactive)
REMARK    1  A    between atoms: C_3  and  C_6
REMARK    2  A    between atoms: C_9  and  S_17
REMARK    3  A    between atoms: N_10  and  C_11
REMARK    4  A    between atoms: S_17  and  C_18
REMARK    5  A    between atoms: C_18  and  C_19
REMARK    6  A    between atoms: N_25  and  C_26
REMARK                            x       y       z     vdW  Elec       q    Type
REMARK                         _______ _______ _______ _____ _____    ______ ____
ROOT
ATOM      1  C   UNL     1      -4.768   5.339   0.216  0.00  0.00    +0.153 C 
ENDROOT
BRANCH   1   2
ATOM      2  C   UNL     1      -5.555   6.616   0.366  0.00  0.00    +0.146 A 
ATOM      3  N   UNL     1      -5.934   7.019   1.566  0.00  0.00    -0.199 NA
ATOM      4  C   UNL     1      -6.625   8.149   1.703  0.00  0.00    +0.217 A 
ATOM      5  N   UNL     1      -6.942   8.866   0.630  0.00  0.00    -0.181 NA
ATOM      6  C   UNL     1      -6.563   8.454  -0.575  0.00  0.00    +0.224 A 
ATOM      7  N   UNL     1      -5.868   7.326  -0.703  0.00  0.00    -0.198 NA
ATOM      8  N   UNL     1      -6.889   9.196  -1.694  0.00  0.00    -0.284 N 
ATOM      9  N   UNL     1      -7.016   8.572   2.957  0.00  0.00    -0.327 N 
ATOM     10  H   UNL     1      -6.545   8.940  -2.563  0.00  0.00    +0.155 HD
ATOM     11  H   UNL     1      -7.522   9.394   3.055  0.00  0.00    +0.145 HD
ATOM     12  H   UNL     1      -6.784   8.049   3.739  0.00  0.00    +0.145 HD
BRANCH   8  13
ATOM     13  C   UNL     1      -7.716  10.319  -1.572  0.00  0.00    +0.034 A 
ATOM     14  C   UNL     1      -8.728  10.337  -0.621  0.00  0.00    +0.026 A 
ATOM     15  C   UNL     1      -9.540  11.448  -0.498  0.00  0.00    +0.040 A 
ATOM     16  C   UNL     1      -9.353  12.538  -1.331  0.00  0.00    +0.124 A 
ATOM     17  C   UNL     1      -8.348  12.520  -2.284  0.00  0.00    +0.040 A 
ATOM     18  C   UNL     1      -7.530  11.413  -2.406  0.00  0.00    +0.026 A 
ATOM     19  F   UNL     1     -10.151  13.622  -1.214  0.00  0.00    -0.205 F 
ENDBRANCH   8  13
ENDBRANCH   1   2
BRANCH   1  20
ATOM     20  S   UNL     1      -2.998   5.707   0.314  0.00  0.00    -0.078 S 
BRANCH  20  24
ATOM     21  C   UNL     1      -0.984   2.380  -0.078  0.00  0.00    +0.201 A 
ATOM     22  N   UNL     1      -2.232   1.976  -0.172  0.00  0.00    -0.125 NA
ATOM     23  N   UNL     1      -3.027   2.979  -0.053  0.00  0.00    -0.122 NA
ATOM     24  C   UNL     1      -2.338   4.085   0.115  0.00  0.00    +0.193 A 
ATOM     25  N   UNL     1      -1.014   3.745   0.105  0.00  0.00    -0.297 N 
BRANCH  25  26
ATOM     26  C   UNL     1       0.132   4.644   0.257  0.00  0.00    +0.091 C 
ATOM     27  C   UNL     1       0.050   5.351   1.611  0.00  0.00    +0.025 C 
ATOM     28  C   UNL     1       1.247   6.290   1.770  0.00  0.00    +0.002 C 
ATOM     29  C   UNL     1       1.231   7.331   0.648  0.00  0.00    +0.000 C 
ATOM     30  C   UNL     1       1.314   6.623  -0.706  0.00  0.00    +0.002 C 
ATOM     31  C   UNL     1       0.116   5.684  -0.864  0.00  0.00    +0.025 C 
ENDBRANCH  25  26
BRANCH  21  34
ATOM     32  C   UNL     1       1.596  -0.210  -0.196  0.00  0.00    +0.042 A 
ATOM     33  C   UNL     1       0.249   0.176  -0.053  0.00  0.00    +0.053 A 
ATOM     34  C   UNL     1       0.217   1.534  -0.159  0.00  0.00    +0.172 A 
ATOM     35  O   UNL     1       1.478   1.968  -0.357  0.00  0.00    -0.460 OA
ATOM     36  C   UNL     1       2.313   0.916  -0.380  0.00  0.00    +0.196 A 
ENDBRANCH  21  34
ENDBRANCH  20  24
ENDBRANCH   1  20
TORSDOF 6
