REMARK  Name = ZINC08997132
REMARK  7 active torsions:
REMARK  status: ('A' for Active; 'I' for Inactive)
REMARK    1  A    between atoms: C_1  and  C_2
REMARK    2  A    between atoms: C_2  and  C_3
REMARK    3  A    between atoms: C_2  and  C_4
REMARK    4  A    between atoms: C_2  and  C_5
REMARK    5  A    between atoms: C_5  and  C_7
REMARK    6  A    between atoms: C_9  and  C_33
REMARK    7  A    between atoms: C_36  and  N_39
REMARK                            x       y       z     vdW  Elec       q    Type
REMARK                         _______ _______ _______ _____ _____    ______ ____
ROOT
ATOM      1  C   UNL     1       0.773  -1.059  -2.479  0.00  0.00    +0.150 C 
ATOM      2  C   UNL     1      -0.584  -1.484  -3.102  0.00  0.00    +0.070 C 
ATOM      3  C   UNL     1      -0.431  -0.996  -4.558  0.00  0.00    +0.127 C 
ATOM      4  C   UNL     1       1.044  -1.244  -4.860  0.00  0.00    +0.119 C 
ATOM      5  N   UNL     1       1.754  -1.132  -3.562  0.00  0.00    -0.311 N 
ATOM      6  C   UNL     1       3.140  -1.038  -3.507  0.00  0.00    +0.038 A 
ATOM      7  C   UNL     1       3.906  -1.541  -2.479  0.00  0.00    +0.024 A 
ATOM      8  C   UNL     1       5.284  -1.411  -2.527  0.00  0.00    +0.002 A 
ATOM      9  C   UNL     1       5.890  -0.780  -3.600  0.00  0.00    +0.001 A 
ATOM     10  C   UNL     1       5.133  -0.265  -4.635  0.00  0.00    +0.010 A 
ATOM     11  C   UNL     1       3.748  -0.381  -4.597  0.00  0.00    -0.004 A 
ATOM     12  C   UNL     1       2.886   0.183  -5.654  0.00  0.00    +0.007 C 
ATOM     13  C   UNL     1       1.612  -0.220  -5.805  0.00  0.00    -0.003 C 
ATOM     14  C   UNL     1      -0.798   0.456  -4.686  0.00  0.00    +0.180 C 
ATOM     15  O   UNL     1      -0.296   1.385  -4.091  0.00  0.00    -0.291 OA
ATOM     16  C   UNL     1      -1.880   0.530  -5.671  0.00  0.00    +0.029 A 
ATOM     17  C   UNL     1      -2.565   1.651  -6.149  0.00  0.00    +0.012 A 
ATOM     18  C   UNL     1      -3.559   1.428  -7.094  0.00  0.00    +0.001 A 
ATOM     19  C   UNL     1      -3.866   0.162  -7.550  0.00  0.00    +0.001 A 
ATOM     20  C   UNL     1      -3.201  -0.968  -7.091  0.00  0.00    +0.012 A 
ATOM     21  C   UNL     1      -2.196  -0.772  -6.139  0.00  0.00    +0.029 A 
ATOM     22  C   UNL     1      -1.335  -1.760  -5.485  0.00  0.00    +0.180 C 
ATOM     23  O   UNL     1      -1.348  -2.960  -5.657  0.00  0.00    -0.291 OA
ENDROOT
BRANCH   2  24
ATOM     24  C   UNL     1      -1.732  -0.789  -2.417  0.00  0.00    -0.041 A 
ATOM     25  C   UNL     1      -2.838  -0.398  -3.148  0.00  0.00    +0.006 A 
ATOM     26  C   UNL     1      -3.892   0.240  -2.521  0.00  0.00    +0.033 A 
ATOM     27  C   UNL     1      -3.840   0.485  -1.161  0.00  0.00    +0.126 A 
ATOM     28  C   UNL     1      -2.735   0.093  -0.430  0.00  0.00    +0.033 A 
ATOM     29  C   UNL     1      -1.683  -0.548  -1.057  0.00  0.00    +0.006 A 
BRANCH  27  30
ATOM     30  N   UNL     1      -4.968   1.169  -0.489  0.00  0.00    +0.056 N 
ATOM     31  O   UNL     1      -5.934   1.512  -1.129  0.00  0.00    -0.126 OA
ATOM     32  O   UNL     1      -4.922   1.384   0.700  0.00  0.00    -0.126 OA
ENDBRANCH  27  30
ENDBRANCH   2  24
BRANCH   1  33
ATOM     33  C   UNL     1       0.683   0.351  -1.954  0.00  0.00    +0.159 C 
ATOM     34  O   UNL     1      -0.309   1.009  -2.156  0.00  0.00    -0.295 OA
BRANCH  33  36
ATOM     35  C   UNL     1       1.352   2.176  -0.413  0.00  0.00    +0.018 C 
ATOM     36  C   UNL     1       1.832   0.939  -1.175  0.00  0.00    +0.022 C 
ATOM     37  C   UNL     1       2.951   1.337  -2.140  0.00  0.00    +0.018 C 
ATOM     38  C   UNL     1       2.360  -0.099  -0.182  0.00  0.00    +0.018 C 
ENDBRANCH  33  36
ENDBRANCH   1  33
TORSDOF 4
