REMARK  Name = ZINC29879322
REMARK  9 active torsions:
REMARK  status: ('A' for Active; 'I' for Inactive)
REMARK    1  A    between atoms: C_1  and  C_2
REMARK    2  A    between atoms: C_5  and  S_24
REMARK    3  A    between atoms: C_7  and  C_8
REMARK    4  A    between atoms: N_10  and  C_11
REMARK    5  A    between atoms: C_11  and  C_12
REMARK    6  A    between atoms: C_12  and  C_14
REMARK    7  A    between atoms: C_12  and  N_15
REMARK    8  A    between atoms: S_24  and  N_27
REMARK    9  A    between atoms: N_27  and  C_28
REMARK                            x       y       z     vdW  Elec       q    Type
REMARK                         _______ _______ _______ _____ _____    ______ ____
ROOT
ATOM      1  C   UNL     1      -2.684   9.175   1.997  0.00  0.00    +0.044 C 
ATOM      2  C   UNL     1      -3.451   8.440   0.928  0.00  0.00    -0.038 A 
ATOM      3  C   UNL     1      -4.308   9.129   0.094  0.00  0.00    +0.006 A 
ATOM      4  C   UNL     1      -5.017   8.455  -0.884  0.00  0.00    +0.029 A 
ATOM      5  C   UNL     1      -4.867   7.088  -1.037  0.00  0.00    +0.109 A 
ATOM      6  C   UNL     1      -4.010   6.388  -0.214  0.00  0.00    +0.042 A 
ATOM      7  C   UNL     1      -3.292   7.062   0.775  0.00  0.00    +0.041 A 
ENDROOT
BRANCH   7   8
ATOM      8  C   UNL     1      -2.372   6.318   1.662  0.00  0.00    +0.244 C 
ATOM      9  O   UNL     1      -1.666   6.920   2.447  0.00  0.00    -0.270 OA
ATOM     10  N   UNL     1      -2.316   4.973   1.599  0.00  0.00    -0.313 N 
ATOM     11  H   UNL     1      -2.955   4.429   0.888  0.00  0.00    +0.149 HD
BRANCH  10  12
ATOM     12  C   UNL     1      -1.404   4.236   2.478  0.00  0.00    +0.089 C 
BRANCH  12  13
ATOM     13  C   UNL     1      -1.617   2.733   2.288  0.00  0.00    -0.054 C 
ATOM     14  C   UNL     1      -0.570   1.964   3.096  0.00  0.00    -0.012 C 
BRANCH  13  15
ATOM     15  N   UNL     1      -1.483   2.394   0.865  0.00  0.00    +0.385 N 
ATOM     16  C   UNL     1      -1.863   0.995   0.619  0.00  0.00    -0.073 C 
ATOM     17  C   UNL     1      -2.104   0.807  -0.889  0.00  0.00    +0.024 C 
ATOM     18  C   UNL     1      -0.965   1.444  -1.616  0.00  0.00    -0.011 A 
ATOM     19  C   UNL     1      -0.044   2.301  -1.093  0.00  0.00    -0.054 A 
ATOM     20  C   UNL     1       0.935   2.770  -1.966  0.00  0.00    +0.009 A 
ATOM     21  C   UNL     1       0.936   2.371  -3.260  0.00  0.00    +0.045 A 
ATOM     22  S   UNL     1      -0.482   1.285  -3.312  0.00  0.00    -0.101 S 
ATOM     23  C   UNL     1      -0.131   2.694   0.378  0.00  0.00    -0.042 C 
ATOM     24  H   UNL     1      -2.179   3.026   0.293  0.00  0.00    -0.081 HD
ENDBRANCH  13  15
ENDBRANCH  12  13
ENDBRANCH  10  12
ENDBRANCH   7   8
BRANCH   5  25
ATOM     25  S   UNL     1      -5.775   6.239  -2.287  0.00  0.00    +0.072 S 
ATOM     26  O   UNL     1      -6.016   7.180  -3.324  0.00  0.00    -0.150 OA
ATOM     27  O   UNL     1      -5.099   5.010  -2.515  0.00  0.00    -0.150 OA
BRANCH  25  28
ATOM     28  N   UNL     1      -7.251   5.854  -1.643  0.00  0.00    -0.216 N 
ATOM     29  H   UNL     1      -7.537   4.800  -1.514  0.00  0.00    +0.174 HD
BRANCH  28  30
ATOM     30  C   UNL     1      -8.135   6.869  -1.265  0.00  0.00    +0.048 A 
ATOM     31  C   UNL     1      -8.354   7.135   0.080  0.00  0.00    +0.027 A 
ATOM     32  C   UNL     1      -9.224   8.142   0.451  0.00  0.00    +0.040 A 
ATOM     33  C   UNL     1      -9.886   8.878  -0.517  0.00  0.00    +0.124 A 
ATOM     34  C   UNL     1      -9.673   8.611  -1.859  0.00  0.00    +0.040 A 
ATOM     35  C   UNL     1      -8.800   7.609  -2.235  0.00  0.00    +0.027 A 
ATOM     36  F   UNL     1     -10.740   9.859  -0.152  0.00  0.00    -0.205 F 
ENDBRANCH  28  30
ENDBRANCH  25  28
ENDBRANCH   5  25
TORSDOF 7
