REMARK  Name = ZINC43209796
REMARK  8 active torsions:
REMARK  status: ('A' for Active; 'I' for Inactive)
REMARK    1  A    between atoms: C_4  and  C_7
REMARK    2  A    between atoms: C_7  and  C_8
REMARK    3  A    between atoms: C_8  and  C_10
REMARK    4  A    between atoms: C_8  and  N_16
REMARK    5  A    between atoms: C_17  and  C_19
REMARK    6  A    between atoms: C_22  and  C_24
REMARK    7  A    between atoms: N_27  and  C_30
REMARK    8  A    between atoms: C_28  and  N_29
REMARK                            x       y       z     vdW  Elec       q    Type
REMARK                         _______ _______ _______ _____ _____    ______ ____
ROOT
ATOM      1  C   UNL     1       2.161  -2.769   4.066  0.00  0.00    +0.164 A 
ATOM      2  C   UNL     1       1.932  -2.860   5.404  0.00  0.00    +0.230 A 
ATOM      3  O   UNL     1       0.998  -3.810   5.584  0.00  0.00    -0.443 OA
ATOM      4  C   UNL     1       0.656  -4.297   4.377  0.00  0.00    +0.233 A 
ATOM      5  N   UNL     1       1.347  -3.671   3.455  0.00  0.00    -0.204 NA
ENDROOT
BRANCH   4   6
ATOM      6  C   UNL     1      -0.339  -5.357   4.132  0.00  0.00    +0.096 A 
ATOM      7  C   UNL     1      -0.707  -5.886   2.876  0.00  0.00    +0.150 A 
ATOM      8  N   UNL     1      -1.614  -6.804   3.066  0.00  0.00    -0.172 NA
ATOM      9  N   UNL     1      -1.875  -6.915   4.436  0.00  0.00    -0.218 N 
ATOM     10  C   UNL     1      -1.085  -6.026   5.093  0.00  0.00    +0.132 A 
BRANCH   9  11
ATOM     11  C   UNL     1      -2.791  -7.794   5.030  0.00  0.00    +0.067 A 
ATOM     12  C   UNL     1      -2.516  -8.352   6.271  0.00  0.00    +0.028 A 
ATOM     13  C   UNL     1      -3.420  -9.218   6.853  0.00  0.00    +0.002 A 
ATOM     14  C   UNL     1      -4.599  -9.530   6.201  0.00  0.00    +0.000 A 
ATOM     15  C   UNL     1      -4.876  -8.976   4.965  0.00  0.00    +0.002 A 
ATOM     16  C   UNL     1      -3.978  -8.104   4.380  0.00  0.00    +0.028 A 
ENDBRANCH   9  11
BRANCH  10  17
ATOM     17  N   UNL     1      -1.034  -5.824   6.462  0.00  0.00    -0.342 N 
ATOM     18  H   UNL     1      -0.433  -5.159   6.832  0.00  0.00    +0.144 HD
ATOM     19  H   UNL     1      -1.600  -6.347   7.051  0.00  0.00    +0.144 HD
ENDBRANCH  10  17
ENDBRANCH   4   6
BRANCH   1  21
ATOM     20  N   UNL     1       3.229  -1.870   2.059  0.00  0.00    -0.303 N 
ATOM     21  C   UNL     1       3.109  -1.856   3.402  0.00  0.00    +0.266 C 
ATOM     22  O   UNL     1       3.783  -1.091   4.065  0.00  0.00    -0.268 OA
ATOM     23  H   UNL     1       2.691  -2.480   1.530  0.00  0.00    +0.150 HD
BRANCH  20  24
ATOM     24  C   UNL     1       4.171  -0.963   1.399  0.00  0.00    +0.108 C 
BRANCH  24  25
ATOM     25  C   UNL     1       5.543  -1.588   1.383  0.00  0.00    -0.027 A 
ATOM     26  C   UNL     1       5.683  -2.940   1.128  0.00  0.00    +0.005 A 
ATOM     27  C   UNL     1       6.941  -3.513   1.114  0.00  0.00    +0.000 A 
ATOM     28  C   UNL     1       8.058  -2.735   1.354  0.00  0.00    +0.000 A 
ATOM     29  C   UNL     1       7.917  -1.384   1.608  0.00  0.00    +0.000 A 
ATOM     30  C   UNL     1       6.660  -0.809   1.618  0.00  0.00    +0.005 A 
ENDBRANCH  24  25
BRANCH  24  31
ATOM     31  C   UNL     1       3.711  -0.707  -0.038  0.00  0.00    +0.062 C 
BRANCH  31  35
ATOM     32  C   UNL     1      -0.017   1.378   0.010  0.00  0.00    +0.000 A 
ATOM     33  C   UNL     1       1.171   2.086   0.002  0.00  0.00    +0.000 A 
ATOM     34  C   UNL     1       2.377   1.411  -0.013  0.00  0.00    +0.004 A 
ATOM     35  C   UNL     1       2.396   0.029  -0.020  0.00  0.00    -0.045 A 
ATOM     36  C   UNL     1       1.208  -0.679  -0.012  0.00  0.00    +0.004 A 
ATOM     37  C   UNL     1       0.002  -0.004   0.002  0.00  0.00    +0.000 A 
ENDBRANCH  31  35
ENDBRANCH  24  31
ENDBRANCH  20  24
ENDBRANCH   1  21
TORSDOF 8
