REMARK  Name = ZINC62941097
REMARK  2 active torsions:
REMARK  status: ('A' for Active; 'I' for Inactive)
REMARK    1  A    between atoms: C_6  and  C_20
REMARK    2  A    between atoms: C_7  and  N_9
REMARK                            x       y       z     vdW  Elec       q    Type
REMARK                         _______ _______ _______ _____ _____    ______ ____
ROOT
ATOM      1  C   UNL     1       1.073   0.918   1.203  0.00  0.00    +0.101 A 
ATOM      2  C   UNL     1       1.465   1.925   0.420  0.00  0.00    +0.067 A 
ATOM      3  S   UNL     1       1.186   1.248  -1.209  0.00  0.00    -0.058 S 
ATOM      4  C   UNL     1       0.563  -0.339  -0.699  0.00  0.00    +0.180 A 
ATOM      5  N   UNL     1       0.605  -0.255   0.658  0.00  0.00    -0.286 N 
ATOM      6  C   UNL     1       0.116  -1.500   1.113  0.00  0.00    +0.177 A 
ATOM      7  C   UNL     1      -0.188  -2.248  -0.023  0.00  0.00    +0.155 A 
ATOM      8  N   UNL     1       0.101  -1.502  -1.087  0.00  0.00    -0.205 NA
ENDROOT
BRANCH   7   9
ATOM      9  N   UNL     1      -0.698  -3.537  -0.041  0.00  0.00    -0.315 N 
ATOM     10  C   UNL     1      -2.139  -3.741  -0.155  0.00  0.00    +0.104 C 
ATOM     11  C   UNL     1      -2.519  -4.876  -1.109  0.00  0.00    +0.000 C 
ATOM     12  C   UNL     1      -1.620  -4.818  -2.357  0.00  0.00    -0.077 C 
ATOM     13  N   UNL     1      -0.457  -5.624  -2.126  0.00  0.00    +0.383 N 
ATOM     14  C   UNL     1       0.116  -6.338  -3.267  0.00  0.00    -0.078 C 
ATOM     15  C   UNL     1       1.533  -6.774  -2.813  0.00  0.00    -0.020 C 
ATOM     16  C   UNL     1       1.685  -6.212  -1.373  0.00  0.00    -0.016 C 
ATOM     17  C   UNL     1       0.625  -5.091  -1.348  0.00  0.00    -0.051 C 
ATOM     18  C   UNL     1       0.221  -4.682   0.049  0.00  0.00    +0.091 C 
ATOM     19  H   UNL     1      -0.799  -6.380  -1.551  0.00  0.00    -0.081 HD
ENDBRANCH   7   9
BRANCH   6  20
ATOM     20  C   UNL     1      -0.034  -1.903   2.446  0.00  0.00    +0.406 C 
ATOM     21  O   UNL     1       0.397  -1.116   3.434  0.00  0.00    -0.239 OA
ATOM     22  O   UNL     1      -0.609  -3.075   2.728  0.00  0.00    -0.239 OA
ENDBRANCH   6  20
TORSDOF 2
