REMARK  Name = ZINC09474384
REMARK  4 active torsions:
REMARK  status: ('A' for Active; 'I' for Inactive)
REMARK    1  A    between atoms: C_9  and  C_11
REMARK    2  A    between atoms: C_11  and  S_12
REMARK    3  A    between atoms: S_12  and  C_13
REMARK    4  A    between atoms: N_22  and  C_23
REMARK                            x       y       z     vdW  Elec       q    Type
REMARK                         _______ _______ _______ _____ _____    ______ ____
ROOT
ATOM      1  C   UNL     1      -1.055   3.071   0.703  0.00  0.00    +0.177 A 
ATOM      2  N   UNL     1       0.056   3.756   0.730  0.00  0.00    -0.222 NA
ATOM      3  C   UNL     1       1.178   3.338   0.071  0.00  0.00    +0.086 A 
ATOM      4  C   UNL     1       2.433   3.961   0.008  0.00  0.00    +0.036 A 
ATOM      5  C   UNL     1       3.436   3.397  -0.699  0.00  0.00    +0.048 A 
ATOM      6  S   UNL     1       2.679   1.915  -1.344  0.00  0.00    -0.090 S 
ATOM      7  C   UNL     1       1.067   2.128  -0.636  0.00  0.00    +0.102 A 
ATOM      8  C   UNL     1      -0.122   1.403  -0.660  0.00  0.00    +0.274 A 
ATOM      9  O   UNL     1      -0.204   0.355  -1.279  0.00  0.00    -0.266 OA
ATOM     10  N   UNL     1      -1.187   1.895   0.018  0.00  0.00    -0.255 N 
ENDROOT
BRANCH  10  11
ATOM     11  C   UNL     1      -2.406   1.205   0.020  0.00  0.00    +0.052 A 
ATOM     12  C   UNL     1      -2.665   0.253   0.998  0.00  0.00    +0.027 A 
ATOM     13  C   UNL     1      -3.869  -0.422   1.001  0.00  0.00    +0.017 A 
ATOM     14  C   UNL     1      -4.814  -0.159   0.024  0.00  0.00    +0.018 A 
ATOM     15  C   UNL     1      -4.556   0.785  -0.954  0.00  0.00    +0.017 A 
ATOM     16  C   UNL     1      -3.355   1.467  -0.958  0.00  0.00    +0.027 A 
ATOM     17 BR   UNL     1      -6.459  -1.091   0.027  0.00  0.00    -0.050 Br
ENDBRANCH  10  11
BRANCH   1  18
ATOM     18  S   UNL     1      -2.449   3.693   1.584  0.00  0.00    -0.079 S 
BRANCH  18  19
ATOM     19  C   UNL     1      -1.738   5.211   2.267  0.00  0.00    +0.151 C 
BRANCH  19  28
ATOM     20  C   UNL     1      -5.701   7.765   6.019  0.00  0.00    +0.002 A 
ATOM     21  C   UNL     1      -6.075   8.444   4.867  0.00  0.00    +0.002 A 
ATOM     22  C   UNL     1      -5.441   8.206   3.681  0.00  0.00    +0.030 A 
ATOM     23  C   UNL     1      -4.405   7.270   3.620  0.00  0.00    +0.089 A 
ATOM     24  C   UNL     1      -4.026   6.583   4.785  0.00  0.00    +0.066 A 
ATOM     25  C   UNL     1      -4.681   6.838   5.982  0.00  0.00    +0.028 A 
ATOM     26  N   UNL     1      -2.995   5.743   4.413  0.00  0.00    -0.341 N 
ATOM     27  H   UNL     1      -2.499   5.113   5.011  0.00  0.00    +0.167 HD
ATOM     28  C   UNL     1      -2.780   5.931   3.083  0.00  0.00    +0.118 A 
ATOM     29  N   UNL     1      -3.601   6.827   2.620  0.00  0.00    -0.232 NA
ENDBRANCH  19  28
ENDBRANCH  18  19
ENDBRANCH   1  18
TORSDOF 4
