REMARK  Name = ZINC24752253
REMARK  18 active torsions:
REMARK  status: ('A' for Active; 'I' for Inactive)
REMARK    1  A    between atoms: C_1  and  C_2
REMARK    2  A    between atoms: C_2  and  C_3
REMARK    3  A    between atoms: C_3  and  C_4
REMARK    4  A    between atoms: C_4  and  N_5
REMARK    5  A    between atoms: C_6  and  N_40
REMARK    6  A    between atoms: C_7  and  N_14
REMARK    7  A    between atoms: N_14  and  C_15
REMARK    8  A    between atoms: C_15  and  C_16
REMARK    9  A    between atoms: C_16  and  C_17
REMARK   10  A    between atoms: C_17  and  C_18
REMARK   11  A    between atoms: C_19  and  C_21
REMARK   12  A    between atoms: N_26  and  C_28
REMARK   13  A    between atoms: C_28  and  C_29
REMARK   14  A    between atoms: C_29  and  C_30
REMARK   15  A    between atoms: C_33  and  O_38
REMARK   16  A    between atoms: C_34  and  O_36
REMARK   17  A    between atoms: O_36  and  C_37
REMARK   18  A    between atoms: O_38  and  C_39
REMARK                            x       y       z     vdW  Elec       q    Type
REMARK                         _______ _______ _______ _____ _____    ______ ____
ROOT
ATOM      1  N   UNL     1       4.726  -4.452   3.495  0.00  0.00    -0.264 N 
ATOM      2  C   UNL     1       5.645  -3.747   2.801  0.00  0.00    +0.225 C 
ATOM      3  O   UNL     1       6.652  -3.357   3.353  0.00  0.00    -0.275 OA
ENDROOT
BRANCH   1   6
ATOM      4  N   UNL     1       1.159  -4.569   2.622  0.00  0.00    -0.280 N 
ATOM      5  C   UNL     1       2.330  -4.192   3.236  0.00  0.00    +0.127 A 
ATOM      6  C   UNL     1       3.508  -4.817   2.883  0.00  0.00    +0.140 A 
ATOM      7  C   UNL     1       3.474  -5.825   1.902  0.00  0.00    +0.277 A 
ATOM      8  O   UNL     1       4.501  -6.395   1.571  0.00  0.00    -0.266 OA
ATOM      9  N   UNL     1       2.300  -6.158   1.331  0.00  0.00    -0.273 N 
ATOM     10  H   UNL     1       2.275  -6.853   0.655  0.00  0.00    +0.173 HD
ATOM     11  C   UNL     1       1.161  -5.541   1.692  0.00  0.00    +0.331 A 
ATOM     12  O   UNL     1       0.114  -5.864   1.164  0.00  0.00    -0.246 OA
BRANCH   5  13
ATOM     13  N   UNL     1       2.327  -3.202   4.191  0.00  0.00    -0.343 N 
ATOM     14  H   UNL     1       1.487  -2.833   4.503  0.00  0.00    +0.144 HD
ATOM     15  H   UNL     1       3.166  -2.874   4.552  0.00  0.00    +0.144 HD
ENDBRANCH   5  13
BRANCH   4  16
ATOM     16  C   UNL     1      -0.099  -3.914   2.987  0.00  0.00    +0.128 C 
BRANCH  16  17
ATOM     17  C   UNL     1      -0.752  -4.672   4.145  0.00  0.00    +0.021 C 
BRANCH  17  19
ATOM     18  C   UNL     1      -2.719  -4.746   5.684  0.00  0.00    +0.004 C 
ATOM     19  C   UNL     1      -2.066  -3.987   4.526  0.00  0.00    -0.002 C 
ENDBRANCH  17  19
ENDBRANCH  16  17
ENDBRANCH   4  16
ENDBRANCH   1   6
BRANCH   2  20
ATOM     20  C   UNL     1       5.419  -3.445   1.342  0.00  0.00    +0.101 C 
ATOM     21  C   UNL     1       4.940  -1.988   1.147  0.00  0.00    +0.110 C 
ATOM     22  C   UNL     1       5.616  -1.544  -0.132  0.00  0.00    +0.216 C 
ATOM     23  O   UNL     1       5.296  -0.574  -0.786  0.00  0.00    -0.276 OA
ATOM     24  N   UNL     1       6.623  -2.380  -0.437  0.00  0.00    -0.300 N 
ATOM     25  C   UNL     1       6.753  -3.446   0.564  0.00  0.00    +0.121 C 
BRANCH  24  26
ATOM     26  C   UNL     1       7.481  -2.246  -1.617  0.00  0.00    +0.112 C 
BRANCH  26  27
ATOM     27  C   UNL     1       8.691  -1.377  -1.271  0.00  0.00    +0.054 C 
BRANCH  27  28
ATOM     28  C   UNL     1       9.574  -1.238  -2.485  0.00  0.00    -0.042 A 
ATOM     29  C   UNL     1      10.582  -2.157  -2.713  0.00  0.00    +0.007 A 
ATOM     30  C   UNL     1      11.394  -2.034  -3.825  0.00  0.00    +0.049 A 
ATOM     31  C   UNL     1      11.198  -0.990  -4.714  0.00  0.00    +0.161 A 
ATOM     32  C   UNL     1      10.183  -0.066  -4.485  0.00  0.00    +0.162 A 
ATOM     33  C   UNL     1       9.370  -0.197  -3.371  0.00  0.00    +0.053 A 
BRANCH  32  34
ATOM     34  O   UNL     1       9.987   0.962  -5.354  0.00  0.00    -0.491 OA
ATOM     35  C   UNL     1       8.927   1.872  -5.055  0.00  0.00    +0.277 C 
ENDBRANCH  32  34
BRANCH  31  36
ATOM     36  O   UNL     1      11.996  -0.867  -5.809  0.00  0.00    -0.491 OA
ATOM     37  C   UNL     1      13.017  -1.852  -5.980  0.00  0.00    +0.277 C 
ENDBRANCH  31  36
ENDBRANCH  27  28
ENDBRANCH  26  27
ENDBRANCH  24  26
ENDBRANCH   2  20
BRANCH   1  38
ATOM     38  C   UNL     1       4.993  -4.837   4.883  0.00  0.00    +0.114 C 
BRANCH  38  39
ATOM     39  C   UNL     1       5.706  -6.191   4.908  0.00  0.00    +0.019 C 
BRANCH  39  40
ATOM     40  C   UNL     1       5.923  -6.626   6.358  0.00  0.00    -0.002 C 
ATOM     41  C   UNL     1       6.636  -7.980   6.383  0.00  0.00    +0.004 C 
ENDBRANCH  39  40
ENDBRANCH  38  39
ENDBRANCH   1  38
TORSDOF 14
