REMARK  Name = ZINC14476087
REMARK  6 active torsions:
REMARK  status: ('A' for Active; 'I' for Inactive)
REMARK    1  A    between atoms: C_1  and  C_2
REMARK    2  A    between atoms: C_2  and  C_3
REMARK    3  A    between atoms: C_2  and  C_4
REMARK    4  A    between atoms: C_11  and  C_20
REMARK    5  A    between atoms: C_22  and  N_27
REMARK    6  A    between atoms: C_25  and  O_26
REMARK                            x       y       z     vdW  Elec       q    Type
REMARK                         _______ _______ _______ _____ _____    ______ ____
ROOT
ATOM      1  C   UNL     1       0.731  -0.503   1.223  0.00  0.00    -0.024 A 
ATOM      2  C   UNL     1       2.075  -0.233   1.379  0.00  0.00    +0.006 A 
ATOM      3  C   UNL     1       2.751  -0.689   2.496  0.00  0.00    +0.001 A 
ATOM      4  C   UNL     1       2.081  -1.425   3.456  0.00  0.00    +0.006 A 
ATOM      5  C   UNL     1       0.740  -1.704   3.308  0.00  0.00    -0.019 A 
ATOM      6  C   UNL     1       0.045  -1.229   2.189  0.00  0.00    +0.035 A 
ATOM      7  N   UNL     1      -1.328  -1.453   2.031  0.00  0.00    -0.336 N 
ATOM      8  C   UNL     1      -2.097  -2.232   3.026  0.00  0.00    +0.108 C 
ATOM      9  C   UNL     1      -1.466  -1.917   4.371  0.00  0.00    +0.029 C 
ATOM     10  C   UNL     1      -0.019  -2.504   4.293  0.00  0.00    +0.049 C 
ATOM     11  C   UNL     1       0.386  -2.587   5.719  0.00  0.00    -0.023 C 
ATOM     12  C   UNL     1      -0.703  -2.748   6.460  0.00  0.00    -0.030 C 
ATOM     13  C   UNL     1      -1.968  -2.714   5.582  0.00  0.00    +0.033 C 
ATOM     14  H   UNL     1      -1.783  -1.091   1.255  0.00  0.00    +0.147 HD
ENDROOT
BRANCH   8  15
ATOM     15  C   UNL     1      -1.988  -3.706   2.730  0.00  0.00    +0.017 A 
ATOM     16  C   UNL     1      -0.896  -4.194   2.039  0.00  0.00    +0.041 A 
ATOM     17  C   UNL     1      -0.795  -5.545   1.767  0.00  0.00    +0.127 A 
ATOM     18  C   UNL     1      -1.787  -6.413   2.186  0.00  0.00    +0.036 A 
ATOM     19  C   UNL     1      -2.881  -5.930   2.878  0.00  0.00    +0.048 A 
ATOM     20  C   UNL     1      -2.982  -4.575   3.157  0.00  0.00    +0.122 A 
BRANCH  17  21
ATOM     21  N   UNL     1       0.376  -6.065   1.026  0.00  0.00    +0.056 N 
ATOM     22  O   UNL     1       1.243  -5.307   0.658  0.00  0.00    -0.126 OA
ATOM     23  O   UNL     1       0.465  -7.247   0.787  0.00  0.00    -0.126 OA
ENDBRANCH  17  21
BRANCH  20  24
ATOM     24  O   UNL     1      -4.054  -4.099   3.841  0.00  0.00    -0.506 OA
ATOM     25  H   UNL     1      -4.797  -3.840   3.279  0.00  0.00    +0.292 HD
ENDBRANCH  20  24
ENDBRANCH   8  15
BRANCH   1  27
ATOM     26  C   UNL     1      -0.038   1.525   0.022  0.00  0.00    +0.012 C 
ATOM     27  C   UNL     1       0.002  -0.004   0.002  0.00  0.00    +0.015 C 
ATOM     28  C   UNL     1       0.731  -0.479  -1.257  0.00  0.00    +0.012 C 
ENDBRANCH   1  27
TORSDOF 4
