REMARK  Name = ZINC02646254
REMARK  8 active torsions:
REMARK  status: ('A' for Active; 'I' for Inactive)
REMARK    1  A    between atoms: C_3  and  S_26
REMARK    2  A    between atoms: C_6  and  C_7
REMARK    3  A    between atoms: C_7  and  C_8
REMARK    4  A    between atoms: C_8  and  N_9
REMARK    5  A    between atoms: C_10  and  C_12
REMARK    6  A    between atoms: C_12  and  N_13
REMARK    7  A    between atoms: N_16  and  C_19
REMARK    8  A    between atoms: S_26  and  N_29
REMARK                            x       y       z     vdW  Elec       q    Type
REMARK                         _______ _______ _______ _____ _____    ______ ____
ROOT
ATOM      1  N   UNL     1      -2.986  -1.759  -1.441  0.00  0.00    -0.317 N 
ATOM      2  C   UNL     1      -3.581  -2.105  -2.600  0.00  0.00    +0.196 C 
ATOM      3  O   UNL     1      -3.070  -1.802  -3.658  0.00  0.00    -0.278 OA
ATOM      4  H   UNL     1      -3.394  -2.001  -0.595  0.00  0.00    +0.149 HD
ENDROOT
BRANCH   1   5
ATOM      5  C   UNL     1      -1.722  -1.017  -1.460  0.00  0.00    +0.109 C 
BRANCH   5   6
ATOM      6  C   UNL     1      -1.265  -0.753  -0.024  0.00  0.00    +0.054 C 
BRANCH   6  12
ATOM      7  C   UNL     1       0.025   1.392  -0.048  0.00  0.00    +0.005 A 
ATOM      8  C   UNL     1       1.217   2.091  -0.065  0.00  0.00    +0.029 A 
ATOM      9  C   UNL     1       2.419   1.409  -0.076  0.00  0.00    +0.105 A 
ATOM     10  C   UNL     1       2.429   0.026  -0.070  0.00  0.00    +0.029 A 
ATOM     11  C   UNL     1       1.236  -0.673  -0.052  0.00  0.00    +0.005 A 
ATOM     12  C   UNL     1       0.035   0.009  -0.042  0.00  0.00    -0.046 A 
BRANCH   9  13
ATOM     13  S   UNL     1       3.938   2.300  -0.098  0.00  0.00    +0.056 S 
ATOM     14  O   UNL     1       4.912   1.429  -0.657  0.00  0.00    -0.153 OA
ATOM     15  O   UNL     1       3.652   3.577  -0.652  0.00  0.00    -0.153 OA
BRANCH  13  16
ATOM     16  N   UNL     1       4.380   2.556   1.477  0.00  0.00    -0.204 NA
ATOM     17  H   UNL     1       3.820   2.226   2.197  0.00  0.00    +0.144 HD
ATOM     18  H   UNL     1       5.198   3.036   1.680  0.00  0.00    +0.144 HD
ENDBRANCH  13  16
ENDBRANCH   9  13
ENDBRANCH   6  12
ENDBRANCH   5   6
ENDBRANCH   1   5
BRANCH   2  19
ATOM     19  C   UNL     1      -4.880  -2.868  -2.581  0.00  0.00    +0.019 C 
BRANCH  19  20
ATOM     20  N   UNL     1      -5.319  -3.121  -3.960  0.00  0.00    +0.387 N 
ATOM     21  C   UNL     1      -5.616  -1.844  -4.620  0.00  0.00    -0.059 C 
ATOM     22  C   UNL     1      -5.963  -2.098  -6.091  0.00  0.00    +0.086 C 
ATOM     23  N   UNL     1      -7.057  -3.080  -6.149  0.00  0.00    -0.333 N 
ATOM     24  C   UNL     1      -6.912  -4.326  -5.379  0.00  0.00    +0.086 C 
ATOM     25  C   UNL     1      -6.520  -3.966  -3.942  0.00  0.00    -0.059 C 
ATOM     26  H   UNL     1      -4.584  -3.594  -4.464  0.00  0.00    -0.081 HD
BRANCH  23  27
ATOM     27  C   UNL     1      -8.202  -2.837  -6.913  0.00  0.00    +0.030 A 
ATOM     28  C   UNL     1      -8.370  -1.610  -7.542  0.00  0.00    +0.026 A 
ATOM     29  C   UNL     1      -9.502  -1.373  -8.298  0.00  0.00    +0.040 A 
ATOM     30  C   UNL     1     -10.468  -2.356  -8.428  0.00  0.00    +0.124 A 
ATOM     31  C   UNL     1     -10.302  -3.580  -7.802  0.00  0.00    +0.040 A 
ATOM     32  C   UNL     1      -9.169  -3.824  -7.050  0.00  0.00    +0.026 A 
ATOM     33  F   UNL     1     -11.574  -2.121  -9.167  0.00  0.00    -0.205 F 
ENDBRANCH  23  27
ENDBRANCH  19  20
ENDBRANCH   2  19
TORSDOF 8
