REMARK  Name = ZINC22937295
REMARK  9 active torsions:
REMARK  status: ('A' for Active; 'I' for Inactive)
REMARK    1  A    between atoms: C_1  and  C_2
REMARK    2  A    between atoms: C_9  and  S_15
REMARK    3  A    between atoms: S_15  and  N_18
REMARK    4  A    between atoms: N_18  and  C_19
REMARK    5  A    between atoms: C_19  and  C_20
REMARK    6  A    between atoms: C_20  and  C_21
REMARK    7  A    between atoms: C_21  and  N_22
REMARK    8  A    between atoms: N_25  and  C_28
REMARK    9  A    between atoms: C_28  and  C_29
REMARK                            x       y       z     vdW  Elec       q    Type
REMARK                         _______ _______ _______ _____ _____    ______ ____
ROOT
ATOM      1  N   UNL     1       5.610  -5.269   1.940  0.00  0.00    -0.190 NA
ATOM      2  H   UNL     1       6.258  -5.868   1.537  0.00  0.00    +0.148 HD
ENDROOT
BRANCH   1   3
ATOM      3  S   UNL     1       4.044  -5.766   2.152  0.00  0.00    +0.058 S 
ATOM      4  O   UNL     1       3.699  -5.458   3.495  0.00  0.00    -0.153 OA
ATOM      5  O   UNL     1       3.962  -7.084   1.627  0.00  0.00    -0.153 OA
BRANCH   3  13
ATOM      6  C   UNL     1      -0.019   1.526   0.010  0.00  0.00    +0.018 C 
ATOM      7  C   UNL     1       0.002  -0.004   0.002  0.00  0.00    +0.082 C 
ATOM      8  C   UNL     1       0.677  -0.475  -1.254  0.00  0.00    +0.087 C 
ATOM      9  S   UNL     1       0.443  -2.213  -1.593  0.00  0.00    -0.123 S 
ATOM     10  C   UNL     1       1.428  -3.128  -0.477  0.00  0.00    +0.029 A 
ATOM     11  C   UNL     1       1.968  -4.328  -0.961  0.00  0.00    +0.018 A 
ATOM     12  C   UNL     1       2.759  -5.132  -0.175  0.00  0.00    +0.030 A 
ATOM     13  C   UNL     1       3.032  -4.752   1.126  0.00  0.00    +0.107 A 
ATOM     14  C   UNL     1       2.510  -3.579   1.615  0.00  0.00    +0.053 A 
ATOM     15  C   UNL     1       1.697  -2.746   0.828  0.00  0.00    +0.049 A 
ATOM     16  N   UNL     1       1.250  -1.618   1.466  0.00  0.00    -0.284 N 
ATOM     17  C   UNL     1       0.695  -0.483   1.228  0.00  0.00    +0.221 C 
ATOM     18  O   UNL     1       0.739   0.314   2.142  0.00  0.00    -0.275 OA
ATOM     19  H   UNL     1       1.407  -1.706   2.419  0.00  0.00    +0.155 HD
ENDBRANCH   3  13
ENDBRANCH   1   3
BRANCH   1  20
ATOM     20  C   UNL     1       6.015  -3.926   2.360  0.00  0.00    +0.104 C 
BRANCH  20  21
ATOM     21  C   UNL     1       7.542  -3.845   2.408  0.00  0.00    -0.002 C 
BRANCH  21  22
ATOM     22  C   UNL     1       7.966  -2.442   2.847  0.00  0.00    -0.077 C 
BRANCH  22  23
ATOM     23  N   UNL     1       9.432  -2.365   2.892  0.00  0.00    +0.381 N 
ATOM     24  C   UNL     1       9.973  -2.529   1.536  0.00  0.00    -0.063 C 
ATOM     25  C   UNL     1      11.501  -2.467   1.586  0.00  0.00    +0.066 C 
ATOM     26  N   UNL     1      11.918  -1.174   2.145  0.00  0.00    -0.302 NA
ATOM     27  C   UNL     1      11.364  -0.985   3.493  0.00  0.00    +0.066 C 
ATOM     28  C   UNL     1       9.837  -1.058   3.428  0.00  0.00    -0.063 C 
ATOM     29  H   UNL     1       9.789  -3.097   3.487  0.00  0.00    -0.082 HD
BRANCH  26  30
ATOM     30  C   UNL     1      13.383  -1.053   2.156  0.00  0.00    +0.119 C 
BRANCH  30  31
ATOM     31  C   UNL     1      13.767   0.363   2.501  0.00  0.00    -0.033 A 
ATOM     32  C   UNL     1      13.923   1.300   1.497  0.00  0.00    +0.005 A 
ATOM     33  C   UNL     1      14.276   2.599   1.812  0.00  0.00    +0.000 A 
ATOM     34  C   UNL     1      14.472   2.960   3.132  0.00  0.00    +0.000 A 
ATOM     35  C   UNL     1      14.315   2.023   4.136  0.00  0.00    +0.000 A 
ATOM     36  C   UNL     1      13.958   0.725   3.821  0.00  0.00    +0.005 A 
ENDBRANCH  30  31
ENDBRANCH  26  30
ENDBRANCH  22  23
ENDBRANCH  21  22
ENDBRANCH  20  21
ENDBRANCH   1  20
TORSDOF 8
