REMARK  Name = ZINC40729775
REMARK  10 active torsions:
REMARK  status: ('A' for Active; 'I' for Inactive)
REMARK    1  A    between atoms: C_1  and  C_2
REMARK    2  A    between atoms: C_2  and  C_37
REMARK    3  A    between atoms: C_4  and  N_10
REMARK    4  A    between atoms: C_6  and  C_8
REMARK    5  A    between atoms: C_6  and  C_9
REMARK    6  A    between atoms: C_12  and  N_36
REMARK    7  A    between atoms: C_13  and  N_17
REMARK    8  A    between atoms: N_20  and  C_23
REMARK    9  A    between atoms: C_23  and  C_24
REMARK   10  A    between atoms: C_23  and  C_30
REMARK                            x       y       z     vdW  Elec       q    Type
REMARK                         _______ _______ _______ _____ _____    ______ ____
ROOT
ATOM      1  N   UNL     1       1.727  -2.357  -2.466  0.00  0.00    -0.325 N 
ATOM      2  C   UNL     1       1.592  -3.655  -2.945  0.00  0.00    +0.145 A 
ATOM      3  C   UNL     1       2.208  -4.037  -4.138  0.00  0.00    +0.105 A 
ATOM      4  C   UNL     1       2.041  -5.353  -4.574  0.00  0.00    +0.147 A 
ATOM      5  N   UNL     1       1.305  -6.186  -3.842  0.00  0.00    -0.219 NA
ATOM      6  C   UNL     1       0.740  -5.784  -2.722  0.00  0.00    +0.225 A 
ATOM      7  N   UNL     1       0.877  -4.553  -2.272  0.00  0.00    -0.219 NA
ATOM      8  H   UNL     1       2.250  -1.708  -2.963  0.00  0.00    +0.148 HD
ENDROOT
BRANCH   1  12
ATOM      9  C   UNL     1       0.226   1.524   0.139  0.00  0.00    -0.010 C 
ATOM     10  C   UNL     1       0.194  -0.021   0.102  0.00  0.00    -0.072 C 
ATOM     11  C   UNL     1       0.838  -0.459  -1.210  0.00  0.00    +0.009 C 
ATOM     12  C   UNL     1       1.079  -1.968  -1.207  0.00  0.00    +0.069 C 
ATOM     13  C   UNL     1       2.007  -2.301  -0.039  0.00  0.00    +0.009 C 
ATOM     14  C   UNL     1       1.372  -1.878   1.282  0.00  0.00    -0.072 C 
ATOM     15  N   UNL     1       0.896  -0.505   1.277  0.00  0.00    +0.386 N 
ATOM     16  C   UNL     1       2.458  -1.996   2.376  0.00  0.00    -0.010 C 
ATOM     17  C   UNL     1       0.251  -2.854   1.653  0.00  0.00    -0.010 C 
ATOM     18  C   UNL     1      -1.280  -0.441   0.121  0.00  0.00    -0.010 C 
ATOM     19  H   UNL     1       1.697   0.111   1.448  0.00  0.00    -0.084 HD
ATOM     20  H   UNL     1       0.288  -0.374   2.091  0.00  0.00    -0.084 HD
ENDBRANCH   1  12
BRANCH   4  21
ATOM     21  N   UNL     1       2.632  -5.785  -5.755  0.00  0.00    -0.311 N 
ATOM     22  C   UNL     1       3.948  -6.442  -5.743  0.00  0.00    +0.122 C 
ATOM     23  C   UNL     1       3.845  -7.754  -6.528  0.00  0.00    +0.104 C 
ATOM     24  N   UNL     1       3.300  -7.479  -7.864  0.00  0.00    -0.289 NA
ATOM     25  C   UNL     1       1.934  -6.944  -7.783  0.00  0.00    +0.104 C 
ATOM     26  C   UNL     1       1.956  -5.604  -7.049  0.00  0.00    +0.122 C 
BRANCH  24  27
ATOM     27  C   UNL     1       3.344  -8.681  -8.709  0.00  0.00    +0.117 C 
BRANCH  27  28
ATOM     28  C   UNL     1       2.778  -8.361 -10.068  0.00  0.00    -0.026 A 
ATOM     29  C   UNL     1       3.073  -7.154 -10.673  0.00  0.00    +0.005 A 
ATOM     30  C   UNL     1       2.554  -6.861 -11.920  0.00  0.00    +0.000 A 
ATOM     31  C   UNL     1       1.739  -7.775 -12.562  0.00  0.00    +0.000 A 
ATOM     32  C   UNL     1       1.445  -8.983 -11.957  0.00  0.00    +0.000 A 
ATOM     33  C   UNL     1       1.968  -9.278 -10.712  0.00  0.00    +0.005 A 
ENDBRANCH  27  28
BRANCH  27  34
ATOM     34  C   UNL     1       4.772  -9.139  -8.854  0.00  0.00    -0.026 A 
ATOM     35  C   UNL     1       5.784  -8.210  -9.013  0.00  0.00    +0.005 A 
ATOM     36  C   UNL     1       7.094  -8.631  -9.147  0.00  0.00    +0.000 A 
ATOM     37  C   UNL     1       7.393  -9.980  -9.121  0.00  0.00    +0.000 A 
ATOM     38  C   UNL     1       6.381 -10.909  -8.962  0.00  0.00    +0.000 A 
ATOM     39  C   UNL     1       5.072 -10.489  -8.823  0.00  0.00    +0.005 A 
ENDBRANCH  27  34
ENDBRANCH  24  27
ENDBRANCH   4  21
BRANCH   3  40
ATOM     40  N   UNL     1       2.976  -3.124  -4.879  0.00  0.00    -0.353 N 
ATOM     41  H   UNL     1       3.011  -2.192  -4.613  0.00  0.00    +0.143 HD
ATOM     42  H   UNL     1       3.472  -3.425  -5.657  0.00  0.00    +0.143 HD
ENDBRANCH   3  40
TORSDOF 6
