REMARK  Name = ZINC39252928
REMARK  7 active torsions:
REMARK  status: ('A' for Active; 'I' for Inactive)
REMARK    1  A    between atoms: C_4  and  C_7
REMARK    2  A    between atoms: C_7  and  C_9
REMARK    3  A    between atoms: C_7  and  S_22
REMARK    4  A    between atoms: N_11  and  C_12
REMARK    5  A    between atoms: C_15  and  S_18
REMARK    6  A    between atoms: S_18  and  N_21
REMARK    7  A    between atoms: S_22  and  C_23
REMARK                            x       y       z     vdW  Elec       q    Type
REMARK                         _______ _______ _______ _____ _____    ______ ____
ROOT
ATOM      1  C   UNL     1       3.705  -0.705  -0.039  0.00  0.00    +0.170 C 
ENDROOT
BRANCH   1   5
ATOM      2  C   UNL     1      -0.037   1.355  -0.003  0.00  0.00    +0.000 A 
ATOM      3  C   UNL     1       1.145   2.070  -0.010  0.00  0.00    +0.000 A 
ATOM      4  C   UNL     1       2.356   1.403  -0.022  0.00  0.00    +0.005 A 
ATOM      5  C   UNL     1       2.385   0.021  -0.026  0.00  0.00    -0.025 A 
ATOM      6  C   UNL     1       1.202  -0.694  -0.018  0.00  0.00    +0.005 A 
ATOM      7  C   UNL     1      -0.009  -0.028  -0.007  0.00  0.00    +0.000 A 
ENDBRANCH   1   5
BRANCH   1   8
ATOM      8  C   UNL     1       3.792  -1.567  -1.273  0.00  0.00    +0.235 C 
ATOM      9  O   UNL     1       3.477  -2.737  -1.219  0.00  0.00    -0.274 OA
ATOM     10  N   UNL     1       4.218  -1.036  -2.436  0.00  0.00    -0.284 N 
ATOM     11  H   UNL     1       4.405  -0.087  -2.497  0.00  0.00    +0.155 HD
BRANCH  10  12
ATOM     12  C   UNL     1       4.391  -1.856  -3.557  0.00  0.00    +0.034 A 
ATOM     13  C   UNL     1       5.425  -1.605  -4.450  0.00  0.00    +0.025 A 
ATOM     14  C   UNL     1       5.593  -2.416  -5.555  0.00  0.00    +0.030 A 
ATOM     15  C   UNL     1       4.733  -3.477  -5.773  0.00  0.00    +0.105 A 
ATOM     16  C   UNL     1       3.703  -3.730  -4.886  0.00  0.00    +0.030 A 
ATOM     17  C   UNL     1       3.533  -2.926  -3.775  0.00  0.00    +0.025 A 
BRANCH  15  18
ATOM     18  S   UNL     1       4.951  -4.510  -7.184  0.00  0.00    +0.056 S 
ATOM     19  O   UNL     1       3.687  -5.101  -7.453  0.00  0.00    -0.153 OA
ATOM     20  O   UNL     1       5.651  -3.736  -8.149  0.00  0.00    -0.153 OA
BRANCH  18  21
ATOM     21  N   UNL     1       5.965  -5.741  -6.738  0.00  0.00    -0.204 NA
ATOM     22  H   UNL     1       6.312  -5.780  -5.833  0.00  0.00    +0.144 HD
ATOM     23  H   UNL     1       6.211  -6.423  -7.382  0.00  0.00    +0.144 HD
ENDBRANCH  18  21
ENDBRANCH  15  18
ENDBRANCH  10  12
ENDBRANCH   1   8
BRANCH   1  24
ATOM     24  S   UNL     1       3.835  -1.750   1.438  0.00  0.00    -0.067 S 
BRANCH  24  25
ATOM     25  C   UNL     1       3.867  -0.599   2.772  0.00  0.00    +0.208 C 
ATOM     26  N   UNL     1       3.792   0.679   2.488  0.00  0.00    -0.227 NA
ATOM     27  C   UNL     1       3.738   1.621   3.603  0.00  0.00    +0.252 C 
ATOM     28  C   UNL     1       4.474   0.959   4.759  0.00  0.00    +0.117 C 
ATOM     29  C   UNL     1       5.343   1.898   5.225  0.00  0.00    +0.025 A 
ATOM     30  C   UNL     1       6.215   1.917   6.342  0.00  0.00    +0.012 A 
ATOM     31  C   UNL     1       6.979   3.028   6.521  0.00  0.00    +0.001 A 
ATOM     32  C   UNL     1       6.955   4.142   5.677  0.00  0.00    +0.002 A 
ATOM     33  C   UNL     1       6.155   4.237   4.582  0.00  0.00    +0.026 A 
ATOM     34  C   UNL     1       5.285   3.080   4.311  0.00  0.00    +0.046 A 
ATOM     35  N   UNL     1       4.414   2.889   3.368  0.00  0.00    -0.358 N 
ATOM     36  N   UNL     1       4.301  -0.337   5.039  0.00  0.00    -0.147 NA
ATOM     37  N   UNL     1       3.961  -1.087   4.034  0.00  0.00    -0.122 NA
ATOM     38  H   UNL     1       4.242   3.492   2.627  0.00  0.00    +0.162 HD
ENDBRANCH  24  25
ENDBRANCH   1  24
TORSDOF 7
