REMARK  Name = ZINC39628574
REMARK  11 active torsions:
REMARK  status: ('A' for Active; 'I' for Inactive)
REMARK    1  A    between atoms: C_1  and  C_2
REMARK    2  A    between atoms: N_8  and  C_9
REMARK    3  A    between atoms: C_9  and  C_10
REMARK    4  A    between atoms: C_10  and  C_11
REMARK    5  A    between atoms: C_11  and  N_12
REMARK    6  A    between atoms: C_13  and  C_15
REMARK    7  A    between atoms: C_26  and  C_28
REMARK    8  A    between atoms: C_30  and  O_36
REMARK    9  A    between atoms: C_33  and  O_34
REMARK   10  A    between atoms: O_34  and  C_35
REMARK   11  A    between atoms: O_36  and  C_37
REMARK                            x       y       z     vdW  Elec       q    Type
REMARK                         _______ _______ _______ _____ _____    ______ ____
ROOT
ATOM      1  C   UNL     1       6.782  -0.094   5.317  0.00  0.00    +0.100 C 
ATOM      2  C   UNL     1       6.111   0.595   6.527  0.00  0.00    +0.121 C 
ATOM      3  N   UNL     1       7.231   0.921   7.440  0.00  0.00    -0.296 N 
ATOM      4  C   UNL     1       8.323   1.363   6.540  0.00  0.00    +0.115 C 
ATOM      5  C   UNL     1       8.233   0.414   5.329  0.00  0.00    -0.004 C 
ATOM      6  C   UNL     1       8.539   1.173   4.041  0.00  0.00    -0.010 C 
ATOM      7  C   UNL     1      10.004   1.617   4.051  0.00  0.00    -0.082 C 
ATOM      8  N   UNL     1      10.873   0.439   4.166  0.00  0.00    +0.379 N 
ATOM      9  C   UNL     1      10.638  -0.232   5.450  0.00  0.00    -0.082 C 
ATOM     10  C   UNL     1       9.200  -0.754   5.500  0.00  0.00    -0.010 C 
ATOM     11  C   UNL     1       7.252   0.836   8.785  0.00  0.00    +0.250 C 
ATOM     12  O   UNL     1       6.303   0.360   9.379  0.00  0.00    -0.270 OA
ATOM     13  H   UNL     1      10.673  -0.200   3.412  0.00  0.00    -0.086 HD
ATOM     14  H   UNL     1      11.838   0.729   4.111  0.00  0.00    -0.086 HD
ENDROOT
BRANCH  11  15
ATOM     15  C   UNL     1       8.425   1.320   9.537  0.00  0.00    +0.082 A 
ATOM     16  C   UNL     1       9.133   2.439   9.090  0.00  0.00    +0.062 A 
ATOM     17  C   UNL     1      10.231   2.887   9.799  0.00  0.00    +0.121 A 
ATOM     18  C   UNL     1      10.633   2.228  10.955  0.00  0.00    +0.049 A 
ATOM     19  C   UNL     1       9.940   1.122  11.403  0.00  0.00    +0.050 A 
ATOM     20  C   UNL     1       8.832   0.664  10.705  0.00  0.00    +0.132 A 
BRANCH  20  21
ATOM     21  O   UNL     1       8.148  -0.421  11.150  0.00  0.00    -0.494 OA
ATOM     22  C   UNL     1       8.621  -1.039  12.349  0.00  0.00    +0.277 C 
ENDBRANCH  20  21
BRANCH  17  23
ATOM     23  O   UNL     1      10.921   3.976   9.365  0.00  0.00    -0.495 OA
ATOM     24  C   UNL     1      12.046   4.385  10.146  0.00  0.00    +0.277 C 
ENDBRANCH  17  23
ENDBRANCH  11  15
BRANCH   1  26
ATOM     25  N   UNL     1       6.222  -0.456   2.935  0.00  0.00    -0.315 N 
ATOM     26  C   UNL     1       6.096   0.309   4.037  0.00  0.00    +0.218 C 
ATOM     27  O   UNL     1       5.430   1.322   3.999  0.00  0.00    -0.275 OA
ATOM     28  H   UNL     1       6.754  -1.266   2.965  0.00  0.00    +0.149 HD
BRANCH  25  29
ATOM     29  C   UNL     1       5.555  -0.065   1.691  0.00  0.00    +0.102 C 
BRANCH  29  30
ATOM     30  C   UNL     1       5.858  -1.097   0.603  0.00  0.00    +0.000 C 
BRANCH  30  31
ATOM     31  C   UNL     1       5.161  -0.688  -0.697  0.00  0.00    -0.077 C 
BRANCH  31  38
ATOM     32  C   UNL     1       3.198  -1.290  -2.612  0.00  0.00    -0.013 C 
ATOM     33  C   UNL     1       4.689  -1.351  -2.951  0.00  0.00    -0.072 C 
ATOM     34  C   UNL     1       4.926  -2.426  -4.014  0.00  0.00    -0.016 C 
ATOM     35  C   UNL     1       6.418  -2.483  -4.351  0.00  0.00    -0.003 C 
ATOM     36  C   UNL     1       7.211  -2.751  -3.068  0.00  0.00    -0.019 C 
ATOM     37  C   UNL     1       6.889  -1.664  -2.040  0.00  0.00    -0.078 C 
ATOM     38  N   UNL     1       5.452  -1.679  -1.741  0.00  0.00    +0.381 N 
ATOM     39  H   UNL     1       5.186  -2.596  -1.415  0.00  0.00    -0.081 HD
ENDBRANCH  31  38
ENDBRANCH  30  31
ENDBRANCH  29  30
ENDBRANCH  25  29
ENDBRANCH   1  26
TORSDOF 8
