REMARK  Name = ZINC11416060
REMARK  12 active torsions:
REMARK  status: ('A' for Active; 'I' for Inactive)
REMARK    1  A    between atoms: C_1  and  C_2
REMARK    2  A    between atoms: C_2  and  C_3
REMARK    3  A    between atoms: C_3  and  C_4
REMARK    4  A    between atoms: C_4  and  C_6
REMARK    5  A    between atoms: C_4  and  N_12
REMARK    6  A    between atoms: C_13  and  C_15
REMARK    7  A    between atoms: C_15  and  S_16
REMARK    8  A    between atoms: S_16  and  C_17
REMARK    9  A    between atoms: C_20  and  C_29
REMARK   10  A    between atoms: N_21  and  C_22
REMARK   11  A    between atoms: C_29  and  C_31
REMARK   12  A    between atoms: C_29  and  N_69
REMARK                            x       y       z     vdW  Elec       q    Type
REMARK                         _______ _______ _______ _____ _____    ______ ____
ROOT
ATOM      1  C   UNL     1      -1.255   3.044   3.061  0.00  0.00    +0.197 A 
ATOM      2  N   UNL     1      -2.161   2.131   2.800  0.00  0.00    -0.122 NA
ATOM      3  N   UNL     1      -1.843   1.490   1.732  0.00  0.00    -0.135 NA
ATOM      4  C   UNL     1      -0.723   1.951   1.250  0.00  0.00    +0.125 A 
ATOM      5  N   UNL     1      -0.303   2.954   2.082  0.00  0.00    -0.275 N 
ENDROOT
BRANCH   5   6
ATOM      6  C   UNL     1       0.858   3.731   1.955  0.00  0.00    +0.050 A 
ATOM      7  C   UNL     1       2.107   3.137   2.073  0.00  0.00    +0.029 A 
ATOM      8  C   UNL     1       3.250   3.902   1.943  0.00  0.00    +0.040 A 
ATOM      9  C   UNL     1       3.150   5.263   1.706  0.00  0.00    +0.124 A 
ATOM     10  C   UNL     1       1.905   5.858   1.593  0.00  0.00    +0.040 A 
ATOM     11  C   UNL     1       0.760   5.095   1.717  0.00  0.00    +0.029 A 
ATOM     12  F   UNL     1       4.269   6.010   1.585  0.00  0.00    -0.205 F 
ENDBRANCH   5   6
BRANCH   4  13
ATOM     13  C   UNL     1      -0.018   1.465   0.010  0.00  0.00    -0.002 C 
ATOM     14  C   UNL     1      -0.758   1.972  -1.229  0.00  0.00    -0.005 C 
BRANCH  13  20
ATOM     15  C   UNL     1       0.617  -0.529   1.228  0.00  0.00    -0.078 C 
ATOM     16  C   UNL     1       0.490  -2.054   1.252  0.00  0.00    -0.019 C 
ATOM     17  C   UNL     1       1.185  -2.638   0.019  0.00  0.00    -0.004 C 
ATOM     18  C   UNL     1       0.558  -2.039  -1.243  0.00  0.00    -0.019 C 
ATOM     19  C   UNL     1       0.683  -0.515  -1.195  0.00  0.00    -0.078 C 
ATOM     20  N   UNL     1      -0.027  -0.013   0.001  0.00  0.00    +0.386 N 
ATOM     21  H   UNL     1      -0.999  -0.340  -0.027  0.00  0.00    -0.081 HD
ENDBRANCH  13  20
ENDBRANCH   4  13
BRANCH   1  22
ATOM     22  S   UNL     1      -1.259   4.167   4.419  0.00  0.00    -0.076 S 
BRANCH  22  23
ATOM     23  C   UNL     1      -2.794   3.666   5.237  0.00  0.00    +0.173 C 
BRANCH  23  25
ATOM     24  N   UNL     1      -4.098   4.320   7.234  0.00  0.00    -0.308 N 
ATOM     25  C   UNL     1      -3.010   4.516   6.462  0.00  0.00    +0.224 C 
ATOM     26  O   UNL     1      -2.207   5.376   6.754  0.00  0.00    -0.275 OA
ATOM     27  H   UNL     1      -4.741   3.632   7.001  0.00  0.00    +0.149 HD
BRANCH  24  28
ATOM     28  C   UNL     1      -4.309   5.146   8.425  0.00  0.00    +0.103 C 
BRANCH  28  29
ATOM     29  C   UNL     1      -5.779   5.192   8.751  0.00  0.00    -0.027 A 
ATOM     30  C   UNL     1      -6.552   4.053   8.620  0.00  0.00    +0.005 A 
ATOM     31  C   UNL     1      -7.900   4.094   8.922  0.00  0.00    +0.000 A 
ATOM     32  C   UNL     1      -8.478   5.276   9.348  0.00  0.00    +0.000 A 
ATOM     33  C   UNL     1      -7.706   6.416   9.474  0.00  0.00    +0.000 A 
ATOM     34  C   UNL     1      -6.357   6.374   9.175  0.00  0.00    +0.005 A 
ENDBRANCH  28  29
BRANCH  28  35
ATOM     35  C   UNL     1      -3.543   4.544   9.605  0.00  0.00    +0.027 C 
BRANCH  35  37
ATOM     36  C   UNL     1      -1.276   4.010  10.507  0.00  0.00    +0.004 C 
ATOM     37  C   UNL     1      -2.041   4.612   9.327  0.00  0.00    -0.001 C 
ENDBRANCH  35  37
ENDBRANCH  28  35
ENDBRANCH  24  28
ENDBRANCH  23  25
ENDBRANCH  22  23
ENDBRANCH   1  22
TORSDOF 10
