REMARK  Name = ZINC38742380
REMARK  5 active torsions:
REMARK  status: ('A' for Active; 'I' for Inactive)
REMARK    1  A    between atoms: C_1  and  C_2
REMARK    2  A    between atoms: C_2  and  C_3
REMARK    3  A    between atoms: C_2  and  C_4
REMARK    4  A    between atoms: C_6  and  C_10
REMARK    5  A    between atoms: C_18  and  C_20
REMARK                            x       y       z     vdW  Elec       q    Type
REMARK                         _______ _______ _______ _____ _____    ______ ____
ROOT
ATOM      1  C   UNL     1       1.690  -2.982   3.249  0.00  0.00    +0.206 C 
ATOM      2  N   UNL     1       0.503  -3.780   3.639  0.00  0.00    -0.231 NA
ATOM      3  N   UNL     1       0.793  -4.339   4.971  0.00  0.00    -0.224 NA
ATOM      4  C   UNL     1       1.792  -3.397   5.515  0.00  0.00    +0.240 C 
ATOM      5  N   UNL     1       2.684  -3.193   4.326  0.00  0.00    -0.206 N 
ATOM      6  N   UNL     1       4.025  -3.345   4.606  0.00  0.00    -0.173 NA
ATOM      7  C   UNL     1       4.460  -3.921   5.688  0.00  0.00    +0.125 C 
ATOM      8  S   UNL     1       2.951  -4.235   6.659  0.00  0.00    -0.063 S 
ATOM      9  H   UNL     1       0.325  -4.513   2.970  0.00  0.00    +0.143 HD
ATOM     10  H   UNL     1       1.177  -5.269   4.896  0.00  0.00    +0.144 HD
ENDROOT
BRANCH   7  11
ATOM     11  C   UNL     1       5.857  -4.239   6.053  0.00  0.00    +0.009 A 
ATOM     12  C   UNL     1       6.139  -4.871   7.265  0.00  0.00    +0.012 A 
ATOM     13  C   UNL     1       7.445  -5.165   7.599  0.00  0.00    +0.020 A 
ATOM     14  C   UNL     1       8.475  -4.833   6.735  0.00  0.00    +0.041 A 
ATOM     15  C   UNL     1       8.202  -4.205   5.531  0.00  0.00    +0.020 A 
ATOM     16  C   UNL     1       6.900  -3.912   5.183  0.00  0.00    +0.012 A 
ATOM     17 CL   UNL     1      10.116  -5.206   7.163  0.00  0.00    -0.084 Cl
ENDBRANCH   7  11
BRANCH   1  20
ATOM     18  C   UNL     1       0.731  -0.503   1.223  0.00  0.00    +0.064 C 
ATOM     19  C   UNL     1       0.194  -1.291   2.157  0.00  0.00    +0.030 C 
ATOM     20  C   UNL     1       1.322  -1.500   3.152  0.00  0.00    +0.190 C 
ATOM     21  N   UNL     1       2.427  -0.722   2.567  0.00  0.00    -0.177 NA
ATOM     22  N   UNL     1       2.019  -0.219   1.517  0.00  0.00    -0.158 NA
BRANCH  18  24
ATOM     23  C   UNL     1      -0.019   1.526   0.010  0.00  0.00    +0.014 C 
ATOM     24  C   UNL     1       0.002  -0.004   0.002  0.00  0.00    +0.033 C 
ATOM     25  C   UNL     1       0.718  -0.497  -1.257  0.00  0.00    +0.014 C 
ENDBRANCH  18  24
ENDBRANCH   1  20
TORSDOF 3
