REMARK  Name = ZINC64701215
REMARK  11 active torsions:
REMARK  status: ('A' for Active; 'I' for Inactive)
REMARK    1  A    between atoms: C_1  and  C_2
REMARK    2  A    between atoms: C_4  and  C_35
REMARK    3  A    between atoms: C_5  and  N_9
REMARK    4  A    between atoms: C_6  and  C_8
REMARK    5  A    between atoms: C_10  and  C_12
REMARK    6  A    between atoms: C_12  and  S_13
REMARK    7  A    between atoms: S_13  and  C_14
REMARK    8  A    between atoms: C_24  and  C_26
REMARK    9  A    between atoms: C_29  and  C_32
REMARK   10  A    between atoms: C_32  and  C_33
REMARK   11  A    between atoms: C_32  and  C_34
REMARK                            x       y       z     vdW  Elec       q    Type
REMARK                         _______ _______ _______ _____ _____    ______ ____
ROOT
ATOM      1  C   UNL     1       1.712  -8.843   1.786  0.00  0.00    +0.272 C 
ATOM      2  N   UNL     1       2.909  -9.204   1.006  0.00  0.00    -0.163 NA
ATOM      3  N   UNL     1       2.902  -9.357  -0.218  0.00  0.00    -0.081 NA
ATOM      4  C   UNL     1       1.802  -9.174  -0.993  0.00  0.00    +0.276 C 
ATOM      5  O   UNL     1       1.802  -9.437  -2.172  0.00  0.00    -0.270 OA
ATOM      6  C   UNL     1       0.590  -8.626  -0.305  0.00  0.00    +0.193 C 
ATOM      7  N   UNL     1       0.561  -9.299   1.036  0.00  0.00    -0.178 NA
ATOM      8  N   UNL     1      -0.711  -9.045   1.421  0.00  0.00    -0.274 N 
ATOM      9  C   UNL     1      -1.493  -9.296   0.268  0.00  0.00    +0.047 C 
ATOM     10  C   UNL     1      -0.745  -9.049  -0.856  0.00  0.00    +0.027 C 
ATOM     11  H   UNL     1      -1.018  -8.756   2.294  0.00  0.00    +0.167 HD
ENDROOT
BRANCH   9  12
ATOM     12  C   UNL     1      -2.906  -9.740   0.273  0.00  0.00    -0.003 A 
ATOM     13  C   UNL     1      -3.574  -9.961  -0.931  0.00  0.00    +0.010 A 
ATOM     14  C   UNL     1      -4.891 -10.375  -0.920  0.00  0.00    +0.004 A 
ATOM     15  C   UNL     1      -5.548 -10.569   0.282  0.00  0.00    -0.045 A 
ATOM     16  C   UNL     1      -4.890 -10.351   1.479  0.00  0.00    +0.004 A 
ATOM     17  C   UNL     1      -3.572  -9.944   1.481  0.00  0.00    +0.010 A 
BRANCH  15  18
ATOM     18  C   UNL     1      -6.986 -11.020   0.287  0.00  0.00    +0.013 C 
ATOM     19  C   UNL     1      -7.099 -12.358   1.021  0.00  0.00    +0.012 C 
ATOM     20  C   UNL     1      -7.846  -9.974   0.998  0.00  0.00    +0.012 C 
ENDBRANCH  15  18
ENDBRANCH   9  12
BRANCH   1  21
ATOM     21  S   UNL     1       1.635  -7.044   2.004  0.00  0.00    -0.107 S 
BRANCH  21  22
ATOM     22  C   UNL     1       2.855  -6.707   3.304  0.00  0.00    +0.168 C 
BRANCH  22  24
ATOM     23  N   UNL     1       3.630  -4.764   4.624  0.00  0.00    -0.284 N 
ATOM     24  C   UNL     1       2.806  -5.247   3.673  0.00  0.00    +0.227 C 
ATOM     25  O   UNL     1       2.025  -4.506   3.113  0.00  0.00    -0.275 OA
ATOM     26  H   UNL     1       4.197  -5.369   5.127  0.00  0.00    +0.155 HD
BRANCH  23  31
ATOM     27  C   UNL     1       3.785   0.807   5.682  0.00  0.00    +0.044 C 
ATOM     28  C   UNL     1       3.744  -0.672   5.401  0.00  0.00    -0.050 A 
ATOM     29  C   UNL     1       2.546  -1.359   5.490  0.00  0.00    +0.008 A 
ATOM     30  C   UNL     1       2.505  -2.715   5.233  0.00  0.00    -0.029 A 
ATOM     31  C   UNL     1       3.668  -3.390   4.884  0.00  0.00    +0.039 A 
ATOM     32  C   UNL     1       4.869  -2.697   4.796  0.00  0.00    -0.029 A 
ATOM     33  C   UNL     1       4.902  -1.340   5.049  0.00  0.00    +0.008 A 
ATOM     34  C   UNL     1       6.133  -3.426   4.419  0.00  0.00    +0.045 C 
ATOM     35  C   UNL     1       1.200  -3.462   5.330  0.00  0.00    +0.045 C 
ENDBRANCH  23  31
ENDBRANCH  22  24
ENDBRANCH  21  22
ENDBRANCH   1  21
TORSDOF 6
