REMARK  Name = ZINC57821857
REMARK  7 active torsions:
REMARK  status: ('A' for Active; 'I' for Inactive)
REMARK    1  A    between atoms: C_1  and  C_2
REMARK    2  A    between atoms: C_2  and  C_26
REMARK    3  A    between atoms: N_5  and  C_9
REMARK    4  A    between atoms: C_9  and  C_10
REMARK    5  A    between atoms: C_10  and  N_12
REMARK    6  A    between atoms: N_14  and  C_18
REMARK    7  A    between atoms: C_18  and  C_19
REMARK                            x       y       z     vdW  Elec       q    Type
REMARK                         _______ _______ _______ _____ _____    ______ ____
ROOT
ATOM      1  C   UNL     1      -2.086  -2.384   1.607  0.00  0.00    +0.215 C 
ENDROOT
BRANCH   1   6
ATOM      2  C   UNL     1      -0.177   1.735   0.401  0.00  0.00    +0.047 C 
ATOM      3  C   UNL     1      -0.084   0.274  -0.043  0.00  0.00    +0.135 C 
ATOM      4  C   UNL     1      -1.393  -0.446   0.212  0.00  0.00    +0.251 C 
ATOM      5  O   UNL     1      -2.477  -0.187  -0.267  0.00  0.00    -0.272 OA
ATOM      6  N   UNL     1      -1.103  -1.433   1.082  0.00  0.00    -0.215 N 
ATOM      7  C   UNL     1       0.195  -1.438   1.408  0.00  0.00    +0.310 C 
ATOM      8  O   UNL     1       0.696  -2.236   2.176  0.00  0.00    -0.252 OA
ATOM      9  N   UNL     1       0.883  -0.461   0.790  0.00  0.00    -0.281 N 
ATOM     10  H   UNL     1       1.832  -0.277   0.877  0.00  0.00    +0.152 HD
BRANCH   3  11
ATOM     11  C   UNL     1       0.297   0.187  -1.499  0.00  0.00    -0.016 A 
ATOM     12  C   UNL     1      -0.686   0.157  -2.470  0.00  0.00    +0.006 A 
ATOM     13  C   UNL     1      -0.337   0.078  -3.805  0.00  0.00    +0.000 A 
ATOM     14  C   UNL     1       0.996   0.028  -4.169  0.00  0.00    +0.000 A 
ATOM     15  C   UNL     1       1.979   0.059  -3.198  0.00  0.00    +0.000 A 
ATOM     16  C   UNL     1       1.630   0.143  -1.863  0.00  0.00    +0.006 A 
ENDBRANCH   3  11
ENDBRANCH   1   6
BRANCH   1  17
ATOM     17  C   UNL     1      -2.155  -3.587   0.701  0.00  0.00    +0.256 C 
ATOM     18  O   UNL     1      -1.449  -3.644  -0.288  0.00  0.00    -0.272 OA
BRANCH  17  19
ATOM     19  N   UNL     1      -2.985  -4.583   0.983  0.00  0.00    -0.155 NA
ATOM     20  C   UNL     1      -4.290  -4.455   0.732  0.00  0.00    +0.166 A 
ATOM     21  N   UNL     1      -4.919  -3.505  -0.009  0.00  0.00    -0.324 N 
ATOM     22  C   UNL     1      -6.271  -3.561  -0.138  0.00  0.00    +0.095 A 
ATOM     23  C   UNL     1      -6.905  -4.563   0.482  0.00  0.00    +0.066 A 
ATOM     24  S   UNL     1      -5.553  -5.436   1.251  0.00  0.00    -0.061 S 
BRANCH  21  25
ATOM     25  C   UNL     1      -4.153  -2.437  -0.657  0.00  0.00    +0.161 C 
BRANCH  25  26
ATOM     26  C   UNL     1      -4.068  -2.707  -2.138  0.00  0.00    +0.007 A 
ATOM     27  C   UNL     1      -2.973  -3.371  -2.658  0.00  0.00    +0.008 A 
ATOM     28  C   UNL     1      -2.895  -3.619  -4.016  0.00  0.00    +0.000 A 
ATOM     29  C   UNL     1      -3.913  -3.204  -4.854  0.00  0.00    +0.003 A 
ATOM     30  C   UNL     1      -5.009  -2.541  -4.337  0.00  0.00    +0.039 A 
ATOM     31  C   UNL     1      -5.090  -2.296  -2.976  0.00  0.00    +0.128 A 
ATOM     32  F   UNL     1      -6.164  -1.652  -2.468  0.00  0.00    -0.205 F 
ENDBRANCH  25  26
ENDBRANCH  21  25
ENDBRANCH  17  19
ENDBRANCH   1  17
TORSDOF 6
