REMARK  Name = ZINC46752621
REMARK  8 active torsions:
REMARK  status: ('A' for Active; 'I' for Inactive)
REMARK    1  A    between atoms: C_1  and  C_2
REMARK    2  A    between atoms: N_7  and  C_9
REMARK    3  A    between atoms: C_9  and  C_10
REMARK    4  A    between atoms: C_10  and  C_11
REMARK    5  A    between atoms: C_11  and  C_12
REMARK    6  A    between atoms: C_12  and  N_13
REMARK    7  A    between atoms: N_19  and  C_22
REMARK    8  A    between atoms: C_27  and  O_28
REMARK                            x       y       z     vdW  Elec       q    Type
REMARK                         _______ _______ _______ _____ _____    ______ ____
ROOT
ATOM      1  N   UNL     1       2.545  -6.502   5.079  0.00  0.00    -0.299 N 
ATOM      2  C   UNL     1       2.580  -7.822   5.347  0.00  0.00    +0.302 C 
ATOM      3  O   UNL     1       2.000  -8.605   4.620  0.00  0.00    -0.253 OA
ATOM      4  N   UNL     1       3.259  -8.274   6.420  0.00  0.00    -0.283 N 
ATOM      5  C   UNL     1       3.863  -7.333   7.373  0.00  0.00    +0.128 C 
ATOM      6  C   UNL     1       3.338  -7.654   8.778  0.00  0.00    +0.124 C 
ATOM      7  N   UNL     1       3.486  -9.096   9.017  0.00  0.00    -0.324 N 
ATOM      8  C   UNL     1       2.882 -10.037   8.063  0.00  0.00    +0.124 C 
ATOM      9  C   UNL     1       3.402  -9.716   6.662  0.00  0.00    +0.128 C 
ATOM     10  H   UNL     1       2.946  -5.870   5.696  0.00  0.00    +0.150 HD
ENDROOT
BRANCH   7  11
ATOM     11  C   UNL     1       4.191  -9.565  10.132  0.00  0.00    +0.072 A 
ATOM     12  C   UNL     1       3.526  -9.802  11.326  0.00  0.00    +0.027 A 
ATOM     13  C   UNL     1       4.223 -10.266  12.425  0.00  0.00    +0.002 A 
ATOM     14  C   UNL     1       5.584 -10.495  12.338  0.00  0.00    +0.004 A 
ATOM     15  C   UNL     1       6.254 -10.261  11.151  0.00  0.00    +0.047 A 
ATOM     16  C   UNL     1       5.561  -9.802  10.043  0.00  0.00    +0.138 A 
BRANCH  16  17
ATOM     17  O   UNL     1       6.218  -9.576   8.873  0.00  0.00    -0.505 OA
ATOM     18  H   UNL     1       6.567  -8.679   8.785  0.00  0.00    +0.292 HD
ENDBRANCH  16  17
ENDBRANCH   7  11
BRANCH   1  19
ATOM     19  C   UNL     1       1.901  -6.020   3.854  0.00  0.00    +0.105 C 
BRANCH  19  20
ATOM     20  C   UNL     1       2.000  -4.494   3.792  0.00  0.00    +0.017 C 
BRANCH  20  21
ATOM     21  C   UNL     1       1.327  -3.991   2.514  0.00  0.00    -0.017 C 
BRANCH  21  22
ATOM     22  C   UNL     1       1.426  -2.465   2.452  0.00  0.00    -0.079 C 
BRANCH  22  28
ATOM     23  C   UNL     1       0.003   1.523  -0.004  0.00  0.00    +0.005 C 
ATOM     24  C   UNL     1       0.019  -0.006  -0.009  0.00  0.00    -0.031 C 
ATOM     25  C   UNL     1       0.734  -0.506  -1.268  0.00  0.00    -0.001 C 
ATOM     26  C   UNL     1       0.813  -2.035  -1.226  0.00  0.00    -0.018 C 
ATOM     27  C   UNL     1       1.527  -2.467   0.057  0.00  0.00    -0.079 C 
ATOM     28  N   UNL     1       0.781  -1.982   1.224  0.00  0.00    +0.380 N 
ATOM     29  C   UNL     1       0.761  -0.514   1.229  0.00  0.00    -0.076 C 
ATOM     30  H   UNL     1      -0.166  -2.329   1.185  0.00  0.00    -0.082 HD
ENDBRANCH  22  28
ENDBRANCH  21  22
ENDBRANCH  20  21
ENDBRANCH  19  20
ENDBRANCH   1  19
TORSDOF 7
