REMARK  Name = ZINC39491445
REMARK  14 active torsions:
REMARK  status: ('A' for Active; 'I' for Inactive)
REMARK    1  A    between atoms: C_1  and  C_2
REMARK    2  A    between atoms: C_2  and  C_3
REMARK    3  A    between atoms: C_3  and  C_5
REMARK    4  A    between atoms: C_3  and  S_28
REMARK    5  A    between atoms: C_5  and  N_6
REMARK    6  A    between atoms: C_8  and  C_19
REMARK    7  A    between atoms: C_13  and  C_15
REMARK    8  A    between atoms: C_15  and  O_17
REMARK    9  A    between atoms: O_17  and  C_18
REMARK   10  A    between atoms: C_19  and  N_20
REMARK   11  A    between atoms: N_20  and  C_21
REMARK   12  A    between atoms: C_21  and  C_22
REMARK   13  A    between atoms: S_28  and  O_31
REMARK   14  A    between atoms: O_31  and  C_32
REMARK                            x       y       z     vdW  Elec       q    Type
REMARK                         _______ _______ _______ _____ _____    ______ ____
ROOT
ATOM      1  N   UNL     1      -2.350  -2.792   0.245  0.00  0.00    -0.344 N 
ATOM      2  C   UNL     1      -3.103  -3.155   1.329  0.00  0.00    +0.088 A 
ATOM      3  C   UNL     1      -4.132  -3.922   0.936  0.00  0.00    -0.039 A 
ATOM      4  C   UNL     1      -4.030  -4.060  -0.520  0.00  0.00    +0.002 A 
ATOM      5  C   UNL     1      -2.891  -3.322  -0.902  0.00  0.00    +0.049 A 
ATOM      6  C   UNL     1      -2.530  -3.258  -2.246  0.00  0.00    +0.027 A 
ATOM      7  C   UNL     1      -3.276  -3.901  -3.189  0.00  0.00    +0.017 A 
ATOM      8  C   UNL     1      -4.413  -4.636  -2.822  0.00  0.00    +0.060 A 
ATOM      9  C   UNL     1      -4.787  -4.720  -1.484  0.00  0.00    +0.025 A 
ENDROOT
BRANCH   8  10
ATOM     10  C   UNL     1      -5.209  -5.326  -3.855  0.00  0.00    +0.339 C 
ATOM     11  O   UNL     1      -6.194  -5.962  -3.538  0.00  0.00    -0.245 OA
BRANCH  10  12
ATOM     12  O   UNL     1      -4.843  -5.250  -5.150  0.00  0.00    -0.464 OA
ATOM     13  C   UNL     1      -5.660  -5.943  -6.096  0.00  0.00    +0.280 C 
ENDBRANCH  10  12
ENDBRANCH   8  10
BRANCH   1  14
ATOM     14  C   UNL     1      -1.149  -1.956   0.298  0.00  0.00    +0.151 C 
BRANCH  14  15
ATOM     15  C   UNL     1      -1.556  -0.482   0.369  0.00  0.00    +0.191 C 
BRANCH  15  16
ATOM     16  S   UNL     1      -2.335   0.005  -1.195  0.00  0.00    +0.125 S 
ATOM     17  O   UNL     1      -2.666   1.387  -1.167  0.00  0.00    -0.136 OA
ATOM     18  O   UNL     1      -1.619  -0.546  -2.292  0.00  0.00    -0.136 OA
BRANCH  16  19
ATOM     19  O   UNL     1      -3.676  -0.715  -1.205  0.00  0.00    -0.346 OA
BRANCH  19  20
ATOM     20  C   UNL     1      -4.623  -0.131  -0.426  0.00  0.00    +0.156 A 
ATOM     21  C   UNL     1      -4.667  -0.399   0.934  0.00  0.00    +0.048 A 
ATOM     22  C   UNL     1      -5.631   0.197   1.724  0.00  0.00    +0.004 A 
ATOM     23  C   UNL     1      -6.552   1.060   1.160  0.00  0.00    +0.000 A 
ATOM     24  C   UNL     1      -6.511   1.329  -0.195  0.00  0.00    +0.004 A 
ATOM     25  C   UNL     1      -5.545   0.740  -0.989  0.00  0.00    +0.048 A 
ENDBRANCH  19  20
ENDBRANCH  16  19
ENDBRANCH  15  16
BRANCH  15  27
ATOM     26  C   UNL     1      -0.738   1.830   0.846  0.00  0.00    +0.006 C 
ATOM     27  C   UNL     1      -0.314   0.379   0.610  0.00  0.00    +0.028 C 
ENDBRANCH  15  27
ENDBRANCH  14  15
ENDBRANCH   1  14
BRANCH   3  28
ATOM     28  C   UNL     1      -5.191  -4.526   1.822  0.00  0.00    -0.044 C 
BRANCH  28  29
ATOM     29  N   UNL     1      -4.870  -5.936   2.077  0.00  0.00    +0.384 N 
ATOM     30  H   UNL     1      -4.838  -6.437   1.202  0.00  0.00    -0.085 HD
ATOM     31  H   UNL     1      -3.972  -5.999   2.534  0.00  0.00    -0.085 HD
BRANCH  29  32
ATOM     32  C   UNL     1      -5.902  -6.525   2.941  0.00  0.00    -0.046 C 
BRANCH  32  33
ATOM     33  C   UNL     1      -5.572  -7.972   3.203  0.00  0.00    -0.064 A 
ATOM     34  C   UNL     1      -6.045  -8.953   2.352  0.00  0.00    +0.002 A 
ATOM     35  C   UNL     1      -5.743 -10.280   2.593  0.00  0.00    +0.000 A 
ATOM     36  C   UNL     1      -4.967 -10.626   3.683  0.00  0.00    +0.000 A 
ATOM     37  C   UNL     1      -4.494  -9.645   4.534  0.00  0.00    +0.000 A 
ATOM     38  C   UNL     1      -4.793  -8.317   4.291  0.00  0.00    +0.002 A 
ENDBRANCH  32  33
ENDBRANCH  29  32
ENDBRANCH  28  29
ENDBRANCH   3  28
TORSDOF 12
