REMARK  Name = ZINC01799736
REMARK  12 active torsions:
REMARK  status: ('A' for Active; 'I' for Inactive)
REMARK    1  A    between atoms: C_1  and  C_2
REMARK    2  A    between atoms: C_2  and  O_3
REMARK    3  A    between atoms: O_3  and  C_4
REMARK    4  A    between atoms: C_4  and  C_6
REMARK    5  A    between atoms: C_7  and  N_40
REMARK    6  A    between atoms: C_12  and  C_13
REMARK    7  A    between atoms: C_23  and  C_34
REMARK    8  A    between atoms: C_24  and  C_26
REMARK    9  A    between atoms: C_34  and  O_36
REMARK   10  A    between atoms: O_36  and  C_37
REMARK   11  A    between atoms: C_37  and  C_38
REMARK   12  A    between atoms: C_37  and  C_39
REMARK                            x       y       z     vdW  Elec       q    Type
REMARK                         _______ _______ _______ _____ _____    ______ ____
ROOT
ATOM      1  C   UNL     1      -0.955   7.372   1.546  0.00  0.00    +0.087 C 
ATOM      2  C   UNL     1      -2.198   7.807   1.858  0.00  0.00    +0.115 C 
ATOM      3  N   UNL     1      -3.231   6.968   2.285  0.00  0.00    -0.257 N 
ATOM      4  C   UNL     1      -4.465   7.414   2.593  0.00  0.00    +0.271 A 
ATOM      5  O   UNL     1      -4.739   8.597   2.510  0.00  0.00    -0.266 OA
ATOM      6  C   UNL     1      -5.471   6.440   3.033  0.00  0.00    +0.080 A 
ATOM      7  C   UNL     1      -6.765   6.640   3.393  0.00  0.00    +0.032 C 
ATOM      8  S   UNL     1      -4.534   4.922   2.965  0.00  0.00    -0.065 S 
ATOM      9  C   UNL     1      -2.993   5.613   2.399  0.00  0.00    +0.100 A 
ATOM     10  C   UNL     1      -1.790   5.017   2.127  0.00  0.00    +0.079 C 
ATOM     11  C   UNL     1      -0.645   5.894   1.661  0.00  0.00    +0.103 C 
ENDROOT
BRANCH   7  12
ATOM     12  C   UNL     1      -7.597   5.502   3.803  0.00  0.00    +0.030 A 
ATOM     13  C   UNL     1      -8.334   5.560   4.994  0.00  0.00    +0.132 A 
ATOM     14  C   UNL     1      -9.114   4.484   5.371  0.00  0.00    +0.039 A 
ATOM     15  C   UNL     1      -9.168   3.352   4.577  0.00  0.00    +0.004 A 
ATOM     16  C   UNL     1      -8.443   3.286   3.400  0.00  0.00    +0.021 A 
ATOM     17  C   UNL     1      -7.663   4.353   3.004  0.00  0.00    +0.051 A 
ATOM     18 CL   UNL     1      -6.761   4.270   1.523  0.00  0.00    -0.083 Cl
ATOM     19  F   UNL     1      -8.283   6.664   5.770  0.00  0.00    -0.205 F 
ENDBRANCH   7  12
BRANCH  11  20
ATOM     20  C   UNL     1      -0.193   5.400   0.310  0.00  0.00    +0.018 A 
ATOM     21  C   UNL     1       1.109   4.964   0.133  0.00  0.00    +0.129 A 
ATOM     22  C   UNL     1       1.523   4.510  -1.108  0.00  0.00    +0.039 A 
ATOM     23  C   UNL     1       0.636   4.493  -2.169  0.00  0.00    +0.004 A 
ATOM     24  C   UNL     1      -0.663   4.928  -1.991  0.00  0.00    +0.020 A 
ATOM     25  C   UNL     1      -1.080   5.377  -0.750  0.00  0.00    +0.048 A 
ATOM     26 CL   UNL     1      -2.715   5.917  -0.527  0.00  0.00    -0.083 Cl
ATOM     27  F   UNL     1       1.975   4.981   1.169  0.00  0.00    -0.205 F 
ENDBRANCH  11  20
BRANCH   2  28
ATOM     28  N   UNL     1      -2.460   9.147   1.747  0.00  0.00    -0.344 N 
ATOM     29  H   UNL     1      -2.123   9.646   0.987  0.00  0.00    +0.144 HD
ATOM     30  H   UNL     1      -2.983   9.597   2.429  0.00  0.00    +0.144 HD
ENDBRANCH   2  28
BRANCH   1  31
ATOM     31  C   UNL     1       0.031   8.277   1.123  0.00  0.00    +0.339 C 
ATOM     32  O   UNL     1      -0.194   9.474   1.138  0.00  0.00    -0.245 OA
BRANCH  31  33
ATOM     33  O   UNL     1       1.230   7.820   0.700  0.00  0.00    -0.462 OA
BRANCH  33  35
ATOM     34  C   UNL     1       3.472   8.096  -0.158  0.00  0.00    +0.048 C 
ATOM     35  C   UNL     1       2.186   8.797   0.284  0.00  0.00    +0.229 C 
ENDBRANCH  33  35
ENDBRANCH  31  33
ENDBRANCH   1  31
BRANCH  10  36
ATOM     36  C   UNL     1      -1.624   3.633   2.272  0.00  0.00    +0.339 C 
ATOM     37  O   UNL     1      -2.556   2.944   2.648  0.00  0.00    -0.245 OA
BRANCH  36  38
ATOM     38  O   UNL     1      -0.431   3.063   1.994  0.00  0.00    -0.459 OA
BRANCH  38  39
ATOM     39  C   UNL     1      -0.334   1.647   2.163  0.00  0.00    +0.171 C 
ATOM     40  C   UNL     1       0.690   1.085   1.175  0.00  0.00    +0.052 C 
ATOM     41  C   UNL     1       0.112   1.334   3.593  0.00  0.00    +0.052 C 
ENDBRANCH  38  39
ENDBRANCH  36  38
ENDBRANCH  10  36
TORSDOF 9
