REMARK  Name = ZINC59387299
REMARK  6 active torsions:
REMARK  status: ('A' for Active; 'I' for Inactive)
REMARK    1  A    between atoms: C_4  and  O_24
REMARK    2  A    between atoms: C_5  and  C_7
REMARK    3  A    between atoms: N_9  and  N_10
REMARK    4  A    between atoms: C_11  and  C_12
REMARK    5  A    between atoms: C_15  and  S_17
REMARK    6  A    between atoms: S_17  and  C_18
REMARK                            x       y       z     vdW  Elec       q    Type
REMARK                         _______ _______ _______ _____ _____    ______ ____
ROOT
ATOM      1  N   UNL     1       0.122  -4.255  -0.023  0.00  0.00    -0.184 NA
ATOM      2  C   UNL     1      -0.994  -4.927  -0.016  0.00  0.00    +0.176 C 
ENDROOT
BRANCH   2   3
ATOM      3  C   UNL     1      -0.967  -6.390  -0.025  0.00  0.00    +0.149 A 
ATOM      4  C   UNL     1      -2.059  -7.212  -0.024  0.00  0.00    +0.052 A 
ATOM      5  C   UNL     1      -1.576  -8.529  -0.034  0.00  0.00    +0.057 A 
ATOM      6  C   UNL     1      -0.218  -8.457  -0.040  0.00  0.00    +0.168 A 
ATOM      7  O   UNL     1       0.142  -7.162  -0.040  0.00  0.00    -0.447 OA
BRANCH   6   8
ATOM      8  S   UNL     1       0.886  -9.830  -0.053  0.00  0.00    -0.032 S 
BRANCH   8   9
ATOM      9  C   UNL     1       2.485  -9.092  -0.057  0.00  0.00    +0.104 A 
ATOM     10  C   UNL     1       3.618  -9.900  -0.073  0.00  0.00    +0.035 A 
ATOM     11  C   UNL     1       4.867  -9.307  -0.076  0.00  0.00    +0.004 A 
ATOM     12  C   UNL     1       4.943  -7.920  -0.063  0.00  0.00    +0.020 A 
ATOM     13  C   UNL     1       3.778  -7.180  -0.047  0.00  0.00    +0.112 A 
ATOM     14  N   UNL     1       2.599  -7.772  -0.050  0.00  0.00    -0.248 NA
ENDBRANCH   8   9
ENDBRANCH   6   8
ENDBRANCH   2   3
BRANCH   1  17
ATOM     15  C   UNL     1       1.250  -2.159  -0.022  0.00  0.00    +0.267 C 
ATOM     16  O   UNL     1       2.315  -2.747  -0.036  0.00  0.00    -0.268 OA
ATOM     17  N   UNL     1       0.096  -2.854  -0.015  0.00  0.00    -0.203 N 
ATOM     18  H   UNL     1      -0.753  -2.385  -0.004  0.00  0.00    +0.178 HD
BRANCH  15  23
ATOM     19  C   UNL     1      -0.017   1.374   0.010  0.00  0.00    +0.001 A 
ATOM     20  C   UNL     1       1.170   2.089   0.002  0.00  0.00    +0.004 A 
ATOM     21  C   UNL     1       2.383   1.429  -0.013  0.00  0.00    +0.046 A 
ATOM     22  C   UNL     1       2.421   0.043  -0.021  0.00  0.00    +0.129 A 
ATOM     23  C   UNL     1       1.223  -0.684  -0.013  0.00  0.00    +0.080 A 
ATOM     24  C   UNL     1       0.002  -0.004   0.002  0.00  0.00    +0.017 A 
BRANCH  22  25
ATOM     25  O   UNL     1       3.612  -0.606  -0.036  0.00  0.00    -0.506 OA
ATOM     26  H   UNL     1       3.966  -0.799   0.843  0.00  0.00    +0.292 HD
ENDBRANCH  22  25
ENDBRANCH  15  23
ENDBRANCH   1  17
TORSDOF 6
