REMARK  Name = ZINC60377199
REMARK  11 active torsions:
REMARK  status: ('A' for Active; 'I' for Inactive)
REMARK    1  A    between atoms: C_1  and  C_2
REMARK    2  A    between atoms: C_2  and  C_4
REMARK    3  A    between atoms: C_2  and  N_14
REMARK    4  A    between atoms: C_8  and  S_10
REMARK    5  A    between atoms: S_10  and  N_13
REMARK    6  A    between atoms: N_14  and  C_15
REMARK    7  A    between atoms: N_14  and  C_16
REMARK    8  A    between atoms: C_16  and  C_17
REMARK    9  A    between atoms: N_19  and  C_20
REMARK   10  A    between atoms: C_25  and  S_26
REMARK   11  A    between atoms: S_26  and  C_27
REMARK                            x       y       z     vdW  Elec       q    Type
REMARK                         _______ _______ _______ _____ _____    ______ ____
ROOT
ATOM      1  C   UNL     1      -2.247   0.671   1.040  0.00  0.00    +0.019 C 
ENDROOT
BRANCH   1   2
ATOM      2  C   UNL     1      -3.669   0.174   0.981  0.00  0.00    +0.201 C 
ATOM      3  O   UNL     1      -4.187  -0.053  -0.092  0.00  0.00    -0.278 OA
ATOM      4  N   UNL     1      -4.364  -0.019   2.119  0.00  0.00    -0.286 N 
ATOM      5  H   UNL     1      -3.927   0.091   2.979  0.00  0.00    +0.155 HD
BRANCH   4   6
ATOM      6  C   UNL     1      -5.717  -0.378   2.062  0.00  0.00    +0.047 A 
ATOM      7  C   UNL     1      -6.199  -1.104   0.984  0.00  0.00    +0.024 A 
ATOM      8  C   UNL     1      -7.534  -1.457   0.929  0.00  0.00    +0.002 A 
ATOM      9  C   UNL     1      -8.394  -1.088   1.948  0.00  0.00    +0.001 A 
ATOM     10  C   UNL     1      -7.923  -0.363   3.026  0.00  0.00    +0.017 A 
ATOM     11  C   UNL     1      -6.582  -0.009   3.092  0.00  0.00    +0.034 A 
BRANCH  11  12
ATOM     12  S   UNL     1      -5.977   0.908   4.470  0.00  0.00    -0.088 S 
BRANCH  12  13
ATOM     13  C   UNL     1      -7.388   1.097   5.509  0.00  0.00    +0.013 A 
ATOM     14  C   UNL     1      -7.727   0.095   6.411  0.00  0.00    +0.015 A 
ATOM     15  C   UNL     1      -8.833   0.246   7.224  0.00  0.00    +0.001 A 
ATOM     16  C   UNL     1      -9.602   1.392   7.141  0.00  0.00    +0.000 A 
ATOM     17  C   UNL     1      -9.268   2.391   6.245  0.00  0.00    +0.001 A 
ATOM     18  C   UNL     1      -8.160   2.250   5.433  0.00  0.00    +0.015 A 
ENDBRANCH  12  13
ENDBRANCH  11  12
ENDBRANCH   4   6
ENDBRANCH   1   2
BRANCH   1  19
ATOM     19  N   UNL     1      -1.715   0.798  -0.323  0.00  0.00    +0.388 N 
ATOM     20  C   UNL     1      -1.636  -0.532  -0.943  0.00  0.00    -0.095 C 
ATOM     21  H   UNL     1      -2.325   1.387  -0.869  0.00  0.00    -0.081 HD
BRANCH  19  23
ATOM     22  C   UNL     1      -0.457   2.780   0.374  0.00  0.00    -0.008 C 
ATOM     23  C   UNL     1      -0.374   1.395  -0.272  0.00  0.00    -0.040 C 
BRANCH  23  24
ATOM     24  C   UNL     1       0.172   1.524  -1.670  0.00  0.00    -0.059 A 
ATOM     25  C   UNL     1      -0.657   1.924  -2.702  0.00  0.00    +0.002 A 
ATOM     26  C   UNL     1      -0.157   2.042  -3.985  0.00  0.00    +0.002 A 
ATOM     27  C   UNL     1       1.174   1.763  -4.236  0.00  0.00    +0.028 A 
ATOM     28  C   UNL     1       2.003   1.364  -3.204  0.00  0.00    +0.105 A 
ATOM     29  C   UNL     1       1.503   1.250  -1.921  0.00  0.00    +0.030 A 
BRANCH  28  30
ATOM     30  S   UNL     1       3.699   1.007  -3.525  0.00  0.00    +0.056 S 
ATOM     31  O   UNL     1       4.131   0.130  -2.494  0.00  0.00    -0.153 OA
ATOM     32  O   UNL     1       3.789   0.667  -4.902  0.00  0.00    -0.153 OA
BRANCH  30  33
ATOM     33  N   UNL     1       4.542   2.419  -3.330  0.00  0.00    -0.204 NA
ATOM     34  H   UNL     1       5.465   2.396  -3.032  0.00  0.00    +0.144 HD
ATOM     35  H   UNL     1       4.113   3.269  -3.514  0.00  0.00    +0.144 HD
ENDBRANCH  30  33
ENDBRANCH  28  30
ENDBRANCH  23  24
ENDBRANCH  19  23
ENDBRANCH   1  19
TORSDOF 9
