REMARK  Name = ZINC39598202
REMARK  8 active torsions:
REMARK  status: ('A' for Active; 'I' for Inactive)
REMARK    1  A    between atoms: C_1  and  C_2
REMARK    2  A    between atoms: C_2  and  C_3
REMARK    3  A    between atoms: C_3  and  C_5
REMARK    4  A    between atoms: C_3  and  C_11
REMARK    5  A    between atoms: C_15  and  C_24
REMARK    6  A    between atoms: N_26  and  C_27
REMARK    7  A    between atoms: N_30  and  C_33
REMARK    8  A    between atoms: C_33  and  C_34
REMARK                            x       y       z     vdW  Elec       q    Type
REMARK                         _______ _______ _______ _____ _____    ______ ____
ROOT
ATOM      1  C   UNL     1      -2.046  -0.057  -1.019  0.00  0.00    +0.223 C 
ATOM      2  O   UNL     1      -2.673  -0.874  -1.660  0.00  0.00    -0.275 OA
ATOM      3  N   UNL     1      -2.098   1.247  -1.355  0.00  0.00    -0.300 N 
ATOM      4  C   UNL     1      -1.478   2.392  -0.648  0.00  0.00    +0.121 C 
ATOM      5  C   UNL     1      -0.963   3.315  -1.775  0.00  0.00    +0.100 C 
ATOM      6  C   UNL     1      -1.827   2.962  -2.997  0.00  0.00    -0.004 C 
ATOM      7  C   UNL     1      -2.783   1.859  -2.518  0.00  0.00    +0.115 C 
ATOM      8  C   UNL     1      -0.952   2.437  -4.130  0.00  0.00    -0.010 C 
ATOM      9  C   UNL     1      -1.827   2.147  -5.353  0.00  0.00    -0.082 C 
ATOM     10  N   UNL     1      -2.514   3.377  -5.768  0.00  0.00    +0.379 N 
ATOM     11  C   UNL     1      -3.425   3.824  -4.706  0.00  0.00    -0.082 C 
ATOM     12  C   UNL     1      -2.617   4.184  -3.456  0.00  0.00    -0.010 C 
ATOM     13  H   UNL     1      -1.832   4.097  -5.949  0.00  0.00    -0.086 HD
ATOM     14  H   UNL     1      -3.042   3.198  -6.609  0.00  0.00    -0.086 HD
ENDROOT
BRANCH   5  15
ATOM     15  C   UNL     1      -1.150   4.761  -1.397  0.00  0.00    +0.218 C 
ATOM     16  O   UNL     1      -2.047   5.080  -0.644  0.00  0.00    -0.275 OA
ATOM     17  N   UNL     1      -0.322   5.701  -1.894  0.00  0.00    -0.312 N 
ATOM     18  H   UNL     1       0.395   5.446  -2.495  0.00  0.00    +0.149 HD
BRANCH  17  19
ATOM     19  C   UNL     1      -0.504   7.107  -1.526  0.00  0.00    +0.069 C 
ATOM     20  C   UNL     1      -1.538   7.750  -2.455  0.00  0.00    +0.003 C 
ATOM     21  C   UNL     1      -1.665   9.237  -2.117  0.00  0.00    -0.077 C 
ATOM     22  N   UNL     1      -0.365   9.896  -2.297  0.00  0.00    +0.382 N 
ATOM     23  C   UNL     1       0.613   9.334  -1.358  0.00  0.00    -0.077 C 
ATOM     24  C   UNL     1       0.828   7.850  -1.667  0.00  0.00    +0.003 C 
ATOM     25  H   UNL     1      -0.044   9.752  -3.243  0.00  0.00    -0.081 HD
BRANCH  22  26
ATOM     26  C   UNL     1      -0.510  11.336  -2.047  0.00  0.00    -0.043 C 
BRANCH  26  27
ATOM     27  C   UNL     1       0.792  12.032  -2.350  0.00  0.00    -0.064 A 
ATOM     28  C   UNL     1       1.742  12.184  -1.357  0.00  0.00    +0.002 A 
ATOM     29  C   UNL     1       2.936  12.822  -1.635  0.00  0.00    +0.000 A 
ATOM     30  C   UNL     1       3.181  13.308  -2.906  0.00  0.00    +0.000 A 
ATOM     31  C   UNL     1       2.232  13.155  -3.899  0.00  0.00    +0.000 A 
ATOM     32  C   UNL     1       1.039  12.513  -3.623  0.00  0.00    +0.002 A 
ENDBRANCH  26  27
ENDBRANCH  22  26
ENDBRANCH  17  19
ENDBRANCH   5  15
BRANCH   1  33
ATOM     33  C   UNL     1      -1.208  -0.501   0.152  0.00  0.00    +0.105 C 
BRANCH  33  34
ATOM     34  C   UNL     1      -2.061  -0.539   1.394  0.00  0.00    -0.036 A 
ATOM     35  C   UNL     1      -3.166  -1.367   1.448  0.00  0.00    +0.004 A 
ATOM     36  C   UNL     1      -3.948  -1.403   2.587  0.00  0.00    +0.000 A 
ATOM     37  C   UNL     1      -3.625  -0.611   3.672  0.00  0.00    +0.000 A 
ATOM     38  C   UNL     1      -2.518   0.217   3.619  0.00  0.00    +0.000 A 
ATOM     39  C   UNL     1      -1.734   0.249   2.481  0.00  0.00    +0.004 A 
ENDBRANCH  33  34
BRANCH  33  41
ATOM     40  C   UNL     1       0.333  -1.829  -1.299  0.00  0.00    +0.005 C 
ATOM     41  C   UNL     1      -0.645  -1.897  -0.124  0.00  0.00    +0.014 C 
ENDBRANCH  33  41
ENDBRANCH   1  33
TORSDOF 7
