REMARK  Name = ZINC26100804
REMARK  8 active torsions:
REMARK  status: ('A' for Active; 'I' for Inactive)
REMARK    1  A    between atoms: C_1  and  C_2
REMARK    2  A    between atoms: C_5  and  N_11
REMARK    3  A    between atoms: C_6  and  N_8
REMARK    4  A    between atoms: C_12  and  C_14
REMARK    5  A    between atoms: C_14  and  C_16
REMARK    6  A    between atoms: C_14  and  S_22
REMARK    7  A    between atoms: S_22  and  C_23
REMARK    8  A    between atoms: N_32  and  C_33
REMARK                            x       y       z     vdW  Elec       q    Type
REMARK                         _______ _______ _______ _____ _____    ______ ____
ROOT
ATOM      1  C   UNL     1      -3.099  -1.479  -0.040  0.00  0.00    +0.170 C 
ENDROOT
BRANCH   1   2
ATOM      2  C   UNL     1      -3.381  -1.750  -1.495  0.00  0.00    -0.025 A 
ATOM      3  C   UNL     1      -2.402  -2.305  -2.297  0.00  0.00    +0.005 A 
ATOM      4  C   UNL     1      -2.662  -2.558  -3.631  0.00  0.00    +0.000 A 
ATOM      5  C   UNL     1      -3.899  -2.247  -4.165  0.00  0.00    +0.000 A 
ATOM      6  C   UNL     1      -4.876  -1.687  -3.364  0.00  0.00    +0.000 A 
ATOM      7  C   UNL     1      -4.617  -1.438  -2.029  0.00  0.00    +0.005 A 
ENDBRANCH   1   2
BRANCH   1   9
ATOM      8  N   UNL     1      -2.152   0.806   0.004  0.00  0.00    -0.282 N 
ATOM      9  C   UNL     1      -1.940  -0.523   0.078  0.00  0.00    +0.235 C 
ATOM     10  O   UNL     1      -0.816  -0.950   0.238  0.00  0.00    -0.274 OA
ATOM     11  H   UNL     1      -3.179   1.197  -0.050  0.00  0.00    +0.155 HD
BRANCH   8  16
ATOM     12  C   UNL     1       2.257   4.376  -0.035  0.00  0.00    +0.044 C 
ATOM     13  C   UNL     1       1.085   3.430  -0.022  0.00  0.00    -0.048 A 
ATOM     14  C   UNL     1       1.074   2.356   0.850  0.00  0.00    +0.005 A 
ATOM     15  C   UNL     1       0.001   1.486   0.863  0.00  0.00    +0.026 A 
ATOM     16  C   UNL     1      -1.066   1.689  -0.003  0.00  0.00    +0.064 A 
ATOM     17  C   UNL     1      -1.055   2.771  -0.872  0.00  0.00    +0.148 A 
ATOM     18  C   UNL     1       0.021   3.637  -0.881  0.00  0.00    +0.038 A 
BRANCH  17  19
ATOM     19  N   UNL     1      -2.192   2.994  -1.793  0.00  0.00    +0.058 N 
ATOM     20  O   UNL     1      -2.194   3.958  -2.537  0.00  0.00    -0.126 OA
ATOM     21  O   UNL     1      -3.127   2.212  -1.806  0.00  0.00    -0.126 OA
ENDBRANCH  17  19
ENDBRANCH   8  16
ENDBRANCH   1   9
BRANCH   1  22
ATOM     22  S   UNL     1      -2.688  -3.031   0.795  0.00  0.00    -0.070 S 
BRANCH  22  23
ATOM     23  C   UNL     1      -4.225  -3.878   0.641  0.00  0.00    +0.173 A 
ATOM     24  N   UNL     1      -5.212  -3.274   0.036  0.00  0.00    -0.222 NA
ATOM     25  C   UNL     1      -6.432  -3.868  -0.126  0.00  0.00    +0.086 A 
ATOM     26  C   UNL     1      -7.576  -3.352  -0.752  0.00  0.00    +0.036 A 
ATOM     27  C   UNL     1      -8.706  -4.087  -0.814  0.00  0.00    +0.048 A 
ATOM     28  S   UNL     1      -8.242  -5.596   0.019  0.00  0.00    -0.090 S 
ATOM     29  C   UNL     1      -6.565  -5.163   0.405  0.00  0.00    +0.102 A 
ATOM     30  C   UNL     1      -5.509  -5.798   1.053  0.00  0.00    +0.269 A 
ATOM     31  O   UNL     1      -5.639  -6.922   1.509  0.00  0.00    -0.266 OA
ATOM     32  N   UNL     1      -4.333  -5.135   1.164  0.00  0.00    -0.290 N 
ATOM     33  C   UNL     1      -3.191  -5.759   1.837  0.00  0.00    +0.154 C 
ENDBRANCH  22  23
ENDBRANCH   1  22
TORSDOF 6
