REMARK  Name = ZINC44245375
REMARK  6 active torsions:
REMARK  status: ('A' for Active; 'I' for Inactive)
REMARK    1  A    between atoms: C_1  and  C_2
REMARK    2  A    between atoms: N_8  and  S_9
REMARK    3  A    between atoms: S_9  and  C_12
REMARK    4  A    between atoms: C_14  and  C_18
REMARK    5  A    between atoms: C_19  and  C_20
REMARK    6  A    between atoms: C_20  and  O_21
REMARK                            x       y       z     vdW  Elec       q    Type
REMARK                         _______ _______ _______ _____ _____    ______ ____
ROOT
ATOM      1  S   UNL     1       0.045  -1.881   3.766  0.00  0.00    +0.102 S 
ATOM      2  O   UNL     1       1.282  -1.184   3.835  0.00  0.00    -0.146 OA
ATOM      3  O   UNL     1      -1.209  -1.217   3.846  0.00  0.00    -0.146 OA
ENDROOT
BRANCH   1  11
ATOM      4  C   UNL     1      -0.018   1.503   0.010  0.00  0.00    +0.063 C 
ATOM      5  C   UNL     1       0.002  -0.004   0.002  0.00  0.00    +0.015 A 
ATOM      6  C   UNL     1       0.005  -0.665  -1.175  0.00  0.00    +0.021 A 
ATOM      7  C   UNL     1       0.024  -2.070  -1.202  0.00  0.00    +0.005 A 
ATOM      8  C   UNL     1       0.039  -2.765  -0.034  0.00  0.00    +0.048 A 
ATOM      9  C   UNL     1       0.036  -2.058   1.192  0.00  0.00    +0.153 A 
ATOM     10  N   UNL     1       0.022  -0.684   1.183  0.00  0.00    -0.343 N 
ATOM     11  N   UNL     1       0.050  -2.713   2.334  0.00  0.00    -0.111 NA
ATOM     12  H   UNL     1       0.024  -0.196   2.021  0.00  0.00    +0.167 HD
ENDBRANCH   1  11
BRANCH   1  13
ATOM     13  C   UNL     1       0.067  -3.074   5.062  0.00  0.00    +0.132 A 
ATOM     14  C   UNL     1      -1.119  -3.568   5.578  0.00  0.00    +0.049 A 
ATOM     15  C   UNL     1      -1.052  -4.514   6.607  0.00  0.00    +0.045 A 
ATOM     16  C   UNL     1       0.201  -4.920   7.068  0.00  0.00    +0.127 A 
ATOM     17  N   UNL     1       1.302  -4.420   6.545  0.00  0.00    -0.260 NA
ATOM     18  C   UNL     1       1.269  -3.532   5.571  0.00  0.00    +0.139 A 
BRANCH  15  19
ATOM     19  C   UNL     1      -2.248  -5.057   7.176  0.00  0.00    -0.062 C 
ATOM     20  C   UNL     1      -3.229  -5.502   7.643  0.00  0.00    -0.069 C 
BRANCH  20  21
ATOM     21  C   UNL     1      -4.459  -6.059   8.229  0.00  0.00    +0.244 C 
BRANCH  21  22
ATOM     22  O   UNL     1      -4.117  -6.996   9.252  0.00  0.00    -0.383 OA
ATOM     23  H   UNL     1      -4.881  -7.404   9.683  0.00  0.00    +0.211 HD
ENDBRANCH  21  22
ENDBRANCH  20  21
ENDBRANCH  15  19
ENDBRANCH   1  13
TORSDOF 5
