REMARK  Name = ZINC39672293
REMARK  10 active torsions:
REMARK  status: ('A' for Active; 'I' for Inactive)
REMARK    1  A    between atoms: C_1  and  C_2
REMARK    2  A    between atoms: C_2  and  C_3
REMARK    3  A    between atoms: C_2  and  C_4
REMARK    4  A    between atoms: C_4  and  C_6
REMARK    5  A    between atoms: C_4  and  O_34
REMARK    6  A    between atoms: C_10  and  C_19
REMARK    7  A    between atoms: N_21  and  C_22
REMARK    8  A    between atoms: C_22  and  C_23
REMARK    9  A    between atoms: N_32  and  C_33
REMARK   10  A    between atoms: O_34  and  C_35
REMARK                            x       y       z     vdW  Elec       q    Type
REMARK                         _______ _______ _______ _____ _____    ______ ____
ROOT
ATOM      1  C   UNL     1      -1.121  -1.601   0.261  0.00  0.00    +0.257 C 
ATOM      2  O   UNL     1      -1.441  -2.379  -0.613  0.00  0.00    -0.272 OA
ATOM      3  N   UNL     1      -0.648  -2.064   1.435  0.00  0.00    -0.297 N 
ATOM      4  C   UNL     1      -0.322  -1.286   2.653  0.00  0.00    +0.121 C 
ATOM      5  C   UNL     1      -0.807  -2.171   3.823  0.00  0.00    +0.100 C 
ATOM      6  C   UNL     1      -0.813  -3.601   3.258  0.00  0.00    -0.004 C 
ATOM      7  C   UNL     1      -0.343  -3.468   1.802  0.00  0.00    +0.115 C 
ATOM      8  C   UNL     1      -2.224  -4.180   3.299  0.00  0.00    -0.010 C 
ATOM      9  C   UNL     1      -2.194  -5.622   2.785  0.00  0.00    -0.082 C 
ATOM     10  N   UNL     1      -1.290  -6.423   3.620  0.00  0.00    +0.379 N 
ATOM     11  C   UNL     1       0.082  -5.915   3.501  0.00  0.00    -0.082 C 
ATOM     12  C   UNL     1       0.149  -4.485   4.045  0.00  0.00    -0.010 C 
ATOM     13  H   UNL     1      -1.586  -6.367   4.583  0.00  0.00    -0.086 HD
ATOM     14  H   UNL     1      -1.319  -7.385   3.317  0.00  0.00    -0.086 HD
ENDROOT
BRANCH   5  15
ATOM     15  C   UNL     1       0.144  -2.069   4.988  0.00  0.00    +0.218 C 
ATOM     16  O   UNL     1       1.308  -1.788   4.797  0.00  0.00    -0.275 OA
ATOM     17  N   UNL     1      -0.299  -2.289   6.241  0.00  0.00    -0.311 N 
ATOM     18  H   UNL     1      -1.230  -2.514   6.394  0.00  0.00    +0.149 HD
BRANCH  17  19
ATOM     19  C   UNL     1       0.625  -2.190   7.373  0.00  0.00    +0.139 C 
BRANCH  19  20
ATOM     20  C   UNL     1      -0.115  -2.480   8.654  0.00  0.00    -0.030 A 
ATOM     21  C   UNL     1      -0.721  -1.449   9.349  0.00  0.00    +0.007 A 
ATOM     22  C   UNL     1      -1.397  -1.714  10.522  0.00  0.00    +0.024 A 
ATOM     23  C   UNL     1      -1.470  -3.017  11.004  0.00  0.00    +0.033 A 
ATOM     24  C   UNL     1      -0.866  -4.050  10.305  0.00  0.00    -0.026 A 
ATOM     25  C   UNL     1      -0.191  -3.775   9.127  0.00  0.00    +0.010 A 
ATOM     26  C   UNL     1      -0.933  -5.473  10.791  0.00  0.00    +0.038 C 
ATOM     27  C   UNL     1      -1.254  -5.514  12.285  0.00  0.00    +0.024 C 
ATOM     28  C   UNL     1      -2.493  -4.650  12.550  0.00  0.00    +0.105 C 
ATOM     29  N   UNL     1      -2.157  -3.264  12.198  0.00  0.00    -0.333 N 
ATOM     30  C   UNL     1      -2.534  -2.158  13.082  0.00  0.00    +0.129 C 
ENDBRANCH  19  20
ENDBRANCH  17  19
ENDBRANCH   5  15
BRANCH   1  31
ATOM     31  C   UNL     1      -1.252  -0.117   0.034  0.00  0.00    +0.261 C 
BRANCH  31  33
ATOM     32  C   UNL     1      -0.020   1.967  -0.583  0.00  0.00    +0.011 C 
ATOM     33  C   UNL     1       0.098   0.452  -0.408  0.00  0.00    +0.033 C 
ATOM     34  C   UNL     1       1.155   0.142   0.655  0.00  0.00    +0.011 C 
ENDBRANCH  31  33
BRANCH  31  35
ATOM     35  O   UNL     1      -2.226   0.125  -0.983  0.00  0.00    -0.479 OA
BRANCH  35  36
ATOM     36  C   UNL     1      -3.087   1.156  -0.779  0.00  0.00    +0.122 A 
ATOM     37  C   UNL     1      -4.137   1.370  -1.660  0.00  0.00    +0.045 A 
ATOM     38  C   UNL     1      -5.011   2.419  -1.450  0.00  0.00    +0.004 A 
ATOM     39  C   UNL     1      -4.841   3.255  -0.363  0.00  0.00    +0.000 A 
ATOM     40  C   UNL     1      -3.796   3.045   0.517  0.00  0.00    +0.004 A 
ATOM     41  C   UNL     1      -2.922   1.994   0.315  0.00  0.00    +0.045 A 
ENDBRANCH  35  36
ENDBRANCH  31  35
ENDBRANCH   1  31
TORSDOF 7
