REMARK  Name = ZINC06292215
REMARK  7 active torsions:
REMARK  status: ('A' for Active; 'I' for Inactive)
REMARK    1  A    between atoms: C_1  and  C_2
REMARK    2  A    between atoms: C_9  and  S_11
REMARK    3  A    between atoms: S_11  and  C_12
REMARK    4  A    between atoms: C_12  and  C_14
REMARK    5  A    between atoms: C_12  and  C_15
REMARK    6  A    between atoms: C_21  and  C_27
REMARK    7  A    between atoms: C_22  and  C_26
REMARK                            x       y       z     vdW  Elec       q    Type
REMARK                         _______ _______ _______ _____ _____    ______ ____
ROOT
ATOM      1  C   UNL     1       0.105  -7.035   1.047  0.00  0.00    +0.117 C 
ATOM      2  C   UNL     1       1.406  -6.905   0.252  0.00  0.00    +0.027 C 
ENDROOT
BRANCH   1   3
ATOM      3  C   UNL     1       0.004  -8.424   1.622  0.00  0.00    +0.124 A 
ATOM      4  N   UNL     1      -0.684  -9.378   0.944  0.00  0.00    -0.309 N 
ATOM      5  H   UNL     1      -1.101  -9.152   0.098  0.00  0.00    +0.170 HD
ATOM      6  C   UNL     1      -0.798 -10.631   1.421  0.00  0.00    +0.260 A 
ATOM      7  O   UNL     1      -1.419 -11.476   0.800  0.00  0.00    -0.267 OA
ATOM      8  C   UNL     1      -0.178 -10.956   2.672  0.00  0.00    +0.075 A 
ATOM      9  C   UNL     1      -0.157 -12.218   3.388  0.00  0.00    -0.026 A 
ATOM     10  C   UNL     1       0.495 -12.296   4.559  0.00  0.00    -0.008 A 
ATOM     11  S   UNL     1       1.137 -10.648   4.785  0.00  0.00    -0.073 S 
ATOM     12  C   UNL     1       0.512  -9.904   3.300  0.00  0.00    +0.116 A 
ATOM     13  N   UNL     1       0.585  -8.690   2.761  0.00  0.00    -0.225 NA
ATOM     14  C   UNL     1       0.648 -13.489   5.467  0.00  0.00    +0.052 C 
ATOM     15  C   UNL     1      -0.858 -13.427   2.825  0.00  0.00    +0.045 C 
ENDBRANCH   1   3
BRANCH   1  16
ATOM     16  S   UNL     1       0.096  -5.820   2.394  0.00  0.00    -0.077 S 
BRANCH  16  25
ATOM     17  C   UNL     1      -0.018   1.503   0.010  0.00  0.00    +0.044 C 
ATOM     18  C   UNL     1       0.002  -0.004   0.002  0.00  0.00    -0.048 A 
ATOM     19  C   UNL     1       0.006  -0.686  -1.206  0.00  0.00    +0.005 A 
ATOM     20  C   UNL     1       0.024  -2.063  -1.230  0.00  0.00    +0.030 A 
ATOM     21  C   UNL     1       0.040  -2.778  -0.030  0.00  0.00    +0.090 A 
ATOM     22  C   UNL     1       0.037  -2.082   1.190  0.00  0.00    +0.067 A 
ATOM     23  C   UNL     1       0.023  -0.696   1.196  0.00  0.00    +0.031 A 
ATOM     24  N   UNL     1       0.055  -3.047   2.184  0.00  0.00    -0.333 N 
ATOM     25  C   UNL     1       0.069  -4.265   1.566  0.00  0.00    +0.168 A 
ATOM     26  N   UNL     1       0.060  -4.104   0.266  0.00  0.00    -0.222 NA
ATOM     27  H   UNL     1       0.058  -2.887   3.141  0.00  0.00    +0.168 HD
ENDBRANCH  16  25
ENDBRANCH   1  16
TORSDOF 3
