REMARK  Name = ZINC33810265
REMARK  7 active torsions:
REMARK  status: ('A' for Active; 'I' for Inactive)
REMARK    1  A    between atoms: C_1  and  C_2
REMARK    2  A    between atoms: C_2  and  C_3
REMARK    3  A    between atoms: C_6  and  C_9
REMARK    4  A    between atoms: C_14  and  S_18
REMARK    5  A    between atoms: S_18  and  C_19
REMARK    6  A    between atoms: C_19  and  C_20
REMARK    7  A    between atoms: C_23  and  C_26
REMARK                            x       y       z     vdW  Elec       q    Type
REMARK                         _______ _______ _______ _____ _____    ______ ____
ROOT
ATOM      1  C   UNL     1       2.584  -0.262   2.916  0.00  0.00    +0.092 C 
ATOM      2  C   UNL     1       3.893   0.445   3.113  0.00  0.00    +0.069 A 
ATOM      3  C   UNL     1       4.130   1.651   2.531  0.00  0.00    +0.135 A 
ATOM      4  N   UNL     1       5.334   2.271   2.739  0.00  0.00    -0.208 NA
ATOM      5  C   UNL     1       6.282   1.679   3.519  0.00  0.00    +0.171 A 
ATOM      6  N   UNL     1       6.065   0.509   4.083  0.00  0.00    -0.302 N 
ATOM      7  C   UNL     1       4.902  -0.137   3.910  0.00  0.00    +0.258 A 
ATOM      8  O   UNL     1       4.717  -1.224   4.440  0.00  0.00    -0.267 OA
ATOM      9  N   UNL     1       3.172   2.237   1.738  0.00  0.00    -0.302 N 
ATOM     10  C   UNL     1       2.162   1.487   1.198  0.00  0.00    +0.017 C 
ATOM     11  C   UNL     1       1.841   0.286   1.725  0.00  0.00    +0.024 C 
ATOM     12  C   UNL     1       0.803  -0.489   1.179  0.00  0.00    +0.162 C 
ATOM     13  O   UNL     1       0.547  -1.572   1.668  0.00  0.00    -0.292 OA
ATOM     14  C   UNL     1       0.002  -0.004   0.002  0.00  0.00    +0.080 C 
ATOM     15  C   UNL     1      -0.019   1.528   0.010  0.00  0.00    +0.014 C 
ATOM     16  C   UNL     1       1.426   2.033  -0.001  0.00  0.00    +0.051 C 
ATOM     17  H   UNL     1       3.213   3.317   1.532  0.00  0.00    +0.153 HD
ATOM     18  H   UNL     1       6.844   0.047   4.707  0.00  0.00    +0.171 HD
ENDROOT
BRANCH   1  22
ATOM     19  C   UNL     1       0.184   0.239   6.415  0.00  0.00    -0.048 A 
ATOM     20  C   UNL     1       0.573  -1.027   6.019  0.00  0.00    +0.004 A 
ATOM     21  C   UNL     1       1.349  -1.189   4.886  0.00  0.00    +0.005 A 
ATOM     22  C   UNL     1       1.737  -0.085   4.150  0.00  0.00    -0.035 A 
ATOM     23  C   UNL     1       1.353   1.181   4.549  0.00  0.00    +0.005 A 
ATOM     24  C   UNL     1       0.572   1.343   5.679  0.00  0.00    +0.004 A 
BRANCH  19  26
ATOM     25  C   UNL     1       0.245   0.592   8.868  0.00  0.00    +0.009 C 
ATOM     26  C   UNL     1      -0.662   0.416   7.649  0.00  0.00    +0.032 C 
ENDBRANCH  19  26
ENDBRANCH   1  22
BRANCH   5  27
ATOM     27  S   UNL     1       7.824   2.492   3.775  0.00  0.00    -0.083 S 
BRANCH  27  28
ATOM     28  C   UNL     1       8.642   1.283   4.845  0.00  0.00    +0.112 C 
BRANCH  28  29
ATOM     29  C   UNL     1      10.018   1.780   5.204  0.00  0.00    -0.037 A 
ATOM     30  C   UNL     1      11.101   1.455   4.408  0.00  0.00    +0.005 A 
ATOM     31  C   UNL     1      12.363   1.915   4.735  0.00  0.00    +0.003 A 
ATOM     32  C   UNL     1      12.544   2.692   5.863  0.00  0.00    -0.050 A 
ATOM     33  C   UNL     1      11.463   3.013   6.662  0.00  0.00    +0.003 A 
ATOM     34  C   UNL     1      10.200   2.557   6.333  0.00  0.00    +0.005 A 
ATOM     35  C   UNL     1      13.920   3.189   6.222  0.00  0.00    +0.044 C 
ENDBRANCH  28  29
ENDBRANCH  27  28
ENDBRANCH   5  27
TORSDOF 5
