REMARK  Name = ZINC13387892
REMARK  6 active torsions:
REMARK  status: ('A' for Active; 'I' for Inactive)
REMARK    1  A    between atoms: C_1  and  C_2
REMARK    2  A    between atoms: C_2  and  C_4
REMARK    3  A    between atoms: C_2  and  N_10
REMARK    4  A    between atoms: C_11  and  C_13
REMARK    5  A    between atoms: C_17  and  C_28
REMARK    6  A    between atoms: C_20  and  C_24
REMARK                            x       y       z     vdW  Elec       q    Type
REMARK                         _______ _______ _______ _____ _____    ______ ____
ROOT
ATOM      1  C   UNL     1      -3.372  -1.269   1.198  0.00  0.00    +0.128 C 
ATOM      2  C   UNL     1      -4.041  -1.729   0.111  0.00  0.00    +0.109 C 
ATOM      3  C   UNL     1      -5.324  -2.253   0.581  0.00  0.00    +0.154 C 
ATOM      4  N   UNL     1      -6.296  -2.805  -0.088  0.00  0.00    -0.259 NA
ATOM      5  C   UNL     1      -7.478  -3.287   0.637  0.00  0.00    +0.139 C 
ATOM      6  C   UNL     1      -7.745  -2.417   1.867  0.00  0.00    +0.065 C 
ATOM      7  C   UNL     1      -6.511  -2.420   2.782  0.00  0.00    +0.202 C 
ATOM      8  N   UNL     1      -5.356  -2.052   1.955  0.00  0.00    -0.224 N 
ATOM      9  N   UNL     1      -4.149  -1.474   2.330  0.00  0.00    -0.256 N 
ATOM     10 CL   UNL     1      -3.479  -1.702  -1.532  0.00  0.00    -0.078 Cl
ATOM     11  H   UNL     1      -3.891  -1.247   3.237  0.00  0.00    +0.170 HD
ENDROOT
BRANCH   5  12
ATOM     12  C   UNL     1      -8.675  -3.237  -0.276  0.00  0.00    -0.023 A 
ATOM     13  C   UNL     1      -8.843  -2.170  -1.138  0.00  0.00    +0.007 A 
ATOM     14  C   UNL     1      -9.941  -2.124  -1.976  0.00  0.00    +0.020 A 
ATOM     15  C   UNL     1     -10.873  -3.147  -1.951  0.00  0.00    +0.041 A 
ATOM     16  C   UNL     1     -10.705  -4.214  -1.087  0.00  0.00    +0.020 A 
ATOM     17  C   UNL     1      -9.603  -4.262  -0.254  0.00  0.00    +0.007 A 
ATOM     18 CL   UNL     1     -12.254  -3.090  -3.002  0.00  0.00    -0.084 Cl
ENDBRANCH   5  12
BRANCH   1  20
ATOM     19  N   UNL     1      -1.422  -0.328   2.339  0.00  0.00    -0.304 N 
ATOM     20  C   UNL     1      -2.029  -0.655   1.181  0.00  0.00    +0.261 C 
ATOM     21  O   UNL     1      -1.470  -0.445   0.122  0.00  0.00    -0.269 OA
ATOM     22  H   UNL     1      -1.896  -0.427   3.179  0.00  0.00    +0.150 HD
BRANCH  19  24
ATOM     23  C   UNL     1       0.929  -0.999   2.320  0.00  0.00    +0.033 C 
ATOM     24  C   UNL     1      -0.048   0.178   2.329  0.00  0.00    +0.100 C 
BRANCH  24  25
ATOM     25  C   UNL     1       0.188   1.017   3.558  0.00  0.00    -0.027 A 
ATOM     26  C   UNL     1      -0.328   0.618   4.777  0.00  0.00    +0.005 A 
ATOM     27  C   UNL     1      -0.112   1.388   5.904  0.00  0.00    +0.000 A 
ATOM     28  C   UNL     1       0.621   2.557   5.813  0.00  0.00    +0.000 A 
ATOM     29  C   UNL     1       1.138   2.955   4.595  0.00  0.00    +0.000 A 
ATOM     30  C   UNL     1       0.925   2.183   3.468  0.00  0.00    +0.005 A 
ENDBRANCH  24  25
ENDBRANCH  19  24
ENDBRANCH   1  20
BRANCH   7  31
ATOM     31  C   UNL     1      -6.694  -1.399   3.907  0.00  0.00    +0.410 C 
ATOM     32  F   UNL     1      -7.826  -1.731   4.658  0.00  0.00    -0.169 F 
ATOM     33  F   UNL     1      -5.566  -1.409   4.734  0.00  0.00    -0.169 F 
ATOM     34  F   UNL     1      -6.857  -0.123   3.357  0.00  0.00    -0.169 F 
ENDBRANCH   7  31
TORSDOF 5
