REMARK  Name = ZINC67468115
REMARK  7 active torsions:
REMARK  status: ('A' for Active; 'I' for Inactive)
REMARK    1  A    between atoms: C_1  and  C_2
REMARK    2  A    between atoms: C_2  and  N_3
REMARK    3  A    between atoms: C_4  and  C_22
REMARK    4  A    between atoms: C_5  and  C_9
REMARK    5  A    between atoms: C_6  and  C_8
REMARK    6  A    between atoms: C_9  and  N_10
REMARK    7  A    between atoms: C_17  and  C_21
REMARK                            x       y       z     vdW  Elec       q    Type
REMARK                         _______ _______ _______ _____ _____    ______ ____
ROOT
ATOM      1  N   UNL     1       1.037  -0.371  -5.540  0.00  0.00    -0.295 N 
ATOM      2  C   UNL     1       0.911  -0.489  -6.877  0.00  0.00    +0.302 C 
ATOM      3  O   UNL     1       0.762  -1.587  -7.378  0.00  0.00    -0.253 OA
ATOM      4  N   UNL     1       0.951   0.609  -7.657  0.00  0.00    -0.286 N 
ATOM      5  C   UNL     1       0.688   0.459  -9.102  0.00  0.00    +0.109 C 
ATOM      6  C   UNL     1      -0.211   1.584  -9.647  0.00  0.00    +0.019 C 
ATOM      7  C   UNL     1      -1.309   1.895  -8.661  0.00  0.00    +0.005 C 
ATOM      8  C   UNL     1      -0.851   3.012  -7.729  0.00  0.00    -0.013 C 
ATOM      9  C   UNL     1      -0.066   2.552  -6.572  0.00  0.00    +0.022 C 
ATOM     10  C   UNL     1       1.243   1.885  -7.044  0.00  0.00    +0.109 C 
ATOM     11  C   UNL     1      -2.086   3.751  -7.211  0.00  0.00    +0.007 C 
ATOM     12  H   UNL     1       1.228   0.494  -5.146  0.00  0.00    +0.151 HD
ENDROOT
BRANCH   1  13
ATOM     13  C   UNL     1       0.886  -1.549  -4.683  0.00  0.00    +0.144 C 
BRANCH  13  16
ATOM     14  N   UNL     1       0.671  -0.477  -1.204  0.00  0.00    -0.268 N 
ATOM     15  C   UNL     1       0.097  -0.739  -2.397  0.00  0.00    +0.041 A 
ATOM     16  C   UNL     1       1.072  -1.149  -3.242  0.00  0.00    +0.013 A 
ATOM     17  C   UNL     1       2.282  -1.137  -2.541  0.00  0.00    +0.065 A 
ATOM     18  N   UNL     1       2.044  -0.728  -1.321  0.00  0.00    -0.176 NA
ATOM     19  C   UNL     1       3.629  -1.521  -3.097  0.00  0.00    +0.068 C 
ATOM     20  C   UNL     1      -1.366  -0.601  -2.729  0.00  0.00    +0.065 C 
BRANCH  14  22
ATOM     21  C   UNL     1      -0.045   1.524   0.007  0.00  0.00    +0.029 C 
ATOM     22  C   UNL     1      -0.020  -0.006  -0.001  0.00  0.00    +0.140 C 
ENDBRANCH  14  22
ENDBRANCH  13  16
ENDBRANCH   1  13
TORSDOF 3
