REMARK  Name = ZINC33284113
REMARK  7 active torsions:
REMARK  status: ('A' for Active; 'I' for Inactive)
REMARK    1  A    between atoms: C_1  and  C_2
REMARK    2  A    between atoms: C_7  and  C_8
REMARK    3  A    between atoms: C_10  and  C_13
REMARK    4  A    between atoms: N_15  and  C_25
REMARK    5  A    between atoms: C_22  and  C_24
REMARK    6  A    between atoms: C_25  and  C_26
REMARK    7  A    between atoms: N_28  and  C_29
REMARK                            x       y       z     vdW  Elec       q    Type
REMARK                         _______ _______ _______ _____ _____    ______ ____
ROOT
ATOM      1  C   UNL     1       5.962   4.412  -0.031  0.00  0.00    +0.103 A 
ATOM      2  C   UNL     1       6.696   5.577  -0.037  0.00  0.00    +0.105 A 
ATOM      3  N   UNL     1       8.039   5.579  -0.045  0.00  0.00    -0.322 N 
ATOM      4  C   UNL     1       8.786   4.425  -0.059  0.00  0.00    +0.145 A 
ATOM      5  C   UNL     1       8.146   3.172  -0.059  0.00  0.00    +0.065 A 
ATOM      6  C   UNL     1       6.674   3.125  -0.045  0.00  0.00    +0.203 A 
ATOM      7  O   UNL     1       6.072   2.065  -0.044  0.00  0.00    -0.286 OA
ATOM      8  C   UNL     1       8.911   2.004  -0.072  0.00  0.00    +0.017 A 
ATOM      9  C   UNL     1      10.289   2.131  -0.086  0.00  0.00    +0.024 A 
ATOM     10  C   UNL     1      10.854   3.396  -0.085  0.00  0.00    +0.041 A 
ATOM     11  N   UNL     1      10.112   4.484  -0.072  0.00  0.00    -0.234 NA
ATOM     12  C   UNL     1      12.355   3.530  -0.099  0.00  0.00    +0.065 C 
ENDROOT
BRANCH   1  15
ATOM     13  C   UNL     1       2.426   3.938   0.000  0.00  0.00    +0.203 A 
ATOM     14  N   UNL     1       3.671   3.416  -0.008  0.00  0.00    -0.187 NA
ATOM     15  C   UNL     1       4.489   4.455  -0.016  0.00  0.00    +0.264 A 
ATOM     16  O   UNL     1       3.719   5.555  -0.003  0.00  0.00    -0.332 OA
ATOM     17  N   UNL     1       2.548   5.240   0.006  0.00  0.00    -0.056 NA
BRANCH  13  24
ATOM     18  C   UNL     1      -0.096   5.354   0.031  0.00  0.00    +0.044 C 
ATOM     19  C   UNL     1      -0.066   3.848   0.022  0.00  0.00    -0.040 A 
ATOM     20  C   UNL     1      -1.246   3.133   0.030  0.00  0.00    +0.004 A 
ATOM     21  C   UNL     1      -1.221   1.750   0.017  0.00  0.00    +0.000 A 
ATOM     22  C   UNL     1      -0.013   1.076   0.008  0.00  0.00    +0.001 A 
ATOM     23  C   UNL     1       1.174   1.781   0.000  0.00  0.00    +0.012 A 
ATOM     24  C   UNL     1       1.153   3.174   0.008  0.00  0.00    +0.025 A 
ENDBRANCH  13  24
ENDBRANCH   1  15
BRANCH   3  25
ATOM     25  C   UNL     1       8.738   6.866  -0.045  0.00  0.00    +0.218 C 
BRANCH  25  26
ATOM     26  C   UNL     1       9.072   7.256  -1.462  0.00  0.00    +0.233 C 
ATOM     27  O   UNL     1       8.757   6.530  -2.381  0.00  0.00    -0.274 OA
ATOM     28  N   UNL     1       9.720   8.412  -1.708  0.00  0.00    -0.307 N 
ATOM     29  H   UNL     1      10.006   9.070  -0.874  0.00  0.00    +0.149 HD
BRANCH  28  30
ATOM     30  C   UNL     1      10.045   8.791  -3.085  0.00  0.00    +0.104 C 
ATOM     31  C   UNL     1      10.223  10.320  -3.192  0.00  0.00    +0.032 C 
ATOM     32  C   UNL     1      11.741  10.493  -2.976  0.00  0.00    +0.037 C 
ATOM     33  C   UNL     1      12.357   9.186  -3.426  0.00  0.00    -0.042 A 
ATOM     34  C   UNL     1      11.381   8.205  -3.490  0.00  0.00    -0.024 A 
ATOM     35  C   UNL     1      11.719   6.923  -3.881  0.00  0.00    +0.006 A 
ATOM     36  C   UNL     1      13.025   6.617  -4.210  0.00  0.00    +0.000 A 
ATOM     37  C   UNL     1      14.000   7.595  -4.147  0.00  0.00    +0.000 A 
ATOM     38  C   UNL     1      13.666   8.877  -3.756  0.00  0.00    +0.004 A 
ENDBRANCH  28  30
ENDBRANCH  25  26
ENDBRANCH   3  25
TORSDOF 5
