REMARK  Name = ZINC36544921
REMARK  10 active torsions:
REMARK  status: ('A' for Active; 'I' for Inactive)
REMARK    1  A    between atoms: C_1  and  O_2
REMARK    2  A    between atoms: O_2  and  C_3
REMARK    3  A    between atoms: C_5  and  C_10
REMARK    4  A    between atoms: C_8  and  O_9
REMARK    5  A    between atoms: C_10  and  C_12
REMARK    6  A    between atoms: C_10  and  N_21
REMARK    7  A    between atoms: N_14  and  C_15
REMARK    8  A    between atoms: N_21  and  C_22
REMARK    9  A    between atoms: C_29  and  C_31
REMARK   10  A    between atoms: C_32  and  C_33
REMARK                            x       y       z     vdW  Elec       q    Type
REMARK                         _______ _______ _______ _____ _____    ______ ____
ROOT
ATOM      1  C   UNL     1       2.426   0.287  -4.052  0.00  0.00    +0.198 C 
ENDROOT
BRANCH   1   4
ATOM      2  C   UNL     1       1.938  -2.089  -1.156  0.00  0.00    +0.162 A 
ATOM      3  C   UNL     1       2.470  -1.105  -1.973  0.00  0.00    +0.055 A 
ATOM      4  C   UNL     1       1.846  -0.784  -3.164  0.00  0.00    -0.014 A 
ATOM      5  C   UNL     1       0.691  -1.442  -3.543  0.00  0.00    +0.010 A 
ATOM      6  C   UNL     1       0.154  -2.425  -2.732  0.00  0.00    +0.049 A 
ATOM      7  C   UNL     1       0.778  -2.756  -1.540  0.00  0.00    +0.158 A 
BRANCH   2   9
ATOM      8  C   UNL     1       3.736  -1.681   0.345  0.00  0.00    +0.277 C 
ATOM      9  O   UNL     1       2.550  -2.407   0.016  0.00  0.00    -0.491 OA
ENDBRANCH   2   9
BRANCH   7  10
ATOM     10  O   UNL     1       0.255  -3.727  -0.743  0.00  0.00    -0.503 OA
ATOM     11  H   UNL     1      -0.384  -3.401  -0.094  0.00  0.00    +0.292 HD
ENDBRANCH   7  10
ENDBRANCH   1   4
BRANCH   1  12
ATOM     12  C   UNL     1       1.488   0.549  -5.202  0.00  0.00    +0.239 C 
ATOM     13  O   UNL     1       1.865   0.380  -6.342  0.00  0.00    -0.273 OA
ATOM     14  N   UNL     1       0.231   0.970  -4.963  0.00  0.00    -0.311 N 
ATOM     15  H   UNL     1      -0.071   1.105  -4.051  0.00  0.00    +0.149 HD
BRANCH  14  16
ATOM     16  C   UNL     1      -0.681   1.225  -6.081  0.00  0.00    +0.073 C 
ATOM     17  C   UNL     1      -0.461   2.645  -6.605  0.00  0.00    +0.022 C 
ATOM     18  C   UNL     1      -1.413   2.911  -7.773  0.00  0.00    +0.002 C 
ATOM     19  C   UNL     1      -2.860   2.762  -7.296  0.00  0.00    +0.000 C 
ATOM     20  C   UNL     1      -3.079   1.341  -6.772  0.00  0.00    +0.002 C 
ATOM     21  C   UNL     1      -2.127   1.075  -5.604  0.00  0.00    +0.022 C 
ENDBRANCH  14  16
ENDBRANCH   1  12
BRANCH   1  22
ATOM     22  N   UNL     1       3.723  -0.158  -4.570  0.00  0.00    -0.243 N 
ATOM     23  C   UNL     1       3.808  -1.301  -5.280  0.00  0.00    +0.297 C 
ATOM     24  O   UNL     1       2.809  -1.963  -5.490  0.00  0.00    -0.260 OA
BRANCH  22  25
ATOM     25  C   UNL     1       4.871   0.603  -4.329  0.00  0.00    +0.057 A 
ATOM     26  C   UNL     1       5.592   0.421  -3.156  0.00  0.00    +0.025 A 
ATOM     27  C   UNL     1       6.726   1.174  -2.920  0.00  0.00    +0.002 A 
ATOM     28  C   UNL     1       7.144   2.108  -3.850  0.00  0.00    +0.002 A 
ATOM     29  C   UNL     1       6.428   2.292  -5.019  0.00  0.00    +0.022 A 
ATOM     30  C   UNL     1       5.296   1.538  -5.264  0.00  0.00    +0.062 A 
ATOM     31 CL   UNL     1       4.403   1.764  -6.736  0.00  0.00    -0.082 Cl
ENDBRANCH  22  25
BRANCH  23  32
ATOM     32  C   UNL     1       5.075  -1.736  -5.787  0.00  0.00    -0.002 C 
ATOM     33  C   UNL     1       6.113  -2.092  -6.202  0.00  0.00    -0.057 C 
BRANCH  33  34
ATOM     34  C   UNL     1       7.380  -2.527  -6.709  0.00  0.00    +0.025 A 
ATOM     35  C   UNL     1       8.532  -1.772  -6.465  0.00  0.00    +0.017 A 
ATOM     36  C   UNL     1       9.748  -2.198  -6.956  0.00  0.00    +0.001 A 
ATOM     37  C   UNL     1       9.831  -3.369  -7.689  0.00  0.00    +0.000 A 
ATOM     38  C   UNL     1       8.695  -4.121  -7.936  0.00  0.00    +0.001 A 
ATOM     39  C   UNL     1       7.473  -3.712  -7.446  0.00  0.00    +0.017 A 
ENDBRANCH  33  34
ENDBRANCH  23  32
ENDBRANCH   1  22
TORSDOF 9
