REMARK  Name = ZINC45556389
REMARK  6 active torsions:
REMARK  status: ('A' for Active; 'I' for Inactive)
REMARK    1  A    between atoms: C_1  and  C_2
REMARK    2  A    between atoms: C_2  and  C_4
REMARK    3  A    between atoms: C_2  and  O_14
REMARK    4  A    between atoms: N_6  and  C_7
REMARK    5  A    between atoms: O_14  and  C_15
REMARK    6  A    between atoms: C_15  and  C_17
REMARK                            x       y       z     vdW  Elec       q    Type
REMARK                         _______ _______ _______ _____ _____    ______ ____
ROOT
ATOM      1  O   UNL     1       0.671  -0.462  -1.174  0.00  0.00    -0.449 OA
ENDROOT
BRANCH   1   3
ATOM      2  C   UNL     1      -0.004   1.532   0.014  0.00  0.00    +0.062 C 
ATOM      3  C   UNL     1       0.005   0.002   0.002  0.00  0.00    +0.259 C 
BRANCH   3   4
ATOM      4  C   UNL     1       0.730  -0.505   1.223  0.00  0.00    +0.258 C 
ATOM      5  O   UNL     1       1.769  -1.118   1.100  0.00  0.00    -0.271 OA
ATOM      6  N   UNL     1       0.223  -0.277   2.451  0.00  0.00    -0.282 N 
ATOM      7  H   UNL     1      -0.571   0.271   2.553  0.00  0.00    +0.155 HD
BRANCH   6   8
ATOM      8  C   UNL     1       0.843  -0.829   3.577  0.00  0.00    +0.034 A 
ATOM      9  C   UNL     1       0.077  -1.256   4.654  0.00  0.00    +0.024 A 
ATOM     10  C   UNL     1       0.691  -1.801   5.764  0.00  0.00    +0.017 A 
ATOM     11  C   UNL     1       2.069  -1.922   5.805  0.00  0.00    +0.018 A 
ATOM     12  C   UNL     1       2.835  -1.498   4.733  0.00  0.00    +0.017 A 
ATOM     13  C   UNL     1       2.225  -0.957   3.618  0.00  0.00    +0.024 A 
ATOM     14 BR   UNL     1       2.906  -2.668   7.327  0.00  0.00    -0.050 Br
ENDBRANCH   6   8
ENDBRANCH   3   4
ENDBRANCH   1   3
BRANCH   1  15
ATOM     15  C   UNL     1      -0.088  -0.662  -2.268  0.00  0.00    +0.340 C 
ATOM     16  O   UNL     1      -1.284  -0.449  -2.225  0.00  0.00    -0.245 OA
BRANCH  15  17
ATOM     17  C   UNL     1       0.531  -1.140  -3.518  0.00  0.00    +0.059 A 
ATOM     18  C   UNL     1       1.906  -1.391  -3.568  0.00  0.00    +0.017 A 
ATOM     19  C   UNL     1       2.480  -1.837  -4.737  0.00  0.00    +0.024 A 
ATOM     20  C   UNL     1       1.695  -2.039  -5.868  0.00  0.00    +0.037 A 
ATOM     21  C   UNL     1       0.327  -1.790  -5.822  0.00  0.00    -0.025 A 
ATOM     22  C   UNL     1      -0.256  -1.349  -4.655  0.00  0.00    +0.020 A 
ATOM     23  C   UNL     1      -0.517  -2.010  -7.050  0.00  0.00    +0.046 C 
ATOM     24  C   UNL     1       0.300  -1.671  -8.298  0.00  0.00    +0.101 C 
ATOM     25  C   UNL     1       1.645  -2.342  -8.227  0.00  0.00    +0.218 C 
ATOM     26  O   UNL     1       2.163  -2.754  -9.243  0.00  0.00    -0.275 OA
ATOM     27  N   UNL     1       2.279  -2.491  -7.050  0.00  0.00    -0.285 N 
ATOM     28  H   UNL     1       3.151  -2.916  -7.024  0.00  0.00    +0.155 HD
ENDBRANCH  15  17
ENDBRANCH   1  15
TORSDOF 5
