REMARK  Name = ZINC20491984
REMARK  4 active torsions:
REMARK  status: ('A' for Active; 'I' for Inactive)
REMARK    1  A    between atoms: C_6  and  N_7
REMARK    2  A    between atoms: N_7  and  S_8
REMARK    3  A    between atoms: S_8  and  C_11
REMARK    4  A    between atoms: C_18  and  N_21
REMARK                            x       y       z     vdW  Elec       q    Type
REMARK                         _______ _______ _______ _____ _____    ______ ____
ROOT
ATOM      1  C   UNL     1       3.940  -2.399  -0.408  0.00  0.00    +0.133 A 
ATOM      2  C   UNL     1       4.877  -3.268   0.002  0.00  0.00    +0.112 A 
ATOM      3  N   UNL     1       5.995  -2.592   0.409  0.00  0.00    -0.359 N 
ATOM      4  H   UNL     1       6.869  -3.147   0.780  0.00  0.00    +0.165 HD
ATOM      5  C   UNL     1       5.799  -1.236   0.268  0.00  0.00    +0.049 A 
ATOM      6  C   UNL     1       4.505  -1.056  -0.256  0.00  0.00    +0.028 A 
ATOM      7  C   UNL     1       4.026   0.232  -0.499  0.00  0.00    +0.044 A 
ATOM      8  C   UNL     1       4.820   1.312  -0.238  0.00  0.00    +0.127 A 
ATOM      9  C   UNL     1       6.099   1.140   0.273  0.00  0.00    +0.035 A 
ATOM     10  C   UNL     1       6.590  -0.122   0.527  0.00  0.00    +0.028 A 
ENDROOT
BRANCH   1  11
ATOM     11  S   UNL     1       2.337  -2.798  -1.020  0.00  0.00    +0.074 S 
ATOM     12  O   UNL     1       2.218  -4.213  -0.957  0.00  0.00    -0.150 OA
ATOM     13  O   UNL     1       2.172  -2.073  -2.232  0.00  0.00    -0.150 OA
BRANCH  11  14
ATOM     14  N   UNL     1       1.236  -2.182   0.052  0.00  0.00    -0.216 N 
ATOM     15  H   UNL     1       0.514  -1.420  -0.277  0.00  0.00    +0.174 HD
BRANCH  14  21
ATOM     16  C   UNL     1       1.145  -1.717   2.420  0.00  0.00    +0.027 A 
ATOM     17  C   UNL     1       1.133  -2.162   3.727  0.00  0.00    +0.040 A 
ATOM     18  C   UNL     1       1.199  -3.518   3.998  0.00  0.00    +0.124 A 
ATOM     19  C   UNL     1       1.277  -4.431   2.960  0.00  0.00    +0.040 A 
ATOM     20  C   UNL     1       1.290  -3.990   1.651  0.00  0.00    +0.027 A 
ATOM     21  C   UNL     1       1.224  -2.630   1.377  0.00  0.00    +0.048 A 
ATOM     22  F   UNL     1       1.187  -3.951   5.278  0.00  0.00    -0.205 F 
ENDBRANCH  14  21
ENDBRANCH  11  14
ENDBRANCH   1  11
BRANCH   8  23
ATOM     23  N   UNL     1       4.313   2.678  -0.501  0.00  0.00    +0.056 N 
ATOM     24  O   UNL     1       4.980   3.647  -0.184  0.00  0.00    -0.126 OA
ATOM     25  O   UNL     1       3.229   2.832  -1.035  0.00  0.00    -0.126 OA
ENDBRANCH   8  23
TORSDOF 4
