REMARK  Name = ZINC48325492
REMARK  9 active torsions:
REMARK  status: ('A' for Active; 'I' for Inactive)
REMARK    1  A    between atoms: C_1  and  C_2
REMARK    2  A    between atoms: C_2  and  C_3
REMARK    3  A    between atoms: C_3  and  C_4
REMARK    4  A    between atoms: C_4  and  N_5
REMARK    5  A    between atoms: C_6  and  N_27
REMARK    6  A    between atoms: C_7  and  N_14
REMARK    7  A    between atoms: N_14  and  C_15
REMARK    8  A    between atoms: N_14  and  C_16
REMARK    9  A    between atoms: C_16  and  C_17
REMARK                            x       y       z     vdW  Elec       q    Type
REMARK                         _______ _______ _______ _____ _____    ______ ____
ROOT
ATOM      1  N   UNL     1       1.293  -2.621  -2.622  0.00  0.00    -0.280 N 
ATOM      2  C   UNL     1       0.696  -2.847  -3.842  0.00  0.00    +0.127 A 
ATOM      3  C   UNL     1       1.465  -3.242  -4.902  0.00  0.00    +0.133 A 
ATOM      4  C   UNL     1       2.849  -3.407  -4.717  0.00  0.00    +0.277 A 
ATOM      5  O   UNL     1       3.555  -3.758  -5.647  0.00  0.00    -0.266 OA
ATOM      6  N   UNL     1       3.391  -3.174  -3.505  0.00  0.00    -0.273 N 
ATOM      7  H   UNL     1       4.346  -3.287  -3.376  0.00  0.00    +0.173 HD
ATOM      8  C   UNL     1       2.621  -2.781  -2.475  0.00  0.00    +0.331 A 
ATOM      9  O   UNL     1       3.132  -2.572  -1.391  0.00  0.00    -0.246 OA
ENDROOT
BRANCH   2  10
ATOM     10  N   UNL     1      -0.662  -2.678  -3.993  0.00  0.00    -0.343 N 
ATOM     11  H   UNL     1      -1.211  -2.458  -3.224  0.00  0.00    +0.144 HD
ATOM     12  H   UNL     1      -1.069  -2.779  -4.867  0.00  0.00    +0.144 HD
ENDBRANCH   2  10
BRANCH   3  13
ATOM     13  N   UNL     1       0.876  -3.482  -6.166  0.00  0.00    -0.322 N 
ATOM     14  C   UNL     1       0.857  -4.838  -6.719  0.00  0.00    +0.130 C 
BRANCH  13  15
ATOM     15  C   UNL     1       0.286  -2.374  -6.921  0.00  0.00    +0.140 C 
BRANCH  15  16
ATOM     16  C   UNL     1       1.358  -1.690  -7.730  0.00  0.00    -0.025 A 
ATOM     17  C   UNL     1       2.137  -0.705  -7.150  0.00  0.00    +0.054 A 
ATOM     18  C   UNL     1       3.123  -0.075  -7.891  0.00  0.00    +0.168 A 
ATOM     19  C   UNL     1       3.328  -0.436  -9.221  0.00  0.00    +0.180 A 
ATOM     20  C   UNL     1       2.544  -1.424  -9.795  0.00  0.00    +0.064 A 
ATOM     21  C   UNL     1       1.565  -2.053  -9.047  0.00  0.00    +0.024 A 
ATOM     22 BR   UNL     1       2.818  -1.917 -11.600  0.00  0.00    -0.046 Br
ATOM     23  O   UNL     1       4.345   0.322  -9.727  0.00  0.00    -0.451 OA
ATOM     24  C   UNL     1       4.486   1.431  -8.819  0.00  0.00    +0.466 C 
ATOM     25  O   UNL     1       4.011   0.908  -7.564  0.00  0.00    -0.453 OA
ENDBRANCH  15  16
ENDBRANCH  13  15
ENDBRANCH   3  13
BRANCH   1  26
ATOM     26  C   UNL     1       0.479  -2.197  -1.480  0.00  0.00    +0.128 C 
BRANCH  26  27
ATOM     27  C   UNL     1       0.403  -0.669  -1.447  0.00  0.00    +0.021 C 
BRANCH  27  29
ATOM     28  C   UNL     1      -0.523   1.302  -0.222  0.00  0.00    +0.004 C 
ATOM     29  C   UNL     1      -0.447  -0.226  -0.255  0.00  0.00    -0.002 C 
ENDBRANCH  27  29
ENDBRANCH  26  27
ENDBRANCH   1  26
TORSDOF 7
