REMARK  Name = ZINC00959818
REMARK  4 active torsions:
REMARK  status: ('A' for Active; 'I' for Inactive)
REMARK    1  A    between atoms: C_5  and  C_7
REMARK    2  A    between atoms: C_7  and  S_8
REMARK    3  A    between atoms: S_8  and  C_9
REMARK    4  A    between atoms: C_20  and  C_22
REMARK                            x       y       z     vdW  Elec       q    Type
REMARK                         _______ _______ _______ _____ _____    ______ ____
ROOT
ATOM      1  C   UNL     1       1.140  -0.669  -0.007  0.00  0.00    +0.171 A 
ATOM      2  N   UNL     1       2.339  -0.022  -0.010  0.00  0.00    -0.302 N 
ATOM      3  H   UNL     1       3.164  -0.532  -0.014  0.00  0.00    +0.171 HD
ATOM      4  C   UNL     1       2.380   1.327  -0.006  0.00  0.00    +0.258 A 
ATOM      5  O   UNL     1       3.450   1.916  -0.010  0.00  0.00    -0.267 OA
ATOM      6  C   UNL     1       1.175   2.038   0.002  0.00  0.00    +0.069 A 
ATOM      7  C   UNL     1      -0.016   1.333   0.009  0.00  0.00    +0.135 A 
ATOM      8  N   UNL     1       0.002  -0.004   0.002  0.00  0.00    -0.208 NA
ATOM      9  N   UNL     1      -1.216   2.017   0.030  0.00  0.00    -0.302 N 
ATOM     10  C   UNL     1      -1.266   3.327   0.419  0.00  0.00    +0.017 C 
ATOM     11  C   UNL     1      -0.155   4.092   0.428  0.00  0.00    +0.024 C 
ATOM     12  C   UNL     1       1.180   3.538  -0.004  0.00  0.00    +0.094 C 
ATOM     13  C   UNL     1      -0.204   5.435   0.842  0.00  0.00    +0.162 C 
ATOM     14  O   UNL     1       0.813   6.100   0.828  0.00  0.00    -0.292 OA
ATOM     15  C   UNL     1      -1.490   6.064   1.303  0.00  0.00    +0.080 C 
ATOM     16  C   UNL     1      -2.390   4.977   1.898  0.00  0.00    +0.014 C 
ATOM     17  C   UNL     1      -2.602   3.892   0.840  0.00  0.00    +0.051 C 
ATOM     18  H   UNL     1      -2.031   1.564  -0.235  0.00  0.00    +0.153 HD
ENDROOT
BRANCH  12  19
ATOM     19  C   UNL     1       1.489   4.025  -1.396  0.00  0.00    -0.017 A 
ATOM     20  C   UNL     1       2.604   4.816  -1.631  0.00  0.00    +0.007 A 
ATOM     21  C   UNL     1       2.849   5.241  -2.928  0.00  0.00    +0.020 A 
ATOM     22  C   UNL     1       1.980   4.865  -3.936  0.00  0.00    +0.111 A 
ATOM     23  N   UNL     1       0.930   4.112  -3.675  0.00  0.00    -0.263 NA
ATOM     24  C   UNL     1       0.669   3.685  -2.454  0.00  0.00    +0.115 A 
ENDBRANCH  12  19
BRANCH   1  25
ATOM     25  S   UNL     1       1.110  -2.430  -0.017  0.00  0.00    -0.083 S 
BRANCH  25  26
ATOM     26  C   UNL     1      -0.678  -2.714  -0.009  0.00  0.00    +0.115 C 
BRANCH  26  31
ATOM     27  C   UNL     1      -1.333  -6.229  -1.222  0.00  0.00    +0.000 A 
ATOM     28  C   UNL     1      -1.453  -6.917  -0.028  0.00  0.00    +0.003 A 
ATOM     29  C   UNL     1      -1.322  -6.245   1.172  0.00  0.00    +0.038 A 
ATOM     30  C   UNL     1      -1.071  -4.884   1.180  0.00  0.00    +0.127 A 
ATOM     31  C   UNL     1      -0.951  -4.196  -0.016  0.00  0.00    -0.002 A 
ATOM     32  C   UNL     1      -1.089  -4.869  -1.216  0.00  0.00    +0.007 A 
ATOM     33  F   UNL     1      -0.943  -4.226   2.353  0.00  0.00    -0.205 F 
ENDBRANCH  26  31
ENDBRANCH  25  26
ENDBRANCH   1  25
TORSDOF 4
