REMARK  Name = ZINC20917663
REMARK  15 active torsions:
REMARK  status: ('A' for Active; 'I' for Inactive)
REMARK    1  A    between atoms: C_1  and  C_2
REMARK    2  A    between atoms: C_3  and  C_8
REMARK    3  A    between atoms: N_5  and  C_7
REMARK    4  A    between atoms: C_8  and  N_9
REMARK    5  A    between atoms: N_9  and  C_10
REMARK    6  A    between atoms: N_9  and  C_11
REMARK    7  A    between atoms: C_11  and  C_13
REMARK    8  A    between atoms: C_11  and  C_21
REMARK    9  A    between atoms: C_13  and  C_14
REMARK   10  A    between atoms: N_24  and  C_27
REMARK   11  A    between atoms: C_27  and  C_28
REMARK   12  A    between atoms: C_32  and  O_34
REMARK   13  A    between atoms: O_34  and  C_35
REMARK   14  A    between atoms: C_35  and  C_36
REMARK   15  A    between atoms: C_36  and  O_37
REMARK                            x       y       z     vdW  Elec       q    Type
REMARK                         _______ _______ _______ _____ _____    ______ ____
ROOT
ATOM      1  C   UNL     1      -0.547   7.853  -4.580  0.00  0.00    +0.064 C 
ENDROOT
BRANCH   1   2
ATOM      2  C   UNL     1      -1.024   7.315  -3.230  0.00  0.00    +0.003 C 
ATOM      3  C   UNL     1      -0.128   7.862  -2.116  0.00  0.00    -0.014 C 
ATOM      4  C   UNL     1      -0.572   7.274  -0.775  0.00  0.00    -0.078 C 
ATOM      5  N   UNL     1      -0.481   5.809  -0.827  0.00  0.00    +0.382 N 
ATOM      6  C   UNL     1      -1.369   5.258  -1.858  0.00  0.00    -0.078 C 
ATOM      7  C   UNL     1      -0.948   5.786  -3.231  0.00  0.00    -0.014 C 
ATOM      8  H   UNL     1       0.552   5.548  -1.099  0.00  0.00    -0.081 HD
BRANCH   5   9
ATOM      9  C   UNL     1      -0.767   5.217   0.487  0.00  0.00    -0.043 C 
BRANCH   9  10
ATOM     10  C   UNL     1      -0.906   3.723   0.345  0.00  0.00    -0.060 A 
ATOM     11  C   UNL     1       0.204   2.910   0.478  0.00  0.00    +0.002 A 
ATOM     12  C   UNL     1       0.080   1.540   0.348  0.00  0.00    +0.004 A 
ATOM     13  C   UNL     1      -1.155   0.979   0.084  0.00  0.00    +0.045 A 
ATOM     14  C   UNL     1      -2.269   1.792  -0.055  0.00  0.00    +0.121 A 
ATOM     15  C   UNL     1      -2.143   3.167   0.081  0.00  0.00    +0.047 A 
BRANCH  14  16
ATOM     16  O   UNL     1      -3.484   1.243  -0.320  0.00  0.00    -0.490 OA
BRANCH  16  17
ATOM     17  C   UNL     1      -3.540  -0.179  -0.443  0.00  0.00    +0.256 C 
BRANCH  17  18
ATOM     18  C   UNL     1      -4.978  -0.609  -0.739  0.00  0.00    +0.196 C 
BRANCH  18  19
ATOM     19  O   UNL     1      -5.373  -0.104  -2.016  0.00  0.00    -0.392 OA
ATOM     20  H   UNL     1      -6.381  -0.313  -2.403  0.00  0.00    +0.210 HD
ENDBRANCH  18  19
ENDBRANCH  17  18
ENDBRANCH  16  17
ENDBRANCH  14  16
ENDBRANCH   9  10
ENDBRANCH   5   9
ENDBRANCH   1   2
BRANCH   1  21
ATOM     21  N   UNL     1      -1.486   7.438  -5.632  0.00  0.00    -0.298 NA
ATOM     22  C   UNL     1      -1.393   8.324  -6.800  0.00  0.00    +0.105 C 
BRANCH  21  23
ATOM     23  C   UNL     1      -2.861   7.385  -5.119  0.00  0.00    +0.123 C 
BRANCH  23  26
ATOM     24  C   UNL     1      -3.126   4.367  -6.049  0.00  0.00    +0.068 C 
ATOM     25  C   UNL     1      -3.897   5.535  -6.607  0.00  0.00    +0.064 A 
ATOM     26  C   UNL     1      -3.779   6.867  -6.196  0.00  0.00    +0.007 A 
ATOM     27  C   UNL     1      -4.631   7.609  -6.940  0.00  0.00    +0.113 A 
ATOM     28  N   UNL     1      -5.270   6.776  -7.788  0.00  0.00    -0.274 N 
ATOM     29  N   UNL     1      -4.794   5.479  -7.557  0.00  0.00    -0.176 NA
ATOM     30  C   UNL     1      -6.282   7.160  -8.776  0.00  0.00    +0.172 C 
ENDBRANCH  23  26
ENDBRANCH  21  23
ENDBRANCH   1  21
BRANCH   1  31
ATOM     31  C   UNL     1       0.844   7.296  -4.889  0.00  0.00    +0.054 C 
BRANCH  31  32
ATOM     32  C   UNL     1       1.380   7.947  -6.138  0.00  0.00    -0.046 A 
ATOM     33  C   UNL     1       1.311   7.282  -7.348  0.00  0.00    +0.006 A 
ATOM     34  C   UNL     1       1.798   7.880  -8.495  0.00  0.00    +0.038 A 
ATOM     35  C   UNL     1       2.365   9.142  -8.430  0.00  0.00    +0.123 A 
ATOM     36  C   UNL     1       2.438   9.805  -7.216  0.00  0.00    +0.038 A 
ATOM     37  C   UNL     1       1.945   9.207  -6.072  0.00  0.00    +0.006 A 
ATOM     38  F   UNL     1       2.845   9.725  -9.549  0.00  0.00    -0.205 F 
ENDBRANCH  31  32
ENDBRANCH   1  31
TORSDOF 12
