REMARK  Name = ZINC35313531
REMARK  7 active torsions:
REMARK  status: ('A' for Active; 'I' for Inactive)
REMARK    1  A    between atoms: C_1  and  C_2
REMARK    2  A    between atoms: C_12  and  C_14
REMARK    3  A    between atoms: C_18  and  O_35
REMARK    4  A    between atoms: C_19  and  O_33
REMARK    5  A    between atoms: C_25  and  C_27
REMARK    6  A    between atoms: O_33  and  C_34
REMARK    7  A    between atoms: O_35  and  C_36
REMARK                            x       y       z     vdW  Elec       q    Type
REMARK                         _______ _______ _______ _____ _____    ______ ____
ROOT
ATOM      1  C   UNL     1       0.427  -3.317   4.790  0.00  0.00    +0.142 C 
ATOM      2  C   UNL     1      -0.671  -3.714   5.745  0.00  0.00    -0.016 A 
ATOM      3  C   UNL     1      -1.923  -3.990   5.211  0.00  0.00    +0.055 A 
ATOM      4  C   UNL     1      -2.969  -4.369   6.032  0.00  0.00    +0.162 A 
ATOM      5  C   UNL     1      -2.761  -4.474   7.405  0.00  0.00    +0.162 A 
ATOM      6  C   UNL     1      -1.514  -4.195   7.931  0.00  0.00    +0.053 A 
ATOM      7  C   UNL     1      -0.466  -3.808   7.104  0.00  0.00    -0.037 A 
ATOM      8  C   UNL     1       0.855  -3.494   7.755  0.00  0.00    +0.054 C 
ATOM      9  C   UNL     1       1.993  -3.561   6.737  0.00  0.00    +0.113 C 
ATOM     10  N   UNL     1       1.577  -2.806   5.544  0.00  0.00    -0.290 N 
ATOM     11  C   UNL     1       2.227  -1.690   5.160  0.00  0.00    +0.219 C 
ATOM     12  O   UNL     1       1.932  -1.145   4.117  0.00  0.00    -0.275 OA
ENDROOT
BRANCH   1  24
ATOM     13  C   UNL     1      -1.873   2.162   1.981  0.00  0.00    +0.046 C 
ATOM     14  C   UNL     1      -1.503   0.824   1.396  0.00  0.00    -0.026 A 
ATOM     15  C   UNL     1      -1.626   0.603   0.041  0.00  0.00    +0.005 A 
ATOM     16  C   UNL     1      -1.288  -0.625  -0.510  0.00  0.00    +0.001 A 
ATOM     17  C   UNL     1      -0.827  -1.639   0.281  0.00  0.00    +0.010 A 
ATOM     18  C   UNL     1      -0.694  -1.438   1.658  0.00  0.00    -0.001 A 
ATOM     19  C   UNL     1      -1.030  -0.192   2.220  0.00  0.00    +0.052 A 
ATOM     20  N   UNL     1      -0.892   0.003   3.578  0.00  0.00    -0.322 N 
ATOM     21  H   UNL     1      -1.127   0.861   3.964  0.00  0.00    +0.169 HD
ATOM     22  C   UNL     1      -0.436  -0.980   4.375  0.00  0.00    +0.254 A 
ATOM     23  O   UNL     1      -0.327  -0.772   5.571  0.00  0.00    -0.268 OA
ATOM     24  C   UNL     1      -0.080  -2.245   3.861  0.00  0.00    +0.042 A 
ATOM     25  C   UNL     1      -0.203  -2.503   2.535  0.00  0.00    +0.021 A 
ENDBRANCH   1  24
BRANCH  11  26
ATOM     26  C   UNL     1       3.321  -1.119   6.025  0.00  0.00    +0.075 C 
ATOM     27  C   UNL     1       2.703  -0.243   7.116  0.00  0.00    +0.013 C 
ATOM     28  C   UNL     1       3.814   0.336   7.995  0.00  0.00    +0.001 C 
ATOM     29  C   UNL     1       4.755   1.181   7.135  0.00  0.00    +0.000 C 
ATOM     30  C   UNL     1       5.373   0.305   6.043  0.00  0.00    +0.001 C 
ATOM     31  C   UNL     1       4.263  -0.274   5.165  0.00  0.00    +0.013 C 
ENDBRANCH  11  26
BRANCH   5  32
ATOM     32  O   UNL     1      -3.780  -4.851   8.223  0.00  0.00    -0.491 OA
ATOM     33  C   UNL     1      -3.492  -4.937   9.620  0.00  0.00    +0.277 C 
ENDBRANCH   5  32
BRANCH   4  34
ATOM     34  O   UNL     1      -4.192  -4.636   5.502  0.00  0.00    -0.491 OA
ATOM     35  C   UNL     1      -4.329  -4.505   4.086  0.00  0.00    +0.277 C 
ENDBRANCH   4  34
TORSDOF 4
