REMARK  Name = ZINC15730987
REMARK  9 active torsions:
REMARK  status: ('A' for Active; 'I' for Inactive)
REMARK    1  A    between atoms: C_1  and  C_2
REMARK    2  A    between atoms: C_10  and  S_15
REMARK    3  A    between atoms: S_15  and  N_18
REMARK    4  A    between atoms: N_18  and  C_19
REMARK    5  A    between atoms: C_19  and  C_20
REMARK    6  A    between atoms: C_25  and  C_26
REMARK    7  A    between atoms: C_25  and  N_64
REMARK    8  A    between atoms: C_31  and  O_32
REMARK    9  A    between atoms: O_32  and  C_33
REMARK                            x       y       z     vdW  Elec       q    Type
REMARK                         _______ _______ _______ _____ _____    ______ ____
ROOT
ATOM      1  N   UNL     1       4.173   0.031  -2.649  0.00  0.00    -0.190 NA
ATOM      2  H   UNL     1       4.482   0.691  -2.009  0.00  0.00    +0.148 HD
ENDROOT
BRANCH   1   3
ATOM      3  S   UNL     1       5.230  -0.617  -3.747  0.00  0.00    +0.058 S 
ATOM      4  O   UNL     1       6.486   0.006  -3.517  0.00  0.00    -0.153 OA
ATOM      5  O   UNL     1       5.058  -2.026  -3.694  0.00  0.00    -0.153 OA
BRANCH   3  14
ATOM      6  C   UNL     1       3.473   0.010 -11.928  0.00  0.00    +0.020 C 
ATOM      7  C   UNL     1       4.179   0.043 -10.571  0.00  0.00    +0.057 C 
ATOM      8  C   UNL     1       4.115  -1.346  -9.915  0.00  0.00    +0.110 C 
ATOM      9  C   UNL     1       2.758  -1.586  -9.323  0.00  0.00    +0.218 C 
ATOM     10  O   UNL     1       1.891  -2.087 -10.008  0.00  0.00    -0.275 OA
ATOM     11  N   UNL     1       2.485  -1.256  -8.055  0.00  0.00    -0.284 N 
ATOM     12  C   UNL     1       3.389  -0.479  -7.315  0.00  0.00    +0.049 A 
ATOM     13  C   UNL     1       3.808  -0.886  -6.059  0.00  0.00    +0.053 A 
ATOM     14  C   UNL     1       4.699  -0.104  -5.347  0.00  0.00    +0.107 A 
ATOM     15  C   UNL     1       5.180   1.075  -5.886  0.00  0.00    +0.030 A 
ATOM     16  C   UNL     1       4.768   1.487  -7.141  0.00  0.00    +0.018 A 
ATOM     17  C   UNL     1       3.872   0.710  -7.857  0.00  0.00    +0.029 A 
ATOM     18  S   UNL     1       3.327   1.211  -9.458  0.00  0.00    -0.120 S 
ATOM     19  H   UNL     1       1.658  -1.556  -7.645  0.00  0.00    +0.155 HD
ENDBRANCH   3  14
ENDBRANCH   1   3
BRANCH   1  20
ATOM     20  C   UNL     1       2.770  -0.392  -2.645  0.00  0.00    +0.109 C 
BRANCH  20  21
ATOM     21  C   UNL     1       2.108   0.049  -1.338  0.00  0.00    +0.001 C 
ATOM     22  C   UNL     1       0.680  -0.499  -1.278  0.00  0.00    -0.014 C 
ATOM     23  C   UNL     1       0.002  -0.004   0.002  0.00  0.00    -0.078 C 
ATOM     24  C   UNL     1       1.344   2.014   0.000  0.00  0.00    -0.078 C 
ATOM     25  C   UNL     1       2.062   1.579  -1.280  0.00  0.00    -0.014 C 
ATOM     26  N   UNL     1      -0.032   1.474  -0.014  0.00  0.00    +0.382 N 
ATOM     27  H   UNL     1      -0.504   1.786  -0.871  0.00  0.00    -0.081 HD
BRANCH  26  28
ATOM     28  C   UNL     1      -0.783   1.974   1.156  0.00  0.00    -0.039 C 
BRANCH  28  29
ATOM     29  C   UNL     1      -0.580   3.463   1.273  0.00  0.00    -0.022 A 
ATOM     30  C   UNL     1       0.314   3.967   2.199  0.00  0.00    +0.005 A 
ATOM     31  C   UNL     1       0.504   5.333   2.304  0.00  0.00    +0.000 A 
ATOM     32  C   UNL     1      -0.206   6.197   1.490  0.00  0.00    +0.004 A 
ATOM     33  C   UNL     1      -1.104   5.697   0.568  0.00  0.00    +0.046 A 
ATOM     34  C   UNL     1      -1.293   4.327   0.457  0.00  0.00    +0.121 A 
BRANCH  34  35
ATOM     35  O   UNL     1      -2.176   3.833  -0.450  0.00  0.00    -0.495 OA
ATOM     36  C   UNL     1      -2.876   4.782  -1.258  0.00  0.00    +0.277 C 
ENDBRANCH  34  35
ENDBRANCH  28  29
ENDBRANCH  26  28
ENDBRANCH  20  21
ENDBRANCH   1  20
TORSDOF 7
