REMARK  Name = ZINC59879725
REMARK  8 active torsions:
REMARK  status: ('A' for Active; 'I' for Inactive)
REMARK    1  A    between atoms: C_1  and  C_2
REMARK    2  A    between atoms: C_2  and  C_4
REMARK    3  A    between atoms: C_2  and  S_14
REMARK    4  A    between atoms: N_6  and  N_7
REMARK    5  A    between atoms: C_8  and  C_10
REMARK    6  A    between atoms: S_14  and  C_15
REMARK    7  A    between atoms: N_20  and  N_21
REMARK    8  A    between atoms: C_22  and  C_23
REMARK                            x       y       z     vdW  Elec       q    Type
REMARK                         _______ _______ _______ _____ _____    ______ ____
ROOT
ATOM      1  C   UNL     1       2.496   0.021  -1.312  0.00  0.00    +0.211 A 
ATOM      2  N   UNL     1       3.498  -0.186  -2.173  0.00  0.00    -0.186 NA
ATOM      3  C   UNL     1       4.604   0.351  -1.702  0.00  0.00    +0.232 A 
ATOM      4  N   UNL     1       4.318   0.919  -0.511  0.00  0.00    -0.245 N 
ATOM      5  N   UNL     1       2.950   0.697  -0.283  0.00  0.00    -0.144 NA
ATOM      6  N   UNL     1       5.842   0.336  -2.319  0.00  0.00    -0.205 N 
ATOM      7  H   UNL     1       6.603   0.760  -1.891  0.00  0.00    +0.177 HD
ATOM      8  H   UNL     1       4.934   1.390   0.071  0.00  0.00    +0.192 HD
ENDROOT
BRANCH   6   9
ATOM      9  N   UNL     1       5.998  -0.293  -3.561  0.00  0.00    -0.188 NA
ATOM     10  C   UNL     1       7.144  -0.308  -4.131  0.00  0.00    +0.139 C 
BRANCH  10  11
ATOM     11  C   UNL     1       7.308  -0.969  -5.438  0.00  0.00    +0.002 A 
ATOM     12  C   UNL     1       8.593  -0.878  -6.155  0.00  0.00    +0.010 A 
ATOM     13  C   UNL     1       8.750  -1.466  -7.323  0.00  0.00    +0.009 A 
ATOM     14  C   UNL     1       7.634  -2.220  -7.918  0.00  0.00    -0.017 A 
ATOM     15  C   UNL     1       7.778  -2.889  -9.222  0.00  0.00    +0.009 A 
ATOM     16  C   UNL     1       6.766  -3.561  -9.737  0.00  0.00    +0.009 A 
ATOM     17  C   UNL     1       5.488  -3.643  -9.009  0.00  0.00    -0.017 A 
ATOM     18  C   UNL     1       4.345  -4.388  -9.565  0.00  0.00    +0.008 A 
ATOM     19  C   UNL     1       3.214  -4.446  -8.892  0.00  0.00    +0.001 A 
ATOM     20  C   UNL     1       3.083  -3.772  -7.588  0.00  0.00    +0.008 A 
ATOM     21  C   UNL     1       4.101  -3.106  -7.089  0.00  0.00    -0.017 A 
ATOM     22  C   UNL     1       5.364  -3.046  -7.848  0.00  0.00    -0.002 A 
ATOM     23  C   UNL     1       6.494  -2.297  -7.273  0.00  0.00    -0.002 A 
ATOM     24  C   UNL     1       6.311  -1.646  -5.963  0.00  0.00    -0.008 A 
ATOM     25  C   UNL     1       5.017  -1.762  -5.274  0.00  0.00    +0.010 A 
ATOM     26  C   UNL     1       4.007  -2.422  -5.791  0.00  0.00    +0.009 A 
ENDBRANCH  10  11
ENDBRANCH   6   9
BRANCH   1  27
ATOM     27  S   UNL     1       0.833  -0.520  -1.528  0.00  0.00    -0.072 S 
BRANCH  27  29
ATOM     28  C   UNL     1      -0.021   1.603  -0.029  0.00  0.00    +0.029 C 
ATOM     29  C   UNL     1      -0.018   0.073  -0.039  0.00  0.00    +0.138 C 
BRANCH  29  30
ATOM     30  C   UNL     1      -1.438  -0.432  -0.038  0.00  0.00    +0.242 C 
ATOM     31  O   UNL     1      -1.952  -0.800  -1.073  0.00  0.00    -0.273 OA
ATOM     32  N   UNL     1      -2.136  -0.475   1.114  0.00  0.00    -0.233 N 
ATOM     33  H   UNL     1      -1.726  -0.181   1.942  0.00  0.00    +0.173 HD
BRANCH  32  34
ATOM     34  N   UNL     1      -3.456  -0.945   1.115  0.00  0.00    -0.234 N 
ATOM     35  C   UNL     1      -4.155  -0.988   2.267  0.00  0.00    +0.232 C 
ATOM     36  O   UNL     1      -3.641  -0.620   3.302  0.00  0.00    -0.274 OA
ATOM     37  H   UNL     1      -3.868  -1.239   0.288  0.00  0.00    +0.173 HD
BRANCH  35  38
ATOM     38  C   UNL     1      -5.575  -1.493   2.269  0.00  0.00    +0.076 C 
ATOM     39  C   UNL     1      -6.607  -0.431   1.856  0.00  0.00    +0.013 C 
ATOM     40  C   UNL     1      -7.515  -0.997   2.961  0.00  0.00    +0.001 C 
ATOM     41  C   UNL     1      -6.232  -1.479   3.659  0.00  0.00    +0.013 C 
ENDBRANCH  35  38
ENDBRANCH  32  34
ENDBRANCH  29  30
ENDBRANCH  27  29
ENDBRANCH   1  27
TORSDOF 7
