REMARK  Name = ZINC13098887
REMARK  8 active torsions:
REMARK  status: ('A' for Active; 'I' for Inactive)
REMARK    1  A    between atoms: C_7  and  C_11
REMARK    2  A    between atoms: C_11  and  C_13
REMARK    3  A    between atoms: C_11  and  C_34
REMARK    4  A    between atoms: C_13  and  N_14
REMARK    5  A    between atoms: C_15  and  C_17
REMARK    6  A    between atoms: C_20  and  S_26
REMARK    7  A    between atoms: C_21  and  N_23
REMARK    8  A    between atoms: S_26  and  C_27
REMARK                            x       y       z     vdW  Elec       q    Type
REMARK                         _______ _______ _______ _____ _____    ______ ____
ROOT
ATOM      1  N   UNL     1      -2.079   5.741  -3.013  0.00  0.00    -0.310 N 
ATOM      2  C   UNL     1      -2.410   5.841  -4.315  0.00  0.00    +0.244 C 
ATOM      3  O   UNL     1      -3.558   6.084  -4.633  0.00  0.00    -0.270 OA
ATOM      4  H   UNL     1      -1.163   5.547  -2.759  0.00  0.00    +0.149 HD
ENDROOT
BRANCH   2   5
ATOM      5  C   UNL     1      -1.381   5.654  -5.355  0.00  0.00    +0.039 A 
ATOM      6  C   UNL     1      -0.059   5.380  -4.990  0.00  0.00    +0.014 A 
ATOM      7  C   UNL     1       0.893   5.201  -5.953  0.00  0.00    +0.018 A 
ATOM      8  C   UNL     1       0.554   5.303  -7.300  0.00  0.00    +0.043 A 
ATOM      9  C   UNL     1      -0.759   5.582  -7.672  0.00  0.00    +0.141 A 
ATOM     10  C   UNL     1      -1.724   5.757  -6.707  0.00  0.00    +0.047 A 
BRANCH   9  11
ATOM     11  N   UNL     1      -1.116   5.689  -9.105  0.00  0.00    +0.058 N 
ATOM     12  O   UNL     1      -2.264   5.933  -9.429  0.00  0.00    -0.126 OA
ATOM     13  O   UNL     1      -0.262   5.534  -9.959  0.00  0.00    -0.126 OA
ENDBRANCH   9  11
BRANCH   8  14
ATOM     14  S   UNL     1       1.790   5.079  -8.537  0.00  0.00    -0.087 S 
BRANCH  14  15
ATOM     15  C   UNL     1       1.493   3.452  -9.145  0.00  0.00    +0.013 A 
ATOM     16  C   UNL     1       0.543   2.643  -8.534  0.00  0.00    +0.018 A 
ATOM     17  C   UNL     1       0.308   1.370  -9.016  0.00  0.00    +0.039 A 
ATOM     18  C   UNL     1       1.027   0.896 -10.100  0.00  0.00    +0.123 A 
ATOM     19  C   UNL     1       1.978   1.698 -10.708  0.00  0.00    +0.039 A 
ATOM     20  C   UNL     1       2.212   2.974 -10.233  0.00  0.00    +0.018 A 
ATOM     21  F   UNL     1       0.799  -0.351 -10.567  0.00  0.00    -0.205 F 
ENDBRANCH  14  15
ENDBRANCH   8  14
ENDBRANCH   2   5
BRANCH   1  22
ATOM     22  C   UNL     1      -3.101   5.927  -1.980  0.00  0.00    +0.118 C 
BRANCH  22  23
ATOM     23  C   UNL     1      -2.466   5.763  -0.598  0.00  0.00    +0.075 C 
BRANCH  23  30
ATOM     24  C   UNL     1      -2.657   8.951   2.834  0.00  0.00    +0.001 A 
ATOM     25  C   UNL     1      -3.819   8.865   3.588  0.00  0.00    +0.002 A 
ATOM     26  C   UNL     1      -4.775   7.915   3.300  0.00  0.00    +0.026 A 
ATOM     27  C   UNL     1      -4.575   7.032   2.243  0.00  0.00    +0.047 A 
ATOM     28  C   UNL     1      -3.396   7.123   1.482  0.00  0.00    +0.003 A 
ATOM     29  C   UNL     1      -2.440   8.094   1.792  0.00  0.00    +0.010 A 
ATOM     30  C   UNL     1      -3.488   6.074   0.465  0.00  0.00    -0.013 A 
ATOM     31  C   UNL     1      -4.659   5.445   0.654  0.00  0.00    +0.088 A 
ATOM     32  N   UNL     1      -5.320   6.000   1.717  0.00  0.00    -0.360 N 
ATOM     33  H   UNL     1      -6.185   5.713   2.047  0.00  0.00    +0.165 HD
ENDBRANCH  23  30
BRANCH  23  34
ATOM     34  C   UNL     1      -1.984   4.345  -0.432  0.00  0.00    -0.001 A 
ATOM     35  C   UNL     1      -0.728   3.892  -0.198  0.00  0.00    +0.012 A 
ATOM     36  C   UNL     1      -0.517   2.531  -0.080  0.00  0.00    +0.008 A 
ATOM     37  C   UNL     1      -1.572   1.690  -0.200  0.00  0.00    +0.045 A 
ATOM     38  S   UNL     1      -2.918   2.825  -0.497  0.00  0.00    -0.101 S 
ENDBRANCH  23  34
ENDBRANCH  22  23
ENDBRANCH   1  22
TORSDOF 8
