REMARK  Name = ZINC59227444
REMARK  6 active torsions:
REMARK  status: ('A' for Active; 'I' for Inactive)
REMARK    1  A    between atoms: C_1  and  C_2
REMARK    2  A    between atoms: C_5  and  S_8
REMARK    3  A    between atoms: S_8  and  N_11
REMARK    4  A    between atoms: C_12  and  N_24
REMARK    5  A    between atoms: C_13  and  C_17
REMARK    6  A    between atoms: C_14  and  C_16
REMARK                            x       y       z     vdW  Elec       q    Type
REMARK                         _______ _______ _______ _____ _____    ______ ____
ROOT
ATOM      1  N   UNL     1       1.651  -4.999  -0.034  0.00  0.00    -0.114 N 
ATOM      2  C   UNL     1       2.406  -5.213  -1.135  0.00  0.00    +0.148 A 
ATOM      3  C   UNL     1       3.666  -5.588  -0.702  0.00  0.00    +0.046 A 
ATOM      4  C   UNL     1       3.639  -5.592   0.706  0.00  0.00    +0.071 A 
ATOM      5  N   UNL     1       2.444  -5.237   1.094  0.00  0.00    -0.152 NA
ATOM      6  C   UNL     1       4.794  -5.940   1.610  0.00  0.00    +0.068 C 
ENDROOT
BRANCH   3   7
ATOM      7  C   UNL     1       4.827  -5.923  -1.561  0.00  0.00    -0.013 A 
ATOM      8  C   UNL     1       4.781  -7.040  -2.394  0.00  0.00    +0.010 A 
ATOM      9  C   UNL     1       5.864  -7.348  -3.192  0.00  0.00    +0.020 A 
ATOM     10  C   UNL     1       6.996  -6.550  -3.165  0.00  0.00    +0.041 A 
ATOM     11  C   UNL     1       7.046  -5.440  -2.339  0.00  0.00    +0.020 A 
ATOM     12  C   UNL     1       5.966  -5.120  -1.542  0.00  0.00    +0.010 A 
ATOM     13 CL   UNL     1       8.355  -6.943  -4.170  0.00  0.00    -0.084 Cl
ENDBRANCH   3   7
BRANCH   1  14
ATOM     14  S   UNL     1       0.063  -4.530  -0.023  0.00  0.00    +0.100 S 
ATOM     15  O   UNL     1      -0.476  -4.950   1.223  0.00  0.00    -0.146 OA
ATOM     16  O   UNL     1      -0.490  -4.937  -1.267  0.00  0.00    -0.146 OA
BRANCH  14  21
ATOM     17  C   UNL     1      -0.018   1.503   0.010  0.00  0.00    +0.044 C 
ATOM     18  C   UNL     1       0.002  -0.004   0.002  0.00  0.00    -0.050 A 
ATOM     19  C   UNL     1       0.006  -0.689  -1.199  0.00  0.00    +0.005 A 
ATOM     20  C   UNL     1       0.025  -2.071  -1.206  0.00  0.00    +0.029 A 
ATOM     21  C   UNL     1       0.040  -2.768  -0.013  0.00  0.00    +0.113 A 
ATOM     22  C   UNL     1       0.037  -2.084   1.188  0.00  0.00    +0.029 A 
ATOM     23  C   UNL     1       0.023  -0.702   1.195  0.00  0.00    +0.005 A 
ENDBRANCH  14  21
ENDBRANCH   1  14
BRANCH   2  24
ATOM     24  N   UNL     1       1.994  -5.080  -2.454  0.00  0.00    -0.341 N 
ATOM     25  H   UNL     1       1.084  -4.810  -2.654  0.00  0.00    +0.144 HD
ATOM     26  H   UNL     1       2.616  -5.258  -3.177  0.00  0.00    +0.144 HD
ENDBRANCH   2  24
TORSDOF 4
