REMARK  Name = ZINC39609575
REMARK  8 active torsions:
REMARK  status: ('A' for Active; 'I' for Inactive)
REMARK    1  A    between atoms: C_1  and  C_2
REMARK    2  A    between atoms: C_2  and  O_3
REMARK    3  A    between atoms: O_3  and  C_4
REMARK    4  A    between atoms: C_8  and  C_10
REMARK    5  A    between atoms: C_10  and  C_11
REMARK    6  A    between atoms: C_11  and  N_12
REMARK    7  A    between atoms: C_13  and  C_15
REMARK    8  A    between atoms: C_26  and  C_28
REMARK                            x       y       z     vdW  Elec       q    Type
REMARK                         _______ _______ _______ _____ _____    ______ ____
ROOT
ATOM      1  C   UNL     1       6.482  -5.846   5.756  0.00  0.00    +0.100 C 
ATOM      2  C   UNL     1       5.855  -7.201   6.155  0.00  0.00    +0.121 C 
ATOM      3  N   UNL     1       6.693  -8.216   5.475  0.00  0.00    -0.296 N 
ATOM      4  C   UNL     1       8.076  -7.698   5.604  0.00  0.00    +0.115 C 
ATOM      5  C   UNL     1       7.941  -6.176   5.399  0.00  0.00    -0.004 C 
ATOM      6  C   UNL     1       8.223  -5.814   3.944  0.00  0.00    -0.010 C 
ATOM      7  C   UNL     1       9.694  -6.099   3.628  0.00  0.00    -0.082 C 
ATOM      8  N   UNL     1      10.550  -5.311   4.524  0.00  0.00    +0.379 N 
ATOM      9  C   UNL     1      10.339  -5.731   5.915  0.00  0.00    -0.082 C 
ATOM     10  C   UNL     1       8.895  -5.431   6.327  0.00  0.00    -0.010 C 
ATOM     11  C   UNL     1       6.289  -9.353   4.875  0.00  0.00    +0.248 C 
ATOM     12  O   UNL     1       5.102  -9.595   4.766  0.00  0.00    -0.270 OA
ATOM     13  H   UNL     1      11.517  -5.454   4.274  0.00  0.00    -0.086 HD
ATOM     14  H   UNL     1      10.322  -4.333   4.431  0.00  0.00    -0.086 HD
ENDROOT
BRANCH  11  15
ATOM     15  C   UNL     1       7.282 -10.300   4.353  0.00  0.00    +0.052 A 
ATOM     16  C   UNL     1       8.470 -10.490   4.986  0.00  0.00    +0.059 A 
ATOM     17  S   UNL     1       9.285 -11.634   4.069  0.00  0.00    -0.096 S 
ATOM     18  C   UNL     1       8.091 -11.923   2.793  0.00  0.00    +0.020 A 
ATOM     19  C   UNL     1       7.021 -11.075   3.138  0.00  0.00    +0.001 A 
ATOM     20  C   UNL     1       5.893 -11.084   2.295  0.00  0.00    +0.010 A 
ATOM     21  C   UNL     1       5.857 -11.900   1.192  0.00  0.00    +0.001 A 
ATOM     22  C   UNL     1       6.923 -12.730   0.877  0.00  0.00    +0.001 A 
ATOM     23  C   UNL     1       8.047 -12.734   1.679  0.00  0.00    +0.015 A 
ENDBRANCH  11  15
BRANCH   1  25
ATOM     24  N   UNL     1       5.686  -3.931   4.408  0.00  0.00    -0.315 N 
ATOM     25  C   UNL     1       5.767  -5.268   4.562  0.00  0.00    +0.218 C 
ATOM     26  O   UNL     1       5.265  -6.005   3.741  0.00  0.00    -0.275 OA
ATOM     27  H   UNL     1       6.088  -3.342   5.065  0.00  0.00    +0.149 HD
BRANCH  24  28
ATOM     28  C   UNL     1       4.991  -3.369   3.247  0.00  0.00    +0.109 C 
BRANCH  28  29
ATOM     29  C   UNL     1       5.043  -1.841   3.312  0.00  0.00    +0.054 C 
BRANCH  29  34
ATOM     30  C   UNL     1       4.367  -0.475  -0.145  0.00  0.00    +0.121 A 
ATOM     31  C   UNL     1       3.009  -0.201  -0.071  0.00  0.00    +0.045 A 
ATOM     32  C   UNL     1       2.316  -0.458   1.096  0.00  0.00    +0.004 A 
ATOM     33  C   UNL     1       2.975  -0.989   2.190  0.00  0.00    +0.004 A 
ATOM     34  C   UNL     1       4.328  -1.263   2.118  0.00  0.00    -0.042 A 
ATOM     35  C   UNL     1       5.024  -1.013   0.951  0.00  0.00    +0.049 A 
BRANCH  30  36
ATOM     36  O   UNL     1       5.050  -0.223  -1.293  0.00  0.00    -0.492 OA
BRANCH  36  38
ATOM     37  C   UNL     1       5.239   0.544  -3.577  0.00  0.00    +0.048 C 
ATOM     38  C   UNL     1       4.308   0.331  -2.381  0.00  0.00    +0.225 C 
ENDBRANCH  36  38
ENDBRANCH  30  36
ENDBRANCH  29  34
ENDBRANCH  28  29
ENDBRANCH  24  28
ENDBRANCH   1  25
TORSDOF 7
