REMARK  Name = ZINC20569007
REMARK  11 active torsions:
REMARK  status: ('A' for Active; 'I' for Inactive)
REMARK    1  A    between atoms: C_1  and  C_2
REMARK    2  A    between atoms: C_3  and  C_26
REMARK    3  A    between atoms: C_12  and  N_21
REMARK    4  A    between atoms: C_13  and  C_14
REMARK    5  A    between atoms: C_14  and  O_16
REMARK    6  A    between atoms: O_16  and  C_17
REMARK    7  A    between atoms: C_17  and  C_18
REMARK    8  A    between atoms: C_18  and  O_19
REMARK    9  A    between atoms: O_19  and  C_20
REMARK   10  A    between atoms: C_26  and  O_28
REMARK   11  A    between atoms: O_28  and  C_29
REMARK                            x       y       z     vdW  Elec       q    Type
REMARK                         _______ _______ _______ _____ _____    ______ ____
ROOT
ATOM      1  C   UNL     1       3.296  -4.109   2.613  0.00  0.00    +0.087 C 
ATOM      2  C   UNL     1       2.644  -3.423   1.440  0.00  0.00    +0.117 C 
ATOM      3  C   UNL     1       1.500  -2.724   1.527  0.00  0.00    +0.100 C 
ATOM      4  C   UNL     1       1.221  -2.219   0.128  0.00  0.00    +0.164 C 
ATOM      5  C   UNL     1       1.230  -0.718   0.107  0.00  0.00    +0.001 A 
ATOM      6  C   UNL     1       2.430  -0.038   0.213  0.00  0.00    +0.022 A 
ATOM      7  C   UNL     1       2.450   1.345   0.201  0.00  0.00    +0.018 A 
ATOM      8  C   UNL     1       1.269   2.056   0.082  0.00  0.00    +0.017 A 
ATOM      9  C   UNL     1       0.068   1.384  -0.025  0.00  0.00    +0.024 A 
ATOM     10  C   UNL     1       0.045  -0.005  -0.014  0.00  0.00    +0.037 A 
ATOM     11  N   UNL     1      -1.174  -0.680  -0.129  0.00  0.00    -0.302 N 
ATOM     12  C   UNL     1      -1.200  -2.002  -0.483  0.00  0.00    +0.097 C 
ATOM     13  C   UNL     1      -0.072  -2.778  -0.380  0.00  0.00    +0.098 C 
ATOM     14 BR   UNL     1       4.095   2.265   0.346  0.00  0.00    -0.050 Br
ATOM     15  C   UNL     1       2.383  -2.760  -0.676  0.00  0.00    +0.332 C 
ATOM     16  O   UNL     1       2.586  -2.610  -1.858  0.00  0.00    -0.249 OA
ATOM     17  O   UNL     1       3.143  -3.444   0.197  0.00  0.00    -0.429 OA
ATOM     18  H   UNL     1      -2.117  -0.149   0.067  0.00  0.00    +0.153 HD
ENDROOT
BRANCH  12  19
ATOM     19  N   UNL     1      -2.365  -2.558  -0.946  0.00  0.00    -0.346 N 
ATOM     20  H   UNL     1      -2.392  -3.620  -1.233  0.00  0.00    +0.143 HD
ATOM     21  H   UNL     1      -3.272  -1.942  -1.031  0.00  0.00    +0.143 HD
ENDBRANCH  12  19
BRANCH  13  22
ATOM     22  C   UNL     1      -0.132  -4.124  -0.759  0.00  0.00    +0.340 C 
ATOM     23  O   UNL     1      -0.231  -4.992   0.091  0.00  0.00    -0.245 OA
BRANCH  22  24
ATOM     24  O   UNL     1      -0.079  -4.461  -2.066  0.00  0.00    -0.459 OA
BRANCH  24  25
ATOM     25  C   UNL     1      -0.146  -5.854  -2.380  0.00  0.00    +0.260 C 
BRANCH  25  26
ATOM     26  C   UNL     1      -0.073  -6.039  -3.897  0.00  0.00    +0.200 C 
BRANCH  26  27
ATOM     27  O   UNL     1       1.205  -5.605  -4.369  0.00  0.00    -0.380 OA
ATOM     28  C   UNL     1       1.378  -5.736  -5.781  0.00  0.00    +0.194 C 
ENDBRANCH  26  27
ENDBRANCH  25  26
ENDBRANCH  24  25
ENDBRANCH  22  24
ENDBRANCH  13  22
BRANCH   3  29
ATOM     29  C   UNL     1       0.717  -2.505   2.688  0.00  0.00    +0.340 C 
ATOM     30  O   UNL     1       1.066  -2.975   3.755  0.00  0.00    -0.245 OA
BRANCH  29  31
ATOM     31  O   UNL     1      -0.414  -1.774   2.611  0.00  0.00    -0.465 OA
ATOM     32  C   UNL     1      -1.154  -1.594   3.820  0.00  0.00    +0.280 C 
ENDBRANCH  29  31
ENDBRANCH   3  29
TORSDOF 8
