REMARK  Name = ZINC44458356
REMARK  2 active torsions:
REMARK  status: ('A' for Active; 'I' for Inactive)
REMARK    1  A    between atoms: C_11  and  C_13
REMARK    2  A    between atoms: N_22  and  C_23
REMARK                            x       y       z     vdW  Elec       q    Type
REMARK                         _______ _______ _______ _____ _____    ______ ____
ROOT
ATOM      1  C   UNL     1       4.700   1.482  -0.737  0.00  0.00    +0.093 C 
ATOM      2  C   UNL     1       6.100   1.968  -1.119  0.00  0.00    +0.016 C 
ATOM      3  C   UNL     1       6.031   3.431  -1.563  0.00  0.00    +0.020 C 
ATOM      4  C   UNL     1       5.522   4.290  -0.402  0.00  0.00    +0.109 C 
ATOM      5  N   UNL     1       4.242   3.740   0.067  0.00  0.00    -0.285 N 
ATOM      6  C   UNL     1       4.175   2.319   0.434  0.00  0.00    +0.122 C 
ATOM      7  C   UNL     1       3.150   4.525   0.159  0.00  0.00    +0.302 C 
ATOM      8  O   UNL     1       2.122   4.083   0.634  0.00  0.00    -0.253 OA
ATOM      9  N   UNL     1       3.198   5.800  -0.275  0.00  0.00    -0.296 N 
ATOM     10  H   UNL     1       4.037   6.175  -0.587  0.00  0.00    +0.151 HD
ENDROOT
BRANCH   1  21
ATOM     11  C   UNL     1       3.850  -4.793   0.484  0.00  0.00    +0.000 A 
ATOM     12  C   UNL     1       4.986  -4.090   0.126  0.00  0.00    +0.002 A 
ATOM     13  C   UNL     1       4.909  -2.734  -0.119  0.00  0.00    +0.024 A 
ATOM     14  C   UNL     1       3.690  -2.075  -0.006  0.00  0.00    +0.039 A 
ATOM     15  C   UNL     1       2.551  -2.780   0.349  0.00  0.00    -0.026 A 
ATOM     16  C   UNL     1       2.637  -4.140   0.595  0.00  0.00    +0.005 A 
ATOM     17  C   UNL     1       1.212  -2.101   0.470  0.00  0.00    +0.038 C 
ATOM     18  C   UNL     1       1.390  -0.596   0.665  0.00  0.00    +0.024 C 
ATOM     19  C   UNL     1       2.321  -0.060  -0.430  0.00  0.00    +0.114 C 
ATOM     20  N   UNL     1       3.634  -0.697  -0.255  0.00  0.00    -0.271 N 
ATOM     21  C   UNL     1       4.764   0.033  -0.330  0.00  0.00    +0.224 C 
ATOM     22  O   UNL     1       5.834  -0.478  -0.071  0.00  0.00    -0.275 OA
ENDBRANCH   1  21
BRANCH   9  23
ATOM     23  C   UNL     1       1.984   6.619  -0.277  0.00  0.00    +0.075 C 
ATOM     24  C   UNL     1       1.715   7.482  -1.512  0.00  0.00    +0.024 C 
ATOM     25  C   UNL     1       2.156   8.138  -0.202  0.00  0.00    +0.024 C 
ENDBRANCH   9  23
TORSDOF 2
