REMARK  Name = ZINC36040368
REMARK  5 active torsions:
REMARK  status: ('A' for Active; 'I' for Inactive)
REMARK    1  A    between atoms: C_6  and  N_7
REMARK    2  A    between atoms: N_10  and  C_13
REMARK    3  A    between atoms: N_17  and  N_18
REMARK    4  A    between atoms: N_18  and  C_19
REMARK    5  A    between atoms: C_19  and  N_21
REMARK                            x       y       z     vdW  Elec       q    Type
REMARK                         _______ _______ _______ _____ _____    ______ ____
ROOT
ATOM      1  C   UNL     1      -3.280  -3.623  -0.090  0.00  0.00    +0.148 C 
ATOM      2  C   UNL     1      -4.210  -3.688  -1.309  0.00  0.00    +0.087 C 
ATOM      3  C   UNL     1      -5.463  -2.895  -0.987  0.00  0.00    +0.094 C 
ATOM      4  N   UNL     1      -5.978  -2.075  -1.825  0.00  0.00    -0.185 NA
ATOM      5  C   UNL     1      -6.074  -3.127   0.389  0.00  0.00    +0.298 C 
ATOM      6  O   UNL     1      -6.287  -4.550   0.508  0.00  0.00    -0.343 OA
ATOM      7  C   UNL     1      -5.035  -5.119   0.934  0.00  0.00    +0.197 C 
ATOM      8  C   UNL     1      -4.094  -3.884   1.182  0.00  0.00    +0.172 C 
ATOM      9  O   UNL     1      -5.038  -2.797   1.345  0.00  0.00    -0.338 OA
ENDROOT
BRANCH   1  13
ATOM     10  N   UNL     1      -1.226  -0.681   0.046  0.00  0.00    -0.188 N 
ATOM     11  C   UNL     1      -1.343  -2.023  -0.054  0.00  0.00    +0.201 A 
ATOM     12  S   UNL     1      -0.067  -3.155  -0.202  0.00  0.00    -0.009 S 
ATOM     13  N   UNL     1      -2.666  -2.295  -0.014  0.00  0.00    -0.215 N 
ATOM     14  N   UNL     1      -3.342  -1.076   0.113  0.00  0.00    -0.044 NA
ATOM     15  N   UNL     1      -2.519  -0.154   0.153  0.00  0.00    -0.040 NA
BRANCH  10  21
ATOM     16  C   UNL     1       0.941  -0.205  -0.911  0.00  0.00    +0.029 A 
ATOM     17  C   UNL     1       2.118   0.516  -0.907  0.00  0.00    +0.016 A 
ATOM     18  C   UNL     1       2.331   1.491   0.052  0.00  0.00    +0.014 A 
ATOM     19  C   UNL     1       1.365   1.746   1.009  0.00  0.00    +0.016 A 
ATOM     20  C   UNL     1       0.185   1.027   1.009  0.00  0.00    +0.029 A 
ATOM     21  C   UNL     1      -0.031   0.049   0.048  0.00  0.00    +0.070 A 
ATOM     22  I   UNL     1       4.119   2.583   0.055  0.00  0.00    -0.044 I 
ENDBRANCH  10  21
ENDBRANCH   1  13
BRANCH   4  23
ATOM     23  N   UNL     1      -7.062  -1.274  -1.446  0.00  0.00    -0.218 N 
ATOM     24  H   UNL     1      -7.379  -1.289  -0.529  0.00  0.00    +0.176 HD
BRANCH  23  25
ATOM     25  C   UNL     1      -7.666  -0.483  -2.354  0.00  0.00    +0.147 C 
ATOM     26  S   UNL     1      -8.992   0.496  -1.890  0.00  0.00    -0.017 S 
BRANCH  25  27
ATOM     27  N   UNL     1      -7.227  -0.463  -3.628  0.00  0.00    -0.339 N 
ATOM     28  H   UNL     1      -6.476  -1.018  -3.891  0.00  0.00    +0.144 HD
ATOM     29  H   UNL     1      -7.661   0.107  -4.282  0.00  0.00    +0.144 HD
ENDBRANCH  25  27
ENDBRANCH  23  25
ENDBRANCH   4  23
TORSDOF 5
