REMARK  Name = ZINC56393348
REMARK  4 active torsions:
REMARK  status: ('A' for Active; 'I' for Inactive)
REMARK    1  A    between atoms: C_4  and  C_7
REMARK    2  A    between atoms: C_17  and  C_19
REMARK    3  A    between atoms: C_22  and  S_24
REMARK    4  A    between atoms: S_24  and  N_27
REMARK                            x       y       z     vdW  Elec       q    Type
REMARK                         _______ _______ _______ _____ _____    ______ ____
ROOT
ATOM      1  C   UNL     1       3.657  -0.680  -0.068  0.00  0.00    +0.138 C 
ATOM      2  C   UNL     1       4.035  -1.036   1.368  0.00  0.00    -0.012 A 
ATOM      3  C   UNL     1       4.467  -0.093   2.300  0.00  0.00    +0.013 A 
ATOM      4  C   UNL     1       4.782  -0.479   3.557  0.00  0.00    +0.046 A 
ATOM      5  S   UNL     1       4.476  -2.238   3.489  0.00  0.00    -0.101 S 
ATOM      6  C   UNL     1       3.958  -2.325   1.795  0.00  0.00    -0.003 A 
ATOM      7  C   UNL     1       3.538  -3.528   1.014  0.00  0.00    +0.062 C 
ATOM      8  C   UNL     1       2.808  -3.061  -0.255  0.00  0.00    +0.114 C 
ATOM      9  N   UNL     1       3.558  -1.932  -0.831  0.00  0.00    -0.284 N 
ATOM     10  C   UNL     1       4.145  -2.046  -2.039  0.00  0.00    +0.283 C 
ATOM     11  O   UNL     1       3.974  -3.048  -2.707  0.00  0.00    -0.267 OA
ENDROOT
BRANCH   1  15
ATOM     12  C   UNL     1      -0.104   1.345  -0.114  0.00  0.00    +0.000 A 
ATOM     13  C   UNL     1       0.009   0.110   0.498  0.00  0.00    +0.000 A 
ATOM     14  C   UNL     1       1.226  -0.545   0.512  0.00  0.00    +0.006 A 
ATOM     15  C   UNL     1       2.330   0.034  -0.085  0.00  0.00    -0.023 A 
ATOM     16  C   UNL     1       2.217   1.268  -0.697  0.00  0.00    +0.006 A 
ATOM     17  C   UNL     1       1.000   1.924  -0.711  0.00  0.00    +0.000 A 
ENDBRANCH   1  15
BRANCH  10  18
ATOM     18  C   UNL     1       4.989  -0.960  -2.548  0.00  0.00    +0.192 A 
ATOM     19  C   UNL     1       5.537  -0.888  -3.796  0.00  0.00    +0.057 A 
ATOM     20  C   UNL     1       6.264   0.312  -3.850  0.00  0.00    +0.072 A 
ATOM     21  C   UNL     1       6.129   0.912  -2.646  0.00  0.00    +0.258 A 
ATOM     22  O   UNL     1       5.357   0.145  -1.866  0.00  0.00    -0.432 OA
BRANCH  21  23
ATOM     23  S   UNL     1       6.848   2.452  -2.182  0.00  0.00    +0.089 S 
ATOM     24  O   UNL     1       6.946   2.444  -0.764  0.00  0.00    -0.150 OA
ATOM     25  O   UNL     1       7.978   2.643  -3.023  0.00  0.00    -0.150 OA
BRANCH  23  26
ATOM     26  N   UNL     1       5.760   3.638  -2.575  0.00  0.00    -0.201 NA
ATOM     27  H   UNL     1       5.726   4.456  -2.054  0.00  0.00    +0.144 HD
ATOM     28  H   UNL     1       5.157   3.514  -3.324  0.00  0.00    +0.144 HD
ENDBRANCH  23  26
ENDBRANCH  21  23
ENDBRANCH  10  18
TORSDOF 4
