REMARK  Name = ZINC63138168
REMARK  8 active torsions:
REMARK  status: ('A' for Active; 'I' for Inactive)
REMARK    1  A    between atoms: C_1  and  O_2
REMARK    2  A    between atoms: O_2  and  C_3
REMARK    3  A    between atoms: C_6  and  O_40
REMARK    4  A    between atoms: C_7  and  C_9
REMARK    5  A    between atoms: N_28  and  C_31
REMARK    6  A    between atoms: C_31  and  C_32
REMARK    7  A    between atoms: C_32  and  C_33
REMARK    8  A    between atoms: O_40  and  C_41
REMARK                            x       y       z     vdW  Elec       q    Type
REMARK                         _______ _______ _______ _____ _____    ______ ____
ROOT
ATOM      1  C   UNL     1       1.323  -4.108  -2.285  0.00  0.00    +0.137 C 
ATOM      2  C   UNL     1       2.667  -4.588  -1.738  0.00  0.00    +0.131 C 
ATOM      3  C   UNL     1       2.569  -4.460  -0.220  0.00  0.00    -0.034 C 
ATOM      4  C   UNL     1       3.513  -3.607   0.154  0.00  0.00    -0.001 A 
ATOM      5  C   UNL     1       3.918  -3.114   1.481  0.00  0.00    +0.010 A 
ATOM      6  C   UNL     1       4.944  -2.223   1.502  0.00  0.00    +0.001 A 
ATOM      7  C   UNL     1       5.600  -1.778   0.350  0.00  0.00    +0.002 A 
ATOM      8  C   UNL     1       5.294  -2.179  -0.910  0.00  0.00    +0.026 A 
ATOM      9  C   UNL     1       4.232  -3.117  -1.061  0.00  0.00    +0.043 A 
ATOM     10  N   UNL     1       3.744  -3.677  -2.150  0.00  0.00    -0.375 N 
ATOM     11  C   UNL     1       1.521  -5.207   0.559  0.00  0.00    +0.065 C 
ATOM     12  C   UNL     1       0.210  -5.171  -0.184  0.00  0.00    +0.167 C 
ATOM     13  N   UNL     1       0.204  -4.663  -1.538  0.00  0.00    -0.279 N 
ATOM     14  C   UNL     1      -1.021  -4.667  -2.160  0.00  0.00    +0.234 C 
ATOM     15  O   UNL     1      -1.145  -4.330  -3.318  0.00  0.00    -0.274 OA
ATOM     16  C   UNL     1      -2.207  -5.114  -1.333  0.00  0.00    +0.203 C 
ATOM     17  N   UNL     1      -2.114  -4.483  -0.003  0.00  0.00    -0.291 N 
ATOM     18  C   UNL     1      -0.898  -4.521   0.606  0.00  0.00    +0.237 C 
ATOM     19  O   UNL     1      -0.718  -4.062   1.714  0.00  0.00    -0.274 OA
ATOM     20  H   UNL     1       4.034  -3.521  -3.062  0.00  0.00    +0.160 HD
ENDROOT
BRANCH   1  25
ATOM     21  C   UNL     1       0.606  -0.608  -1.056  0.00  0.00    +0.121 A 
ATOM     22  C   UNL     1       1.173   0.161  -2.062  0.00  0.00    +0.049 A 
ATOM     23  C   UNL     1       1.786  -0.452  -3.138  0.00  0.00    +0.049 A 
ATOM     24  C   UNL     1       1.835  -1.836  -3.211  0.00  0.00    +0.125 A 
ATOM     25  C   UNL     1       1.269  -2.604  -2.205  0.00  0.00    +0.020 A 
ATOM     26  C   UNL     1       0.661  -1.991  -1.127  0.00  0.00    +0.054 A 
BRANCH  21  28
ATOM     27  C   UNL     1      -0.017   1.425   0.010  0.00  0.00    +0.277 C 
ATOM     28  O   UNL     1       0.002  -0.004   0.002  0.00  0.00    -0.495 OA
ENDBRANCH  21  28
BRANCH  24  29
ATOM     29  O   UNL     1       2.439  -2.439  -4.270  0.00  0.00    -0.495 OA
ATOM     30  C   UNL     1       3.000  -1.586  -5.269  0.00  0.00    +0.277 C 
ENDBRANCH  24  29
ENDBRANCH   1  25
BRANCH  17  31
ATOM     31  C   UNL     1      -3.273  -3.847   0.629  0.00  0.00    +0.113 C 
BRANCH  31  32
ATOM     32  C   UNL     1      -4.026  -4.880   1.469  0.00  0.00    +0.054 C 
BRANCH  32  33
ATOM     33  C   UNL     1      -5.218  -4.226   2.119  0.00  0.00    -0.046 A 
ATOM     34  C   UNL     1      -5.090  -3.640   3.365  0.00  0.00    +0.006 A 
ATOM     35  C   UNL     1      -6.182  -3.039   3.962  0.00  0.00    +0.038 A 
ATOM     36  C   UNL     1      -7.405  -3.025   3.312  0.00  0.00    +0.123 A 
ATOM     37  C   UNL     1      -7.532  -3.613   2.065  0.00  0.00    +0.038 A 
ATOM     38  C   UNL     1      -6.437  -4.208   1.468  0.00  0.00    +0.006 A 
ATOM     39  F   UNL     1      -8.473  -2.439   3.895  0.00  0.00    -0.205 F 
ENDBRANCH  32  33
ENDBRANCH  31  32
ENDBRANCH  17  31
TORSDOF 6
