REMARK  Name = ZINC59475511
REMARK  11 active torsions:
REMARK  status: ('A' for Active; 'I' for Inactive)
REMARK    1  A    between atoms: C_1  and  C_2
REMARK    2  A    between atoms: C_2  and  C_4
REMARK    3  A    between atoms: C_2  and  S_19
REMARK    4  A    between atoms: N_6  and  N_7
REMARK    5  A    between atoms: C_8  and  C_9
REMARK    6  A    between atoms: S_19  and  C_20
REMARK    7  A    between atoms: C_23  and  C_28
REMARK    8  A    between atoms: N_24  and  C_25
REMARK    9  A    between atoms: C_25  and  C_26
REMARK   10  A    between atoms: C_28  and  N_29
REMARK   11  A    between atoms: N_29  and  C_30
REMARK                            x       y       z     vdW  Elec       q    Type
REMARK                         _______ _______ _______ _____ _____    ______ ____
ROOT
ATOM      1  S   UNL     1      -1.696  -0.656   0.003  0.00  0.00    -0.073 S 
ENDROOT
BRANCH   1   2
ATOM      2  C   UNL     1      -2.361  -0.116  -1.537  0.00  0.00    +0.193 A 
ATOM      3  N   UNL     1      -1.734   0.581  -2.456  0.00  0.00    -0.122 NA
ATOM      4  N   UNL     1      -2.519   0.799  -3.450  0.00  0.00    -0.132 NA
ATOM      5  C   UNL     1      -3.683   0.259  -3.227  0.00  0.00    +0.152 A 
ATOM      6  N   UNL     1      -3.623  -0.349  -2.003  0.00  0.00    -0.301 N 
BRANCH   6   7
ATOM      7  C   UNL     1      -4.691  -1.092  -1.331  0.00  0.00    +0.152 C 
BRANCH   7   8
ATOM      8  C   UNL     1      -5.506  -0.146  -0.486  0.00  0.00    -0.013 C 
ATOM      9  C   UNL     1      -6.803  -0.072  -0.653  0.00  0.00    +0.005 C 
ENDBRANCH   7   8
ENDBRANCH   6   7
BRANCH   5  10
ATOM     10  C   UNL     1      -4.874   0.291  -4.150  0.00  0.00    +0.178 C 
BRANCH  10  11
ATOM     11  N   UNL     1      -4.832  -0.869  -5.044  0.00  0.00    -0.337 N 
ATOM     12  H   UNL     1      -4.105  -1.507  -4.975  0.00  0.00    +0.147 HD
BRANCH  11  13
ATOM     13  C   UNL     1      -5.838  -1.055  -5.995  0.00  0.00    +0.028 A 
ATOM     14  C   UNL     1      -6.877  -0.139  -6.098  0.00  0.00    +0.024 A 
ATOM     15  C   UNL     1      -7.870  -0.325  -7.039  0.00  0.00    +0.022 A 
ATOM     16  C   UNL     1      -7.832  -1.424  -7.879  0.00  0.00    +0.041 A 
ATOM     17  C   UNL     1      -6.798  -2.339  -7.779  0.00  0.00    +0.022 A 
ATOM     18  C   UNL     1      -5.799  -2.154  -6.843  0.00  0.00    +0.024 A 
ATOM     19 CL   UNL     1      -9.082  -1.656  -9.060  0.00  0.00    -0.084 Cl
ENDBRANCH  11  13
ENDBRANCH  10  11
ENDBRANCH   5  10
ENDBRANCH   1   2
BRANCH   1  21
ATOM     20  C   UNL     1      -0.027   1.511   0.009  0.00  0.00    +0.029 C 
ATOM     21  C   UNL     1       0.002  -0.019  -0.004  0.00  0.00    +0.139 C 
BRANCH  21  22
ATOM     22  C   UNL     1       0.731  -0.518   1.217  0.00  0.00    +0.245 C 
ATOM     23  O   UNL     1       0.105  -0.913   2.178  0.00  0.00    -0.273 OA
ATOM     24  N   UNL     1       2.078  -0.526   1.241  0.00  0.00    -0.206 N 
ATOM     25  H   UNL     1       2.579  -0.210   0.472  0.00  0.00    +0.177 HD
BRANCH  24  26
ATOM     26  N   UNL     1       2.756  -0.990   2.376  0.00  0.00    -0.188 NA
ATOM     27  C   UNL     1       4.055  -0.998   2.399  0.00  0.00    +0.139 C 
BRANCH  27  28
ATOM     28  C   UNL     1       4.766  -1.485   3.591  0.00  0.00    +0.002 A 
ATOM     29  C   UNL     1       6.151  -1.605   3.591  0.00  0.00    +0.010 A 
ATOM     30  C   UNL     1       6.819  -2.065   4.718  0.00  0.00    +0.001 A 
ATOM     31  C   UNL     1       6.156  -2.413   5.854  0.00  0.00    +0.008 A 
ATOM     32  C   UNL     1       4.756  -2.318   5.925  0.00  0.00    -0.017 A 
ATOM     33  C   UNL     1       4.033  -1.848   4.802  0.00  0.00    -0.009 A 
ATOM     34  C   UNL     1       2.638  -1.746   4.871  0.00  0.00    +0.009 A 
ATOM     35  C   UNL     1       1.993  -2.095   6.019  0.00  0.00    +0.001 A 
ATOM     36  C   UNL     1       2.702  -2.552   7.128  0.00  0.00    +0.001 A 
ATOM     37  C   UNL     1       4.058  -2.675   7.091  0.00  0.00    +0.008 A 
ENDBRANCH  27  28
ENDBRANCH  24  26
ENDBRANCH  21  22
ENDBRANCH   1  21
TORSDOF 10
