REMARK  Name = ZINC39638583
REMARK  7 active torsions:
REMARK  status: ('A' for Active; 'I' for Inactive)
REMARK    1  A    between atoms: C_1  and  C_2
REMARK    2  A    between atoms: C_2  and  O_3
REMARK    3  A    between atoms: O_3  and  C_4
REMARK    4  A    between atoms: C_9  and  C_10
REMARK    5  A    between atoms: C_10  and  N_11
REMARK    6  A    between atoms: C_12  and  C_14
REMARK    7  A    between atoms: C_25  and  C_27
REMARK                            x       y       z     vdW  Elec       q    Type
REMARK                         _______ _______ _______ _____ _____    ______ ____
ROOT
ATOM      1  C   UNL     1      -5.247   0.749  -2.475  0.00  0.00    +0.100 C 
ATOM      2  C   UNL     1      -4.174   1.546  -3.250  0.00  0.00    +0.121 C 
ATOM      3  N   UNL     1      -4.941   2.531  -4.047  0.00  0.00    -0.296 N 
ATOM      4  C   UNL     1      -6.029   2.972  -3.141  0.00  0.00    +0.115 C 
ATOM      5  C   UNL     1      -6.463   1.688  -2.406  0.00  0.00    -0.004 C 
ATOM      6  C   UNL     1      -6.804   2.003  -0.953  0.00  0.00    -0.010 C 
ATOM      7  C   UNL     1      -8.051   2.891  -0.907  0.00  0.00    -0.082 C 
ATOM      8  N   UNL     1      -9.172   2.199  -1.555  0.00  0.00    +0.379 N 
ATOM      9  C   UNL     1      -8.872   1.982  -2.975  0.00  0.00    -0.082 C 
ATOM     10  C   UNL     1      -7.660   1.056  -3.108  0.00  0.00    -0.010 C 
ATOM     11  C   UNL     1      -4.705   2.934  -5.311  0.00  0.00    +0.247 C 
ATOM     12  O   UNL     1      -3.847   2.385  -5.974  0.00  0.00    -0.270 OA
ATOM     13  H   UNL     1      -9.320   1.308  -1.104  0.00  0.00    -0.086 HD
ATOM     14  H   UNL     1     -10.006   2.759  -1.470  0.00  0.00    -0.086 HD
ENDROOT
BRANCH  11  15
ATOM     15  C   UNL     1      -5.488   4.046  -5.891  0.00  0.00    +0.040 A 
ATOM     16  C   UNL     1      -6.145   4.951  -5.056  0.00  0.00    +0.033 A 
ATOM     17  C   UNL     1      -6.876   5.987  -5.604  0.00  0.00    +0.043 A 
ATOM     18  C   UNL     1      -6.957   6.129  -6.979  0.00  0.00    +0.040 A 
ATOM     19  C   UNL     1      -6.308   5.234  -7.812  0.00  0.00    +0.043 A 
ATOM     20  C   UNL     1      -5.569   4.198  -7.276  0.00  0.00    +0.033 A 
ATOM     21 CL   UNL     1      -6.417   5.420  -9.535  0.00  0.00    -0.083 Cl
ATOM     22 CL   UNL     1      -7.694   7.113  -4.566  0.00  0.00    -0.083 Cl
ENDBRANCH  11  15
BRANCH   1  24
ATOM     23  N   UNL     1      -5.183  -0.701  -0.472  0.00  0.00    -0.311 N 
ATOM     24  C   UNL     1      -4.758   0.420  -1.089  0.00  0.00    +0.218 C 
ATOM     25  O   UNL     1      -3.982   1.163  -0.527  0.00  0.00    -0.275 OA
ATOM     26  H   UNL     1      -5.803  -1.296  -0.922  0.00  0.00    +0.149 HD
BRANCH  23  27
ATOM     27  C   UNL     1      -4.707  -1.021   0.876  0.00  0.00    +0.143 C 
BRANCH  27  33
ATOM     28  C   UNL     1      -4.806  -3.527   0.900  0.00  0.00    +0.125 A 
ATOM     29  C   UNL     1      -5.376  -4.717   1.327  0.00  0.00    +0.046 A 
ATOM     30  C   UNL     1      -6.464  -4.695   2.178  0.00  0.00    +0.004 A 
ATOM     31  C   UNL     1      -6.985  -3.487   2.604  0.00  0.00    +0.001 A 
ATOM     32  C   UNL     1      -6.419  -2.299   2.180  0.00  0.00    +0.009 A 
ATOM     33  C   UNL     1      -5.328  -2.316   1.333  0.00  0.00    +0.011 A 
BRANCH  28  34
ATOM     34  O   UNL     1      -3.736  -3.546   0.063  0.00  0.00    -0.492 OA
BRANCH  34  36
ATOM     35  C   UNL     1      -2.053  -4.650  -1.275  0.00  0.00    +0.048 C 
ATOM     36  C   UNL     1      -3.252  -4.828  -0.342  0.00  0.00    +0.225 C 
ENDBRANCH  34  36
ENDBRANCH  28  34
ENDBRANCH  27  33
ENDBRANCH  23  27
ENDBRANCH   1  24
TORSDOF 6
