REMARK  Name = ZINC37581184
REMARK  7 active torsions:
REMARK  status: ('A' for Active; 'I' for Inactive)
REMARK    1  A    between atoms: C_1  and  C_2
REMARK    2  A    between atoms: C_5  and  S_12
REMARK    3  A    between atoms: C_6  and  C_8
REMARK    4  A    between atoms: C_9  and  C_10
REMARK    5  A    between atoms: C_10  and  N_11
REMARK    6  A    between atoms: S_12  and  N_15
REMARK    7  A    between atoms: C_19  and  C_21
REMARK                            x       y       z     vdW  Elec       q    Type
REMARK                         _______ _______ _______ _____ _____    ______ ____
ROOT
ATOM      1  C   UNL     1      -0.018   1.503   0.010  0.00  0.00    +0.044 C 
ATOM      2  C   UNL     1       0.002  -0.004   0.002  0.00  0.00    -0.049 A 
ATOM      3  C   UNL     1       0.006  -0.688  -1.201  0.00  0.00    +0.005 A 
ATOM      4  C   UNL     1       0.025  -2.071  -1.217  0.00  0.00    +0.030 A 
ATOM      5  C   UNL     1       0.040  -2.778  -0.032  0.00  0.00    +0.128 A 
ATOM      6  C   UNL     1       0.037  -2.094   1.184  0.00  0.00    +0.052 A 
ATOM      7  C   UNL     1       0.023  -0.699   1.194  0.00  0.00    +0.022 A 
ENDROOT
BRANCH   5   8
ATOM      8  S   UNL     1       0.063  -4.539  -0.055  0.00  0.00    +0.102 S 
ATOM      9  O   UNL     1      -0.952  -4.971   0.841  0.00  0.00    -0.146 OA
ATOM     10  O   UNL     1       0.088  -4.927  -1.422  0.00  0.00    -0.146 OA
BRANCH   8  11
ATOM     11  N   UNL     1       1.507  -5.018   0.600  0.00  0.00    -0.103 NA
ATOM     12  C   UNL     1       1.788  -6.294   0.705  0.00  0.00    +0.192 A 
ATOM     13  N   UNL     1       1.036  -7.387   0.332  0.00  0.00    -0.339 N 
ATOM     14  C   UNL     1       1.549  -8.633   0.546  0.00  0.00    +0.095 A 
ATOM     15  C   UNL     1       2.751  -8.777   1.103  0.00  0.00    +0.006 A 
ATOM     16  S   UNL     1       3.250  -7.082   1.361  0.00  0.00    -0.054 S 
ATOM     17  C   UNL     1       3.500 -10.044   1.427  0.00  0.00    +0.053 C 
ATOM     18  H   UNL     1       0.162  -7.274  -0.073  0.00  0.00    +0.167 HD
ENDBRANCH   8  11
ENDBRANCH   5   8
BRANCH   6  19
ATOM     19  C   UNL     1       0.052  -2.821   2.418  0.00  0.00    -0.066 C 
ATOM     20  C   UNL     1       0.065  -3.418   3.429  0.00  0.00    -0.117 C 
BRANCH  20  21
ATOM     21  C   UNL     1       0.081  -4.165   4.697  0.00  0.00    +0.005 C 
BRANCH  21  22
ATOM     22  N   UNL     1       0.074  -3.221   5.822  0.00  0.00    +0.385 N 
ATOM     23  H   UNL     1       0.890  -2.630   5.770  0.00  0.00    -0.089 HD
ATOM     24  H   UNL     1      -0.757  -2.651   5.778  0.00  0.00    -0.089 HD
ATOM     25  H   UNL     1       0.085  -3.733   6.691  0.00  0.00    -0.089 HD
ENDBRANCH  21  22
ENDBRANCH  20  21
ENDBRANCH   6  19
TORSDOF 5
