REMARK  Name = ZINC40939844
REMARK  10 active torsions:
REMARK  status: ('A' for Active; 'I' for Inactive)
REMARK    1  A    between atoms: C_1  and  C_2
REMARK    2  A    between atoms: C_2  and  O_3
REMARK    3  A    between atoms: O_3  and  C_4
REMARK    4  A    between atoms: C_6  and  C_19
REMARK    5  A    between atoms: C_9  and  O_10
REMARK    6  A    between atoms: O_10  and  C_11
REMARK    7  A    between atoms: C_11  and  C_12
REMARK    8  A    between atoms: C_12  and  C_13
REMARK    9  A    between atoms: N_23  and  N_27
REMARK   10  A    between atoms: C_28  and  C_30
REMARK                            x       y       z     vdW  Elec       q    Type
REMARK                         _______ _______ _______ _____ _____    ______ ____
ROOT
ATOM      1  C   UNL     1       1.623  -2.097  -1.140  0.00  0.00    +0.162 A 
ATOM      2  C   UNL     1       0.867  -2.830  -0.246  0.00  0.00    +0.057 A 
ATOM      3  C   UNL     1       0.595  -4.178  -0.505  0.00  0.00    -0.020 A 
ATOM      4  C   UNL     1       1.090  -4.777  -1.670  0.00  0.00    +0.012 A 
ATOM      5  C   UNL     1       1.843  -4.038  -2.556  0.00  0.00    +0.050 A 
ATOM      6  C   UNL     1       2.108  -2.699  -2.300  0.00  0.00    +0.162 A 
ENDROOT
BRANCH   3   7
ATOM      7  C   UNL     1      -0.208  -4.963   0.442  0.00  0.00    +0.028 C 
ATOM      8  C   UNL     1      -0.752  -6.145   0.054  0.00  0.00    +0.079 C 
ATOM      9  C   UNL     1      -1.462  -7.162   0.854  0.00  0.00    +0.275 C 
ATOM     10  O   UNL     1      -1.644  -7.022   2.050  0.00  0.00    -0.267 OA
ATOM     11  N   UNL     1      -1.892  -8.232   0.207  0.00  0.00    -0.169 N 
ATOM     12  C   UNL     1      -1.690  -8.382  -1.118  0.00  0.00    +0.138 C 
ATOM     13  S   UNL     1      -2.164  -9.682  -2.125  0.00  0.00    -0.026 S 
ATOM     14  S   UNL     1      -0.812  -6.894  -1.568  0.00  0.00    -0.059 S 
BRANCH  11  15
ATOM     15  N   UNL     1      -2.574  -9.231   0.913  0.00  0.00    -0.222 N 
ATOM     16  C   UNL     1      -3.910  -9.352   0.789  0.00  0.00    +0.261 C 
ATOM     17  O   UNL     1      -4.525  -8.594   0.065  0.00  0.00    -0.269 OA
ATOM     18  H   UNL     1      -2.083  -9.837   1.491  0.00  0.00    +0.174 HD
BRANCH  16  19
ATOM     19  C   UNL     1      -4.629 -10.407   1.535  0.00  0.00    +0.038 A 
ATOM     20  C   UNL     1      -3.928 -11.276   2.372  0.00  0.00    +0.013 A 
ATOM     21  C   UNL     1      -4.605 -12.258   3.065  0.00  0.00    +0.001 A 
ATOM     22  C   UNL     1      -5.976 -12.383   2.931  0.00  0.00    +0.000 A 
ATOM     23  C   UNL     1      -6.678 -11.525   2.103  0.00  0.00    +0.001 A 
ATOM     24  C   UNL     1      -6.014 -10.535   1.409  0.00  0.00    +0.013 A 
ENDBRANCH  16  19
ENDBRANCH  11  15
ENDBRANCH   3   7
BRANCH   1  25
ATOM     25  O   UNL     1       1.890  -0.787  -0.891  0.00  0.00    -0.489 OA
BRANCH  25  27
ATOM     26  C   UNL     1       1.761   1.238   0.422  0.00  0.00    +0.048 C 
ATOM     27  C   UNL     1       1.361  -0.235   0.316  0.00  0.00    +0.226 C 
ENDBRANCH  25  27
ENDBRANCH   1  25
BRANCH   6  28
ATOM     28  O   UNL     1       2.847  -1.975  -3.181  0.00  0.00    -0.488 OA
BRANCH  28  29
ATOM     29  C   UNL     1       3.313  -2.653  -4.349  0.00  0.00    +0.234 C 
BRANCH  29  30
ATOM     30  C   UNL     1       4.120  -1.683  -5.214  0.00  0.00    +0.076 C 
BRANCH  30  31
ATOM     31  C   UNL     1       4.611  -2.398  -6.446  0.00  0.00    -0.044 A 
ATOM     32  C   UNL     1       5.833  -3.044  -6.429  0.00  0.00    +0.004 A 
ATOM     33  C   UNL     1       6.284  -3.701  -7.559  0.00  0.00    +0.000 A 
ATOM     34  C   UNL     1       5.513  -3.711  -8.706  0.00  0.00    +0.000 A 
ATOM     35  C   UNL     1       4.290  -3.066  -8.723  0.00  0.00    +0.000 A 
ATOM     36  C   UNL     1       3.837  -2.413  -7.592  0.00  0.00    +0.004 A 
ENDBRANCH  30  31
ENDBRANCH  29  30
ENDBRANCH  28  29
ENDBRANCH   6  28
TORSDOF 9
