REMARK  Name = ZINC39576706
REMARK  11 active torsions:
REMARK  status: ('A' for Active; 'I' for Inactive)
REMARK    1  A    between atoms: C_1  and  C_2
REMARK    2  A    between atoms: C_2  and  C_3
REMARK    3  A    between atoms: C_2  and  C_4
REMARK    4  A    between atoms: C_2  and  C_5
REMARK    5  A    between atoms: C_5  and  C_6
REMARK    6  A    between atoms: C_13  and  C_17
REMARK    7  A    between atoms: N_19  and  N_20
REMARK    8  A    between atoms: C_21  and  C_22
REMARK    9  A    between atoms: C_25  and  O_30
REMARK   10  A    between atoms: C_26  and  O_28
REMARK   11  A    between atoms: O_28  and  C_29
REMARK                            x       y       z     vdW  Elec       q    Type
REMARK                         _______ _______ _______ _____ _____    ______ ____
ROOT
ATOM      1  C   UNL     1       5.331  -1.642  -3.921  0.00  0.00    +0.263 C 
ATOM      2  O   UNL     1       6.396  -1.305  -3.448  0.00  0.00    -0.271 OA
ATOM      3  N   UNL     1       4.928  -2.924  -3.828  0.00  0.00    -0.205 N 
ATOM      4  H   UNL     1       4.076  -3.193  -4.207  0.00  0.00    +0.177 HD
ENDROOT
BRANCH   1  11
ATOM      5  C   UNL     1       1.648  -0.097  -1.932  0.00  0.00    -0.006 C 
ATOM      6  C   UNL     1       1.362   1.314  -2.453  0.00  0.00    +0.010 C 
ATOM      7  C   UNL     1       2.683   2.047  -2.711  0.00  0.00    +0.057 C 
ATOM      8  C   UNL     1       3.568   1.159  -3.558  0.00  0.00    +0.065 C 
ATOM      9  C   UNL     1       3.359  -0.154  -3.700  0.00  0.00    -0.012 C 
ATOM     10  C   UNL     1       2.252  -0.942  -3.063  0.00  0.00    +0.039 C 
ATOM     11  C   UNL     1       4.460  -0.626  -4.614  0.00  0.00    +0.243 C 
ATOM     12  N   UNL     1       5.210   0.617  -4.883  0.00  0.00    -0.170 NA
ATOM     13  N   UNL     1       4.654   1.533  -4.269  0.00  0.00    -0.158 NA
BRANCH   5  14
ATOM     14  C   UNL     1       0.344  -0.740  -1.455  0.00  0.00    +0.010 C 
BRANCH  14  16
ATOM     15  C   UNL     1       1.602  -1.538   0.551  0.00  0.00    +0.010 C 
ATOM     16  C   UNL     1       0.663  -1.956  -0.583  0.00  0.00    -0.037 C 
ATOM     17  C   UNL     1       1.341  -3.030  -1.436  0.00  0.00    +0.010 C 
ATOM     18  C   UNL     1      -0.633  -2.515   0.007  0.00  0.00    +0.010 C 
ENDBRANCH  14  16
ENDBRANCH   5  14
ENDBRANCH   1  11
BRANCH   3  19
ATOM     19  N   UNL     1       5.737  -3.869  -3.184  0.00  0.00    -0.188 NA
ATOM     20  C   UNL     1       5.348  -5.104  -3.094  0.00  0.00    +0.138 C 
BRANCH  20  21
ATOM     21  C   UNL     1       6.201  -6.097  -2.417  0.00  0.00    -0.002 A 
ATOM     22  C   UNL     1       7.425  -5.710  -1.866  0.00  0.00    +0.013 A 
ATOM     23  C   UNL     1       8.221  -6.642  -1.232  0.00  0.00    +0.050 A 
ATOM     24  C   UNL     1       7.809  -7.963  -1.141  0.00  0.00    +0.158 A 
ATOM     25  C   UNL     1       6.590  -8.356  -1.688  0.00  0.00    +0.162 A 
ATOM     26  C   UNL     1       5.784  -7.427  -2.319  0.00  0.00    +0.058 A 
BRANCH  25  27
ATOM     27  O   UNL     1       6.190  -9.653  -1.597  0.00  0.00    -0.491 OA
ATOM     28  C   UNL     1       4.928  -9.985  -2.180  0.00  0.00    +0.277 C 
ENDBRANCH  25  27
BRANCH  24  29
ATOM     29  O   UNL     1       8.598  -8.877  -0.516  0.00  0.00    -0.503 OA
ATOM     30  H   UNL     1       8.425  -8.964   0.431  0.00  0.00    +0.292 HD
ENDBRANCH  24  29
ENDBRANCH  20  21
ENDBRANCH   3  19
TORSDOF 7
