REMARK  Name = ZINC39665027
REMARK  8 active torsions:
REMARK  status: ('A' for Active; 'I' for Inactive)
REMARK    1  A    between atoms: C_1  and  C_2
REMARK    2  A    between atoms: C_2  and  C_4
REMARK    3  A    between atoms: C_2  and  O_33
REMARK    4  A    between atoms: C_4  and  N_5
REMARK    5  A    between atoms: C_6  and  C_8
REMARK    6  A    between atoms: C_19  and  C_21
REMARK    7  A    between atoms: C_27  and  C_29
REMARK    8  A    between atoms: O_33  and  C_34
REMARK                            x       y       z     vdW  Elec       q    Type
REMARK                         _______ _______ _______ _____ _____    ______ ____
ROOT
ATOM      1  C   UNL     1       1.551  -4.330   2.663  0.00  0.00    +0.100 C 
ATOM      2  C   UNL     1       2.533  -4.928   1.631  0.00  0.00    +0.121 C 
ATOM      3  N   UNL     1       3.817  -5.048   2.362  0.00  0.00    -0.299 N 
ATOM      4  C   UNL     1       3.426  -5.496   3.721  0.00  0.00    +0.115 C 
ATOM      5  C   UNL     1       2.138  -4.708   4.033  0.00  0.00    -0.004 C 
ATOM      6  C   UNL     1       1.157  -5.586   4.805  0.00  0.00    -0.010 C 
ATOM      7  C   UNL     1       1.739  -5.900   6.186  0.00  0.00    -0.082 C 
ATOM      8  N   UNL     1       1.983  -4.649   6.913  0.00  0.00    +0.379 N 
ATOM      9  C   UNL     1       2.998  -3.852   6.212  0.00  0.00    -0.082 C 
ATOM     10  C   UNL     1       2.470  -3.451   4.831  0.00  0.00    -0.010 C 
ATOM     11  C   UNL     1       5.058  -4.805   1.897  0.00  0.00    +0.236 C 
ATOM     12  O   UNL     1       6.018  -4.951   2.625  0.00  0.00    -0.274 OA
ATOM     13  H   UNL     1       1.125  -4.122   6.971  0.00  0.00    -0.086 HD
ATOM     14  H   UNL     1       2.309  -4.860   7.844  0.00  0.00    -0.086 HD
ENDROOT
BRANCH  11  15
ATOM     15  C   UNL     1       5.254  -4.353   0.473  0.00  0.00    +0.162 C 
ATOM     16  C   UNL     1       5.191  -5.567  -0.477  0.00  0.00    +0.033 C 
ATOM     17  C   UNL     1       6.286  -5.244  -1.528  0.00  0.00    +0.021 C 
ATOM     18  C   UNL     1       7.356  -4.540  -0.656  0.00  0.00    +0.109 C 
ATOM     19  N   UNL     1       6.584  -3.744   0.321  0.00  0.00    -0.283 N 
ATOM     20  C   UNL     1       7.023  -2.644   0.965  0.00  0.00    +0.320 C 
ATOM     21  O   UNL     1       6.297  -2.070   1.749  0.00  0.00    -0.266 OA
BRANCH  20  22
ATOM     22  C   UNL     1       8.416  -2.128   0.711  0.00  0.00    +0.470 C 
ATOM     23  F   UNL     1       8.639  -0.987   1.488  0.00  0.00    -0.162 F 
ATOM     24  F   UNL     1       9.348  -3.114   1.052  0.00  0.00    -0.162 F 
ATOM     25  F   UNL     1       8.553  -1.804  -0.643  0.00  0.00    -0.162 F 
ENDBRANCH  20  22
ENDBRANCH  11  15
BRANCH   1  27
ATOM     26  N   UNL     1       0.354  -2.173   2.846  0.00  0.00    -0.312 N 
ATOM     27  C   UNL     1       1.483  -2.832   2.517  0.00  0.00    +0.218 C 
ATOM     28  O   UNL     1       2.444  -2.219   2.103  0.00  0.00    -0.275 OA
ATOM     29  H   UNL     1      -0.415  -2.664   3.177  0.00  0.00    +0.149 HD
BRANCH  26  30
ATOM     30  C   UNL     1       0.288  -0.717   2.704  0.00  0.00    +0.148 C 
BRANCH  30  32
ATOM     31  C   UNL     1      -1.205   1.279   2.877  0.00  0.00    +0.053 C 
ATOM     32  C   UNL     1      -1.093  -0.224   3.142  0.00  0.00    +0.187 C 
BRANCH  32  33
ATOM     33  O   UNL     1      -1.268  -0.475   4.538  0.00  0.00    -0.488 OA
BRANCH  33  34
ATOM     34  C   UNL     1      -2.545  -0.584   4.990  0.00  0.00    +0.121 A 
ATOM     35  C   UNL     1      -3.608  -0.345   4.131  0.00  0.00    +0.045 A 
ATOM     36  C   UNL     1      -4.906  -0.456   4.593  0.00  0.00    +0.004 A 
ATOM     37  C   UNL     1      -5.145  -0.804   5.910  0.00  0.00    +0.000 A 
ATOM     38  C   UNL     1      -4.087  -1.042   6.767  0.00  0.00    +0.004 A 
ATOM     39  C   UNL     1      -2.788  -0.939   6.309  0.00  0.00    +0.045 A 
ENDBRANCH  33  34
ENDBRANCH  32  33
ENDBRANCH  30  32
ENDBRANCH  26  30
ENDBRANCH   1  27
TORSDOF 7
