REMARK  Name = ZINC21255125
REMARK  11 active torsions:
REMARK  status: ('A' for Active; 'I' for Inactive)
REMARK    1  A    between atoms: C_1  and  C_2
REMARK    2  A    between atoms: C_2  and  C_3
REMARK    3  A    between atoms: C_3  and  O_4
REMARK    4  A    between atoms: O_4  and  C_5
REMARK    5  A    between atoms: C_8  and  C_11
REMARK    6  A    between atoms: C_16  and  C_26
REMARK    7  A    between atoms: C_29  and  O_34
REMARK    8  A    between atoms: C_30  and  O_32
REMARK    9  A    between atoms: O_32  and  C_33
REMARK   10  A    between atoms: O_34  and  C_35
REMARK   11  A    between atoms: C_35  and  C_36
REMARK                            x       y       z     vdW  Elec       q    Type
REMARK                         _______ _______ _______ _____ _____    ______ ____
ROOT
ATOM      1  C   UNL     1       2.315   1.438   0.729  0.00  0.00    +0.032 C 
ATOM      2  C   UNL     1       1.213   2.182  -0.024  0.00  0.00    +0.059 C 
ATOM      3  C   UNL     1      -0.070   1.366  -0.001  0.00  0.00    +0.017 C 
ATOM      4  C   UNL     1      -0.020   0.025  -0.011  0.00  0.00    +0.036 C 
ATOM      5  C   UNL     1      -1.209  -0.907  -0.021  0.00  0.00    +0.136 C 
ATOM      6  N   UNL     1      -2.475  -0.259   0.246  0.00  0.00    -0.331 N 
ATOM      7  C   UNL     1      -2.993   0.694  -0.628  0.00  0.00    +0.049 A 
ATOM      8  C   UNL     1      -4.159   0.460  -1.341  0.00  0.00    +0.025 A 
ATOM      9  C   UNL     1      -4.613   1.413  -2.235  0.00  0.00    +0.002 A 
ATOM     10  C   UNL     1      -3.912   2.591  -2.421  0.00  0.00    +0.002 A 
ATOM     11  C   UNL     1      -2.757   2.836  -1.697  0.00  0.00    +0.025 A 
ATOM     12  C   UNL     1      -2.315   1.893  -0.787  0.00  0.00    +0.052 A 
ATOM     13  N   UNL     1      -1.208   2.107   0.034  0.00  0.00    -0.316 N 
ATOM     14  C   UNL     1       1.228  -0.643  -0.012  0.00  0.00    +0.163 C 
ATOM     15  O   UNL     1       1.241  -1.858  -0.046  0.00  0.00    -0.292 OA
ATOM     16  C   UNL     1       2.533   0.093   0.026  0.00  0.00    +0.088 C 
ATOM     17  H   UNL     1      -3.045  -0.516   1.151  0.00  0.00    +0.147 HD
ATOM     18  H   UNL     1      -1.299   2.941   0.745  0.00  0.00    +0.152 HD
ENDROOT
BRANCH   1  22
ATOM     19  C   UNL     1       5.926   3.721   0.640  0.00  0.00    +0.121 A 
ATOM     20  C   UNL     1       5.356   3.369   1.855  0.00  0.00    +0.046 A 
ATOM     21  C   UNL     1       4.189   2.631   1.881  0.00  0.00    +0.007 A 
ATOM     22  C   UNL     1       3.588   2.243   0.698  0.00  0.00    -0.043 A 
ATOM     23  C   UNL     1       4.157   2.588  -0.515  0.00  0.00    +0.007 A 
ATOM     24  C   UNL     1       5.321   3.331  -0.546  0.00  0.00    +0.046 A 
BRANCH  19  25
ATOM     25  O   UNL     1       7.074   4.448   0.612  0.00  0.00    -0.492 OA
BRANCH  25  26
ATOM     26  C   UNL     1       7.604   4.774  -0.675  0.00  0.00    +0.229 C 
BRANCH  26  28
ATOM     27  C   UNL     1       9.455   5.938  -1.883  0.00  0.00    +0.007 C 
ATOM     28  C   UNL     1       8.888   5.588  -0.506  0.00  0.00    +0.038 C 
ENDBRANCH  26  28
ENDBRANCH  25  26
ENDBRANCH  19  25
ENDBRANCH   1  22
BRANCH   5  29
ATOM     29  C   UNL     1      -1.286  -1.570  -1.372  0.00  0.00    -0.019 A 
ATOM     30  C   UNL     1      -1.508  -0.807  -2.503  0.00  0.00    +0.009 A 
ATOM     31  C   UNL     1      -1.579  -1.410  -3.745  0.00  0.00    +0.050 A 
ATOM     32  C   UNL     1      -1.428  -2.783  -3.858  0.00  0.00    +0.162 A 
ATOM     33  C   UNL     1      -1.205  -3.551  -2.720  0.00  0.00    +0.162 A 
ATOM     34  C   UNL     1      -1.130  -2.940  -1.479  0.00  0.00    +0.055 A 
BRANCH  33  35
ATOM     35  O   UNL     1      -1.056  -4.899  -2.825  0.00  0.00    -0.491 OA
ATOM     36  C   UNL     1      -0.830  -5.624  -1.615  0.00  0.00    +0.277 C 
ENDBRANCH  33  35
BRANCH  32  37
ATOM     37  O   UNL     1      -1.497  -3.378  -5.079  0.00  0.00    -0.489 OA
BRANCH  37  38
ATOM     38  C   UNL     1      -1.728  -2.527  -6.204  0.00  0.00    +0.226 C 
ATOM     39  C   UNL     1      -1.773  -3.369  -7.480  0.00  0.00    +0.048 C 
ENDBRANCH  37  38
ENDBRANCH  32  37
ENDBRANCH   5  29
TORSDOF 8
