REMARK  Name = ZINC10103864
REMARK  7 active torsions:
REMARK  status: ('A' for Active; 'I' for Inactive)
REMARK    1  A    between atoms: C_1  and  C_2
REMARK    2  A    between atoms: N_9  and  C_10
REMARK    3  A    between atoms: C_10  and  C_12
REMARK    4  A    between atoms: C_10  and  C_13
REMARK    5  A    between atoms: N_19  and  C_33
REMARK    6  A    between atoms: N_22  and  C_25
REMARK    7  A    between atoms: C_25  and  C_26
REMARK                            x       y       z     vdW  Elec       q    Type
REMARK                         _______ _______ _______ _____ _____    ______ ____
ROOT
ATOM      1  C   UNL     1      -6.032   0.089   0.144  0.00  0.00    +0.065 C 
ATOM      2  C   UNL     1      -4.766   0.903   0.070  0.00  0.00    +0.036 A 
ATOM      3  C   UNL     1      -3.528   0.418   0.030  0.00  0.00    +0.116 A 
ATOM      4  N   UNL     1      -2.646   1.482  -0.035  0.00  0.00    -0.277 N 
ATOM      5  C   UNL     1      -1.308   1.844  -0.100  0.00  0.00    +0.157 A 
ATOM      6  C   UNL     1      -1.281   3.238  -0.131  0.00  0.00    +0.170 A 
ATOM      7  N   UNL     1      -2.540   3.664  -0.083  0.00  0.00    -0.193 NA
ATOM      8  C   UNL     1      -3.366   2.628  -0.033  0.00  0.00    +0.219 A 
ATOM      9  N   UNL     1      -4.690   2.282   0.032  0.00  0.00    -0.307 N 
ATOM     10  N   UNL     1      -0.053   3.880  -0.204  0.00  0.00    -0.279 N 
ATOM     11  C   UNL     1       1.083   3.158  -0.239  0.00  0.00    +0.334 A 
ATOM     12  O   UNL     1       2.151   3.736  -0.304  0.00  0.00    -0.246 OA
ATOM     13  N   UNL     1       1.066   1.814  -0.205  0.00  0.00    -0.255 N 
ATOM     14  C   UNL     1      -0.097   1.134  -0.133  0.00  0.00    +0.283 A 
ATOM     15  O   UNL     1      -0.097  -0.084  -0.102  0.00  0.00    -0.265 OA
ATOM     16  C   UNL     1       0.007   5.343  -0.243  0.00  0.00    +0.155 C 
ENDROOT
BRANCH   9  17
ATOM     17  C   UNL     1      -5.824   3.210   0.056  0.00  0.00    +0.117 C 
ATOM     18  C   UNL     1      -5.633   4.219   1.190  0.00  0.00    +0.036 C 
BRANCH  17  19
ATOM     19  C   UNL     1      -5.903   3.941  -1.259  0.00  0.00    -0.025 A 
ATOM     20  C   UNL     1      -4.914   4.841  -1.610  0.00  0.00    +0.005 A 
ATOM     21  C   UNL     1      -4.985   5.508  -2.819  0.00  0.00    +0.000 A 
ATOM     22  C   UNL     1      -6.048   5.282  -3.672  0.00  0.00    +0.000 A 
ATOM     23  C   UNL     1      -7.039   4.386  -3.319  0.00  0.00    +0.000 A 
ATOM     24  C   UNL     1      -6.967   3.715  -2.113  0.00  0.00    +0.005 A 
ENDBRANCH  17  19
ENDBRANCH   9  17
BRANCH  13  25
ATOM     25  C   UNL     1       2.330   1.076  -0.246  0.00  0.00    +0.165 C 
BRANCH  25  26
ATOM     26  C   UNL     1       2.698   0.787  -1.679  0.00  0.00    -0.027 A 
ATOM     27  C   UNL     1       2.269  -0.382  -2.279  0.00  0.00    +0.006 A 
ATOM     28  C   UNL     1       2.602  -0.645  -3.595  0.00  0.00    +0.015 A 
ATOM     29  C   UNL     1       3.372   0.257  -4.307  0.00  0.00    +0.018 A 
ATOM     30  C   UNL     1       3.805   1.424  -3.704  0.00  0.00    +0.015 A 
ATOM     31  C   UNL     1       3.467   1.688  -2.390  0.00  0.00    +0.006 A 
ATOM     32 BR   UNL     1       3.833  -0.106  -6.105  0.00  0.00    -0.050 Br
ENDBRANCH  25  26
ENDBRANCH  13  25
TORSDOF 4
