REMARK  Name = ZINC02238177
REMARK  6 active torsions:
REMARK  status: ('A' for Active; 'I' for Inactive)
REMARK    1  A    between atoms: C_3  and  C_10
REMARK    2  A    between atoms: C_5  and  N_7
REMARK    3  A    between atoms: C_11  and  C_12
REMARK    4  A    between atoms: N_14  and  C_15
REMARK    5  A    between atoms: C_15  and  C_16
REMARK    6  A    between atoms: C_16  and  C_17
REMARK                            x       y       z     vdW  Elec       q    Type
REMARK                         _______ _______ _______ _____ _____    ______ ____
ROOT
ATOM      1  C   UNL     1      -1.266   7.440   0.051  0.00  0.00    +0.237 C 
ATOM      2  O   UNL     1      -0.221   8.062   0.045  0.00  0.00    -0.271 OA
ATOM      3  N   UNL     1      -2.443   8.098   0.066  0.00  0.00    -0.312 N 
ATOM      4  H   UNL     1      -3.276   7.601   0.071  0.00  0.00    +0.149 HD
ENDROOT
BRANCH   1   6
ATOM      5  C   UNL     1      -0.070   5.317   0.029  0.00  0.00    +0.013 C 
ATOM      6  C   UNL     1      -1.246   5.976   0.044  0.00  0.00    +0.068 C 
BRANCH   5   9
ATOM      7  C   UNL     1      -1.222   1.748   0.017  0.00  0.00    +0.003 A 
ATOM      8  C   UNL     1      -1.249   3.127   0.030  0.00  0.00    +0.008 A 
ATOM      9  C   UNL     1      -0.050   3.846   0.022  0.00  0.00    -0.023 A 
ATOM     10  C   UNL     1       1.168   3.159   0.007  0.00  0.00    +0.040 A 
ATOM     11  C   UNL     1       1.179   1.781   0.000  0.00  0.00    +0.127 A 
ATOM     12  C   UNL     1      -0.013   1.076   0.008  0.00  0.00    +0.033 A 
BRANCH  11  13
ATOM     13  N   UNL     1       2.467   1.052  -0.015  0.00  0.00    +0.056 N 
ATOM     14  O   UNL     1       2.478  -0.166  -0.022  0.00  0.00    -0.126 OA
ATOM     15  O   UNL     1       3.517   1.671  -0.022  0.00  0.00    -0.126 OA
ENDBRANCH  11  13
ENDBRANCH   5   9
ENDBRANCH   1   6
BRANCH   3  16
ATOM     16  C   UNL     1      -2.462   9.562   0.073  0.00  0.00    +0.109 C 
BRANCH  16  17
ATOM     17  C   UNL     1      -3.912  10.053   0.089  0.00  0.00    +0.056 C 
BRANCH  17  18
ATOM     18  C   UNL     1      -3.932  11.560   0.097  0.00  0.00    -0.021 A 
ATOM     19  C   UNL     1      -4.026  12.351   1.177  0.00  0.00    +0.087 A 
ATOM     20  N   UNL     1      -4.014  13.665   0.795  0.00  0.00    -0.360 N 
ATOM     21  H   UNL     1      -4.070  14.422   1.399  0.00  0.00    +0.165 HD
ATOM     22  C   UNL     1      -3.908  13.753  -0.576  0.00  0.00    +0.047 A 
ATOM     23  C   UNL     1      -3.846  12.438  -1.072  0.00  0.00    +0.004 A 
ATOM     24  C   UNL     1      -3.741  12.216  -2.446  0.00  0.00    +0.030 A 
ATOM     25  C   UNL     1      -3.688  13.290  -3.308  0.00  0.00    +0.042 A 
ATOM     26  C   UNL     1      -3.743  14.588  -2.816  0.00  0.00    +0.022 A 
ATOM     27  C   UNL     1      -3.852  14.822  -1.463  0.00  0.00    +0.027 A 
ATOM     28 CL   UNL     1      -3.551  13.019  -5.017  0.00  0.00    -0.084 Cl
ENDBRANCH  17  18
ENDBRANCH  16  17
ENDBRANCH   3  16
TORSDOF 6
