REMARK  Name = ZINC44861120
REMARK  9 active torsions:
REMARK  status: ('A' for Active; 'I' for Inactive)
REMARK    1  A    between atoms: C_1  and  C_2
REMARK    2  A    between atoms: C_2  and  C_4
REMARK    3  A    between atoms: C_2  and  N_12
REMARK    4  A    between atoms: C_13  and  C_15
REMARK    5  A    between atoms: C_15  and  C_17
REMARK    6  A    between atoms: C_15  and  C_20
REMARK    7  A    between atoms: C_17  and  C_18
REMARK    8  A    between atoms: C_17  and  C_19
REMARK    9  A    between atoms: N_21  and  O_22
REMARK                            x       y       z     vdW  Elec       q    Type
REMARK                         _______ _______ _______ _____ _____    ______ ____
ROOT
ATOM      1  N   UNL     1       0.635  -0.368   1.394  0.00  0.00    -0.308 N 
ATOM      2  C   UNL     1       1.974  -0.469   1.280  0.00  0.00    +0.224 C 
ATOM      3  O   UNL     1       2.521  -0.140   0.249  0.00  0.00    -0.275 OA
ATOM      4  H   UNL     1       0.190  -0.699   2.191  0.00  0.00    +0.149 HD
ENDROOT
BRANCH   1   6
ATOM      5  C   UNL     1      -0.166   1.760   0.494  0.00  0.00    +0.033 C 
ATOM      6  C   UNL     1      -0.148   0.241   0.317  0.00  0.00    +0.102 C 
BRANCH   6   7
ATOM      7  C   UNL     1      -1.560  -0.286   0.362  0.00  0.00    -0.009 A 
ATOM      8  C   UNL     1      -2.083  -0.757   1.552  0.00  0.00    +0.008 A 
ATOM      9  C   UNL     1      -3.377  -1.241   1.594  0.00  0.00    +0.020 A 
ATOM     10  C   UNL     1      -4.149  -1.254   0.445  0.00  0.00    +0.042 A 
ATOM     11  C   UNL     1      -3.626  -0.782  -0.745  0.00  0.00    +0.040 A 
ATOM     12  C   UNL     1      -2.332  -0.294  -0.785  0.00  0.00    +0.047 A 
ATOM     13 CL   UNL     1      -1.676   0.303  -2.278  0.00  0.00    -0.083 Cl
ATOM     14 CL   UNL     1      -5.775  -1.862   0.499  0.00  0.00    -0.083 Cl
ENDBRANCH   6   7
ENDBRANCH   1   6
BRANCH   2  15
ATOM     15  C   UNL     1       2.792  -0.991   2.433  0.00  0.00    +0.144 C 
BRANCH  15  16
ATOM     16  C   UNL     1       3.030  -2.468   2.252  0.00  0.00    +0.144 C 
ATOM     17  N   UNL     1       4.118  -2.884   1.694  0.00  0.00    -0.076 NA
ATOM     18  N   UNL     1       2.087  -3.375   2.682  0.00  0.00    -0.343 N 
ATOM     19  H   UNL     1       1.270  -3.063   3.102  0.00  0.00    +0.144 HD
ATOM     20  H   UNL     1       2.240  -4.326   2.566  0.00  0.00    +0.144 HD
BRANCH  17  21
ATOM     21  O   UNL     1       4.341  -4.272   1.524  0.00  0.00    -0.408 OA
ATOM     22  H   UNL     1       5.182  -4.485   1.097  0.00  0.00    +0.328 HD
ENDBRANCH  17  21
ENDBRANCH  15  16
BRANCH  15  23
ATOM     23  C   UNL     1       4.135  -0.260   2.478  0.00  0.00    +0.002 C 
ATOM     24  C   UNL     1       3.893   1.246   2.603  0.00  0.00    +0.008 C 
ATOM     25  C   UNL     1       4.942  -0.749   3.683  0.00  0.00    +0.008 C 
ENDBRANCH  15  23
ENDBRANCH   2  15
TORSDOF 6
