REMARK  Name = ZINC42871752
REMARK  2 active torsions:
REMARK  status: ('A' for Active; 'I' for Inactive)
REMARK    1  A    between atoms: C_1  and  C_2
REMARK    2  A    between atoms: N_15  and  C_16
REMARK                            x       y       z     vdW  Elec       q    Type
REMARK                         _______ _______ _______ _____ _____    ______ ____
ROOT
ATOM      1  C   UNL     1       0.458   1.522  -0.195  0.00  0.00    +0.028 C 
ATOM      2  C   UNL     1       0.195   0.018  -0.096  0.00  0.00    +0.080 C 
ATOM      3  C   UNL     1       0.850  -0.703  -1.282  0.00  0.00    +0.027 C 
ATOM      4  C   UNL     1       0.515  -2.192  -1.200  0.00  0.00    +0.039 C 
ATOM      5  C   UNL     1       0.845  -2.732   0.166  0.00  0.00    -0.026 A 
ATOM      6  C   UNL     1       1.030  -4.096   0.321  0.00  0.00    +0.005 A 
ATOM      7  C   UNL     1       1.330  -4.622   1.562  0.00  0.00    +0.000 A 
ATOM      8  C   UNL     1       1.448  -3.789   2.660  0.00  0.00    +0.002 A 
ATOM      9  C   UNL     1       1.266  -2.429   2.514  0.00  0.00    +0.024 A 
ATOM     10  C   UNL     1       0.966  -1.897   1.265  0.00  0.00    +0.041 A 
ATOM     11  N   UNL     1       0.792  -0.511   1.137  0.00  0.00    -0.252 N 
ATOM     12  C   UNL     1       1.169   0.321   2.128  0.00  0.00    +0.307 C 
ATOM     13  O   UNL     1       0.750   1.462   2.156  0.00  0.00    -0.252 OA
ATOM     14  N   UNL     1       2.009  -0.112   3.090  0.00  0.00    -0.295 N 
ATOM     15  H   UNL     1       2.425  -0.984   3.013  0.00  0.00    +0.151 HD
ENDROOT
BRANCH  14  16
ATOM     16  C   UNL     1       2.293   0.736   4.250  0.00  0.00    +0.097 C 
ATOM     17  C   UNL     1       1.209   0.518   5.319  0.00  0.00    +0.046 C 
ATOM     18  C   UNL     1       1.695   1.176   6.642  0.00  0.00    +0.168 C 
ATOM     19  S   UNL     1       3.474   0.698   6.623  0.00  0.00    -0.029 S 
ATOM     20  O   UNL     1       4.260   1.826   6.982  0.00  0.00    -0.174 OA
ATOM     21  O   UNL     1       3.633  -0.521   7.337  0.00  0.00    -0.174 OA
ATOM     22  C   UNL     1       3.682   0.369   4.826  0.00  0.00    +0.188 C 
ENDBRANCH  14  16
TORSDOF 1
