REMARK  Name = ZINC21078357
REMARK  9 active torsions:
REMARK  status: ('A' for Active; 'I' for Inactive)
REMARK    1  A    between atoms: C_1  and  C_2
REMARK    2  A    between atoms: C_5  and  N_9
REMARK    3  A    between atoms: C_6  and  C_8
REMARK    4  A    between atoms: C_10  and  C_12
REMARK    5  A    between atoms: C_12  and  C_13
REMARK    6  A    between atoms: C_13  and  S_14
REMARK    7  A    between atoms: S_14  and  C_15
REMARK    8  A    between atoms: N_20  and  N_21
REMARK    9  A    between atoms: C_22  and  C_23
REMARK                            x       y       z     vdW  Elec       q    Type
REMARK                         _______ _______ _______ _____ _____    ______ ____
ROOT
ATOM      1  C   UNL     1       0.001  -0.004  -0.029  0.00  0.00    +0.210 A 
ATOM      2  N   UNL     1      -0.018   1.362  -0.031  0.00  0.00    -0.186 NA
ATOM      3  C   UNL     1       1.276   1.803  -0.037  0.00  0.00    +0.232 A 
ATOM      4  N   UNL     1       2.061   0.753  -0.040  0.00  0.00    -0.245 N 
ATOM      5  N   UNL     1       1.254  -0.392  -0.035  0.00  0.00    -0.144 NA
ATOM      6  N   UNL     1       1.686   3.128  -0.041  0.00  0.00    -0.205 N 
ATOM      7  H   UNL     1       0.939   3.935  -0.038  0.00  0.00    +0.177 HD
ATOM      8  H   UNL     1       3.154   0.883  -0.045  0.00  0.00    +0.192 HD
ENDROOT
BRANCH   6   9
ATOM      9  N   UNL     1       3.052   3.438  -0.048  0.00  0.00    -0.188 NA
ATOM     10  C   UNL     1       3.437   4.679  -0.051  0.00  0.00    +0.138 C 
BRANCH  10  11
ATOM     11  C   UNL     1       4.874   5.006  -0.059  0.00  0.00    -0.005 A 
ATOM     12  C   UNL     1       5.826   3.983  -0.056  0.00  0.00    +0.010 A 
ATOM     13  C   UNL     1       7.169   4.295  -0.068  0.00  0.00    +0.016 A 
ATOM     14  C   UNL     1       7.575   5.619  -0.072  0.00  0.00    +0.018 A 
ATOM     15  C   UNL     1       6.637   6.638  -0.069  0.00  0.00    +0.016 A 
ATOM     16  C   UNL     1       5.291   6.339  -0.062  0.00  0.00    +0.010 A 
ATOM     17 BR   UNL     1       9.419   6.038  -0.081  0.00  0.00    -0.050 Br
ENDBRANCH  10  11
ENDBRANCH   6   9
BRANCH   1  18
ATOM     18  S   UNL     1      -1.411  -1.059  -0.021  0.00  0.00    -0.084 S 
BRANCH  18  19
ATOM     19  C   UNL     1      -0.708  -2.731  -0.023  0.00  0.00    +0.086 C 
BRANCH  19  20
ATOM     20  C   UNL     1      -1.840  -3.760  -0.016  0.00  0.00    +0.107 C 
BRANCH  20  22
ATOM     21  N   UNL     1      -2.071  -6.223  -0.012  0.00  0.00    -0.285 N 
ATOM     22  C   UNL     1      -1.256  -5.149  -0.017  0.00  0.00    +0.218 C 
ATOM     23  O   UNL     1      -0.053  -5.302  -0.022  0.00  0.00    -0.275 OA
ATOM     24  H   UNL     1      -3.159  -6.087   0.084  0.00  0.00    +0.155 HD
BRANCH  21  29
ATOM     25  C   UNL     1       0.106 -11.440  -0.489  0.00  0.00    +0.044 C 
ATOM     26  C   UNL     1      -0.473 -10.054  -0.362  0.00  0.00    -0.050 A 
ATOM     27  C   UNL     1       0.222  -8.968  -0.863  0.00  0.00    +0.005 A 
ATOM     28  C   UNL     1      -0.305  -7.697  -0.748  0.00  0.00    +0.024 A 
ATOM     29  C   UNL     1      -1.534  -7.510  -0.130  0.00  0.00    +0.036 A 
ATOM     30  C   UNL     1      -2.227  -8.601   0.377  0.00  0.00    -0.029 A 
ATOM     31  C   UNL     1      -1.696  -9.871   0.254  0.00  0.00    +0.008 A 
ATOM     32  C   UNL     1      -3.558  -8.402   1.054  0.00  0.00    +0.045 C 
ENDBRANCH  21  29
ENDBRANCH  20  22
ENDBRANCH  19  20
ENDBRANCH  18  19
ENDBRANCH   1  18
TORSDOF 7
