REMARK  Name = ZINC40013957
REMARK  5 active torsions:
REMARK  status: ('A' for Active; 'I' for Inactive)
REMARK    1  A    between atoms: C_7  and  C_10
REMARK    2  A    between atoms: N_11  and  N_12
REMARK    3  A    between atoms: C_13  and  C_15
REMARK    4  A    between atoms: C_15  and  N_16
REMARK    5  A    between atoms: C_24  and  C_26
REMARK                            x       y       z     vdW  Elec       q    Type
REMARK                         _______ _______ _______ _____ _____    ______ ____
ROOT
ATOM      1  N   UNL     1       0.255  -5.437  -0.030  0.00  0.00    -0.206 N 
ATOM      2  C   UNL     1       0.733  -6.697  -0.041  0.00  0.00    +0.250 C 
ATOM      3  O   UNL     1       1.930  -6.892  -0.054  0.00  0.00    -0.272 OA
ATOM      4  H   UNL     1      -0.702  -5.281  -0.020  0.00  0.00    +0.177 HD
ENDROOT
BRANCH   1   6
ATOM      5  C   UNL     1       0.677  -3.128  -0.022  0.00  0.00    +0.136 C 
ATOM      6  N   UNL     1       1.141  -4.352  -0.033  0.00  0.00    -0.188 NA
BRANCH   5  13
ATOM      7  C   UNL     1      -0.016   1.353   0.009  0.00  0.00    +0.001 A 
ATOM      8  C   UNL     1       1.164   2.102   0.002  0.00  0.00    +0.002 A 
ATOM      9  C   UNL     1       2.384   1.514  -0.013  0.00  0.00    +0.026 A 
ATOM     10  C   UNL     1       2.485   0.097  -0.022  0.00  0.00    +0.043 A 
ATOM     11  N   UNL     1       3.531  -0.702  -0.037  0.00  0.00    -0.380 N 
ATOM     12  C   UNL     1       3.076  -2.096  -0.040  0.00  0.00    +0.150 C 
ATOM     13  C   UNL     1       1.565  -2.042  -0.024  0.00  0.00    +0.000 C 
ATOM     14  C   UNL     1       1.238  -0.688  -0.013  0.00  0.00    +0.004 A 
ATOM     15  C   UNL     1       0.002  -0.004   0.002  0.00  0.00    +0.010 A 
ATOM     16  H   UNL     1       4.458  -0.414  -0.045  0.00  0.00    +0.160 HD
ENDBRANCH   5  13
ENDBRANCH   1   6
BRANCH   2  17
ATOM     17  C   UNL     1      -0.220  -7.864  -0.038  0.00  0.00    +0.204 C 
BRANCH  17  18
ATOM     18  N   UNL     1       0.540  -9.116  -0.052  0.00  0.00    -0.294 N 
ATOM     19  C   UNL     1       0.966  -9.817  -1.190  0.00  0.00    +0.053 A 
ATOM     20  C   UNL     1       0.794  -9.535  -2.540  0.00  0.00    +0.025 A 
ATOM     21  C   UNL     1       1.311 -10.387  -3.497  0.00  0.00    +0.002 A 
ATOM     22  C   UNL     1       2.000 -11.523  -3.116  0.00  0.00    +0.002 A 
ATOM     23  C   UNL     1       2.176 -11.811  -1.777  0.00  0.00    +0.025 A 
ATOM     24  C   UNL     1       1.661 -10.960  -0.806  0.00  0.00    +0.050 A 
ATOM     25  N   UNL     1       1.709 -11.039   0.592  0.00  0.00    -0.317 N 
ATOM     26  C   UNL     1       1.004  -9.866   1.121  0.00  0.00    +0.266 C 
ATOM     27  H   UNL     1       2.134 -11.738   1.114  0.00  0.00    +0.148 HD
BRANCH  26  28
ATOM     28  C   UNL     1      -0.190 -10.309   1.970  0.00  0.00    +0.424 C 
ATOM     29  F   UNL     1      -1.027 -11.128   1.204  0.00  0.00    -0.167 F 
ATOM     30  F   UNL     1       0.268 -11.021   3.083  0.00  0.00    -0.167 F 
ATOM     31  F   UNL     1      -0.902  -9.184   2.397  0.00  0.00    -0.167 F 
ENDBRANCH  26  28
ENDBRANCH  17  18
ENDBRANCH   2  17
TORSDOF 5
