REMARK  Name = ZINC20217613
REMARK  4 active torsions:
REMARK  status: ('A' for Active; 'I' for Inactive)
REMARK    1  A    between atoms: C_1  and  N_2
REMARK    2  A    between atoms: N_6  and  S_9
REMARK    3  A    between atoms: S_9  and  C_12
REMARK    4  A    between atoms: C_15  and  C_18
REMARK                            x       y       z     vdW  Elec       q    Type
REMARK                         _______ _______ _______ _____ _____    ______ ____
ROOT
ATOM      1  S   UNL     1      -1.827   0.618  -1.919  0.00  0.00    +0.061 S 
ATOM      2  O   UNL     1      -1.847   0.986  -3.292  0.00  0.00    -0.153 OA
ATOM      3  O   UNL     1      -1.620  -0.721  -1.492  0.00  0.00    -0.153 OA
ENDROOT
BRANCH   1   9
ATOM      4  C   UNL     1      -1.335   3.538   2.572  0.00  0.00    -0.096 C 
ATOM      5  N   UNL     1      -1.077   2.978   1.239  0.00  0.00    +0.379 N 
ATOM      6  C   UNL     1      -0.115   3.773   0.522  0.00  0.00    -0.078 C 
ATOM      7  C   UNL     1      -0.666   3.898  -0.894  0.00  0.00    -0.002 C 
ATOM      8  C   UNL     1      -0.220   2.839  -1.806  0.00  0.00    +0.107 C 
ATOM      9  N   UNL     1      -0.646   1.531  -1.202  0.00  0.00    -0.178 NA
ATOM     10  C   UNL     1      -0.013   1.086   0.008  0.00  0.00    +0.091 C 
ATOM     11  C   UNL     1      -0.669   1.551   1.327  0.00  0.00    -0.062 C 
ATOM     12  H   UNL     1      -2.005   3.038   0.650  0.00  0.00    -0.082 HD
ENDBRANCH   1   9
BRANCH   1  13
ATOM     13  C   UNL     1      -3.369   1.132  -1.238  0.00  0.00    +0.106 A 
ATOM     14  C   UNL     1      -3.865   0.506  -0.107  0.00  0.00    +0.029 A 
ATOM     15  C   UNL     1      -5.068   0.906   0.434  0.00  0.00    +0.017 A 
ATOM     16  C   UNL     1      -5.792   1.938  -0.167  0.00  0.00    +0.063 A 
ATOM     17  C   UNL     1      -5.288   2.562  -1.310  0.00  0.00    +0.017 A 
ATOM     18  C   UNL     1      -4.080   2.155  -1.838  0.00  0.00    +0.029 A 
BRANCH  16  19
ATOM     19  C   UNL     1      -7.084   2.369   0.405  0.00  0.00    +0.387 C 
ATOM     20  O   UNL     1      -7.711   3.267  -0.120  0.00  0.00    -0.241 OA
ATOM     21  O   UNL     1      -7.567   1.766   1.508  0.00  0.00    -0.241 OA
ENDBRANCH  16  19
ENDBRANCH   1  13
TORSDOF 3
