REMARK  Name = ZINC12412342
REMARK  5 active torsions:
REMARK  status: ('A' for Active; 'I' for Inactive)
REMARK    1  A    between atoms: C_1  and  C_2
REMARK    2  A    between atoms: C_2  and  O_3
REMARK    3  A    between atoms: O_3  and  C_4
REMARK    4  A    between atoms: C_13  and  C_14
REMARK    5  A    between atoms: N_15  and  N_16
REMARK                            x       y       z     vdW  Elec       q    Type
REMARK                         _______ _______ _______ _____ _____    ______ ____
ROOT
ATOM      1  C   UNL     1      -1.331   5.995   0.115  0.00  0.00    +0.142 C 
ATOM      2  N   UNL     1      -1.618   6.946  -0.724  0.00  0.00    -0.187 NA
ENDROOT
BRANCH   2   3
ATOM      3  N   UNL     1      -0.681   7.335  -1.691  0.00  0.00    -0.207 N 
ATOM      4  C   UNL     1      -0.940   8.415  -2.507  0.00  0.00    +0.214 A 
ATOM      5  N   UNL     1      -0.149   8.824  -3.543  0.00  0.00    -0.325 N 
ATOM      6  H   UNL     1       0.706   8.399  -3.840  0.00  0.00    +0.169 HD
ATOM      7  C   UNL     1      -0.753   9.936  -4.106  0.00  0.00    +0.067 A 
ATOM      8  C   UNL     1      -0.431  10.771  -5.165  0.00  0.00    +0.028 A 
ATOM      9  C   UNL     1      -1.263  11.824  -5.486  0.00  0.00    +0.002 A 
ATOM     10  C   UNL     1      -2.420  12.053  -4.757  0.00  0.00    +0.002 A 
ATOM     11  C   UNL     1      -2.756  11.234  -3.702  0.00  0.00    +0.030 A 
ATOM     12  C   UNL     1      -1.923  10.163  -3.364  0.00  0.00    +0.091 A 
ATOM     13  N   UNL     1      -1.984   9.201  -2.407  0.00  0.00    -0.213 NA
ATOM     14  H   UNL     1       0.149   6.843  -1.786  0.00  0.00    +0.177 HD
ENDBRANCH   2   3
BRANCH   1  24
ATOM     15  C   UNL     1       1.135   6.247   0.345  0.00  0.00    +0.130 A 
ATOM     16  C   UNL     1       2.418   5.702   0.373  0.00  0.00    +0.047 A 
ATOM     17  C   UNL     1       2.634   4.369   0.210  0.00  0.00    +0.012 A 
ATOM     18  C   UNL     1       1.559   3.486   0.005  0.00  0.00    -0.017 A 
ATOM     19  C   UNL     1       1.770   2.107  -0.165  0.00  0.00    +0.008 A 
ATOM     20  C   UNL     1       0.706   1.282  -0.362  0.00  0.00    +0.001 A 
ATOM     21  C   UNL     1      -0.593   1.784  -0.403  0.00  0.00    +0.001 A 
ATOM     22  C   UNL     1      -0.835   3.115  -0.235  0.00  0.00    +0.009 A 
ATOM     23  C   UNL     1       0.237   3.992  -0.032  0.00  0.00    -0.006 A 
ATOM     24  C   UNL     1       0.024   5.428   0.146  0.00  0.00    +0.044 A 
BRANCH  15  25
ATOM     25  O   UNL     1       0.967   7.583   0.513  0.00  0.00    -0.492 OA
BRANCH  25  27
ATOM     26  C   UNL     1       1.765   9.832   0.900  0.00  0.00    +0.048 C 
ATOM     27  C   UNL     1       2.149   8.380   0.605  0.00  0.00    +0.226 C 
ENDBRANCH  25  27
ENDBRANCH  15  25
ENDBRANCH   1  24
TORSDOF 4
