REMARK  Name = ZINC05055512
REMARK  6 active torsions:
REMARK  status: ('A' for Active; 'I' for Inactive)
REMARK    1  A    between atoms: C_1  and  C_2
REMARK    2  A    between atoms: C_9  and  N_15
REMARK    3  A    between atoms: C_10  and  C_11
REMARK    4  A    between atoms: N_13  and  C_14
REMARK    5  A    between atoms: C_16  and  C_18
REMARK    6  A    between atoms: C_21  and  N_24
REMARK                            x       y       z     vdW  Elec       q    Type
REMARK                         _______ _______ _______ _____ _____    ______ ____
ROOT
ATOM      1  C   UNL     1      -0.019   1.526   0.010  0.00  0.00    +0.008 C 
ATOM      2  C   UNL     1       0.002  -0.004   0.002  0.00  0.00    -0.009 C 
ATOM      3  C   UNL     1       0.742  -0.514   1.242  0.00  0.00    +0.008 C 
ATOM      4  C   UNL     1       0.557  -2.027   1.373  0.00  0.00    +0.037 C 
ATOM      5  C   UNL     1       0.941  -2.684   0.053  0.00  0.00    -0.023 A 
ATOM      6  C   UNL     1       1.008  -1.966  -1.089  0.00  0.00    -0.004 A 
ATOM      7  S   UNL     1       1.484  -3.133  -2.331  0.00  0.00    -0.077 S 
ATOM      8  C   UNL     1       1.592  -4.557  -1.350  0.00  0.00    +0.085 A 
ATOM      9  C   UNL     1       1.258  -4.096  -0.085  0.00  0.00    +0.069 A 
ATOM     10  C   UNL     1       0.736  -0.502  -1.252  0.00  0.00    +0.046 C 
ENDROOT
BRANCH   9  11
ATOM     11  C   UNL     1       1.226  -4.998   1.070  0.00  0.00    +0.246 C 
ATOM     12  O   UNL     1       0.198  -5.582   1.358  0.00  0.00    -0.270 OA
ATOM     13  N   UNL     1       2.336  -5.182   1.813  0.00  0.00    -0.314 N 
ATOM     14  C   UNL     1       2.305  -6.084   2.967  0.00  0.00    +0.128 C 
ATOM     15  H   UNL     1       3.156  -4.716   1.583  0.00  0.00    +0.149 HD
ENDBRANCH   9  11
BRANCH   8  16
ATOM     16  N   UNL     1       1.930  -5.845  -1.736  0.00  0.00    -0.275 N 
ATOM     17  C   UNL     1       2.227  -6.106  -3.024  0.00  0.00    +0.249 C 
ATOM     18  O   UNL     1       2.199  -5.213  -3.848  0.00  0.00    -0.270 OA
ATOM     19  H   UNL     1       1.952  -6.558  -1.079  0.00  0.00    +0.156 HD
BRANCH  17  20
ATOM     20  C   UNL     1       2.588  -7.479  -3.435  0.00  0.00    +0.037 A 
ATOM     21  C   UNL     1       2.627  -8.506  -2.491  0.00  0.00    +0.015 A 
ATOM     22  C   UNL     1       2.958  -9.787  -2.882  0.00  0.00    +0.033 A 
ATOM     23  C   UNL     1       3.263 -10.052  -4.205  0.00  0.00    +0.126 A 
ATOM     24  C   UNL     1       3.232  -9.037  -5.146  0.00  0.00    +0.033 A 
ATOM     25  C   UNL     1       2.897  -7.753  -4.769  0.00  0.00    +0.015 A 
BRANCH  23  26
ATOM     26  N   UNL     1       3.623 -11.427  -4.617  0.00  0.00    +0.056 N 
ATOM     27  O   UNL     1       3.892 -11.664  -5.782  0.00  0.00    -0.126 OA
ATOM     28  O   UNL     1       3.651 -12.323  -3.792  0.00  0.00    -0.126 OA
ENDBRANCH  23  26
ENDBRANCH  17  20
ENDBRANCH   8  16
TORSDOF 4
