REMARK  Name = ZINC40064120
REMARK  8 active torsions:
REMARK  status: ('A' for Active; 'I' for Inactive)
REMARK    1  A    between atoms: C_1  and  C_2
REMARK    2  A    between atoms: C_12  and  C_13
REMARK    3  A    between atoms: C_17  and  C_19
REMARK    4  A    between atoms: C_22  and  O_27
REMARK    5  A    between atoms: C_23  and  O_25
REMARK    6  A    between atoms: O_25  and  C_26
REMARK    7  A    between atoms: C_33  and  O_37
REMARK    8  A    between atoms: O_37  and  C_38
REMARK                            x       y       z     vdW  Elec       q    Type
REMARK                         _______ _______ _______ _____ _____    ______ ____
ROOT
ATOM      1  C   UNL     1      -0.018   1.503   0.010  0.00  0.00    +0.044 C 
ATOM      2  C   UNL     1       0.002  -0.004   0.002  0.00  0.00    -0.044 A 
ATOM      3  C   UNL     1       0.006  -0.683  -1.209  0.00  0.00    +0.004 A 
ATOM      4  C   UNL     1       0.021  -2.050  -1.231  0.00  0.00    +0.015 A 
ATOM      5  C   UNL     1       0.034  -2.761  -0.032  0.00  0.00    +0.065 A 
ATOM      6  C   UNL     1       0.038  -4.246  -0.038  0.00  0.00    +0.199 A 
ATOM      7  O   UNL     1       0.202  -4.908  -1.048  0.00  0.00    -0.287 OA
ATOM      8  C   UNL     1      -0.174  -4.839   1.286  0.00  0.00    +0.072 A 
ATOM      9  C   UNL     1      -0.156  -4.068   2.414  0.00  0.00    +0.199 A 
ATOM     10  O   UNL     1       0.061  -2.739   2.383  0.00  0.00    -0.449 OA
ATOM     11  C   UNL     1       0.037  -2.085   1.199  0.00  0.00    +0.143 A 
ATOM     12  C   UNL     1       0.023  -0.690   1.195  0.00  0.00    -0.005 A 
ATOM     13  C   UNL     1       0.024   0.066   2.499  0.00  0.00    +0.048 C 
ATOM     14  C   UNL     1      -0.405  -4.941   3.574  0.00  0.00    +0.289 C 
ATOM     15  O   UNL     1      -0.457  -4.566   4.729  0.00  0.00    -0.266 OA
ATOM     16  N   UNL     1      -0.567  -6.217   3.168  0.00  0.00    -0.232 N 
ATOM     17  C   UNL     1      -0.432  -6.250   1.702  0.00  0.00    +0.152 C 
ATOM     18  C   UNL     1      -0.816  -7.305   3.986  0.00  0.00    +0.169 A 
ATOM     19  N   UNL     1      -0.976  -8.565   3.655  0.00  0.00    -0.224 NA
ATOM     20  C   UNL     1      -1.216  -9.532   4.568  0.00  0.00    +0.081 A 
ATOM     21  C   UNL     1      -1.407 -10.915   4.345  0.00  0.00    +0.032 A 
ATOM     22  C   UNL     1      -1.642 -11.764   5.381  0.00  0.00    +0.048 A 
ATOM     23  C   UNL     1      -1.704 -11.311   6.695  0.00  0.00    +0.121 A 
ATOM     24  C   UNL     1      -1.522  -9.960   6.955  0.00  0.00    +0.063 A 
ATOM     25  C   UNL     1      -1.284  -9.100   5.912  0.00  0.00    +0.044 A 
ATOM     26  S   UNL     1      -0.993  -7.354   5.764  0.00  0.00    -0.052 S 
ENDROOT
BRANCH  17  27
ATOM     27  C   UNL     1       0.725  -7.130   1.306  0.00  0.00    -0.018 A 
ATOM     28  C   UNL     1       1.867  -7.160   2.085  0.00  0.00    +0.009 A 
ATOM     29  C   UNL     1       2.931  -7.965   1.726  0.00  0.00    +0.049 A 
ATOM     30  C   UNL     1       2.855  -8.745   0.583  0.00  0.00    +0.158 A 
ATOM     31  C   UNL     1       1.706  -8.715  -0.201  0.00  0.00    +0.162 A 
ATOM     32  C   UNL     1       0.640  -7.909   0.167  0.00  0.00    +0.055 A 
BRANCH  31  33
ATOM     33  O   UNL     1       1.626  -9.478  -1.324  0.00  0.00    -0.491 OA
ATOM     34  C   UNL     1       0.416  -9.396  -2.080  0.00  0.00    +0.277 C 
ENDBRANCH  31  33
BRANCH  30  35
ATOM     35  O   UNL     1       3.901  -9.537   0.227  0.00  0.00    -0.503 OA
ATOM     36  H   UNL     1       3.864 -10.429   0.599  0.00  0.00    +0.292 HD
ENDBRANCH  30  35
ENDBRANCH  17  27
BRANCH  23  37
ATOM     37  O   UNL     1      -1.941 -12.181   7.713  0.00  0.00    -0.495 OA
ATOM     38  C   UNL     1      -2.118 -13.556   7.363  0.00  0.00    +0.277 C 
ENDBRANCH  23  37
TORSDOF 4
