REMARK  Name = ZINC39362761
REMARK  9 active torsions:
REMARK  status: ('A' for Active; 'I' for Inactive)
REMARK    1  A    between atoms: C_1  and  C_2
REMARK    2  A    between atoms: C_4  and  C_35
REMARK    3  A    between atoms: C_6  and  N_8
REMARK    4  A    between atoms: C_9  and  C_11
REMARK    5  A    between atoms: C_11  and  S_12
REMARK    6  A    between atoms: S_12  and  C_13
REMARK    7  A    between atoms: C_16  and  C_26
REMARK    8  A    between atoms: N_18  and  C_19
REMARK    9  A    between atoms: C_26  and  C_27
REMARK                            x       y       z     vdW  Elec       q    Type
REMARK                         _______ _______ _______ _____ _____    ______ ____
ROOT
ATOM      1  C   UNL     1       0.305  -2.781   7.702  0.00  0.00    +0.180 C 
ATOM      2  N   UNL     1       0.393  -4.066   7.642  0.00  0.00    -0.162 NA
ATOM      3  N   UNL     1       0.807  -4.610   8.864  0.00  0.00    -0.246 N 
ATOM      4  C   UNL     1       0.989  -3.470   9.780  0.00  0.00    +0.187 C 
ATOM      5  N   UNL     1       0.649  -2.297   8.957  0.00  0.00    -0.258 N 
ATOM      6  H   UNL     1       0.946  -5.548   9.067  0.00  0.00    +0.170 HD
ENDROOT
BRANCH   5   7
ATOM      7  C   UNL     1       0.668  -0.959   9.361  0.00  0.00    +0.038 A 
ATOM      8  C   UNL     1      -0.237  -0.507  10.313  0.00  0.00    +0.026 A 
ATOM      9  C   UNL     1      -0.216   0.815  10.711  0.00  0.00    +0.040 A 
ATOM     10  C   UNL     1       0.705   1.691  10.161  0.00  0.00    +0.124 A 
ATOM     11  C   UNL     1       1.607   1.243   9.211  0.00  0.00    +0.040 A 
ATOM     12  C   UNL     1       1.594  -0.080   8.815  0.00  0.00    +0.026 A 
ATOM     13  F   UNL     1       0.722   2.984  10.551  0.00  0.00    -0.205 F 
ENDBRANCH   5   7
BRANCH   1  14
ATOM     14  S   UNL     1      -0.188  -1.761   6.353  0.00  0.00    -0.079 S 
BRANCH  14  15
ATOM     15  C   UNL     1      -0.505  -2.936   5.008  0.00  0.00    +0.173 C 
BRANCH  15  17
ATOM     16  N   UNL     1      -1.232  -2.856   2.645  0.00  0.00    -0.285 N 
ATOM     17  C   UNL     1      -0.940  -2.184   3.776  0.00  0.00    +0.227 C 
ATOM     18  O   UNL     1      -1.027  -0.975   3.803  0.00  0.00    -0.275 OA
ATOM     19  H   UNL     1      -1.236  -3.826   2.644  0.00  0.00    +0.155 HD
BRANCH  16  25
ATOM     20  C   UNL     1      -3.721  -2.543  -1.584  0.00  0.00    +0.044 C 
ATOM     21  C   UNL     1      -2.733  -1.979  -0.596  0.00  0.00    -0.048 A 
ATOM     22  C   UNL     1      -2.119  -0.766  -0.849  0.00  0.00    +0.006 A 
ATOM     23  C   UNL     1      -1.212  -0.245   0.056  0.00  0.00    -0.048 A 
ATOM     24  C   UNL     1      -0.916  -0.935   1.215  0.00  0.00    +0.026 A 
ATOM     25  C   UNL     1      -1.531  -2.154   1.472  0.00  0.00    +0.034 A 
ATOM     26  C   UNL     1      -2.445  -2.672   0.564  0.00  0.00    +0.026 A 
ATOM     27  C   UNL     1      -0.545   1.077  -0.224  0.00  0.00    +0.044 C 
ENDBRANCH  16  25
ENDBRANCH  15  17
ENDBRANCH  14  15
ENDBRANCH   1  14
BRANCH   4  28
ATOM     28  C   UNL     1       2.441  -3.389  10.254  0.00  0.00    +0.097 C 
BRANCH  28  29
ATOM     29  C   UNL     1       2.795  -4.645  11.008  0.00  0.00    +0.029 A 
ATOM     30  N   UNL     1       2.500  -4.753  12.339  0.00  0.00    -0.311 N 
ATOM     31  C   UNL     1       2.811  -5.871  13.021  0.00  0.00    +0.327 A 
ATOM     32  O   UNL     1       2.540  -5.946  14.204  0.00  0.00    -0.247 OA
ATOM     33  N   UNL     1       3.418  -6.906  12.413  0.00  0.00    -0.275 N 
ATOM     34  C   UNL     1       3.726  -6.839  11.102  0.00  0.00    +0.254 A 
ATOM     35  O   UNL     1       4.275  -7.775  10.550  0.00  0.00    -0.268 OA
ATOM     36  C   UNL     1       3.400  -5.671  10.371  0.00  0.00    +0.091 A 
ATOM     37  H   UNL     1       3.635  -7.705  12.919  0.00  0.00    +0.173 HD
ATOM     38  H   UNL     1       2.062  -4.018  12.796  0.00  0.00    +0.170 HD
ENDBRANCH  28  29
ENDBRANCH   4  28
TORSDOF 7
