REMARK  Name = ZINC19855880
REMARK  8 active torsions:
REMARK  status: ('A' for Active; 'I' for Inactive)
REMARK    1  A    between atoms: C_1  and  C_2
REMARK    2  A    between atoms: C_2  and  C_3
REMARK    3  A    between atoms: C_2  and  N_4
REMARK    4  A    between atoms: C_11  and  C_23
REMARK    5  A    between atoms: C_13  and  C_19
REMARK    6  A    between atoms: C_13  and  C_21
REMARK    7  A    between atoms: C_14  and  N_18
REMARK    8  A    between atoms: C_15  and  C_16
REMARK                            x       y       z     vdW  Elec       q    Type
REMARK                         _______ _______ _______ _____ _____    ______ ____
ROOT
ATOM      1  N   UNL     1       0.983   3.067   1.866  0.00  0.00    -0.296 NA
ATOM      2  C   UNL     1       1.432   1.831   1.200  0.00  0.00    +0.112 C 
ATOM      3  C   UNL     1       0.204   1.073   0.764  0.00  0.00    -0.006 C 
ATOM      4  C   UNL     1      -0.884   1.726   0.401  0.00  0.00    -0.026 C 
ATOM      5  C   UNL     1      -0.963   3.225   0.354  0.00  0.00    +0.044 C 
ATOM      6  C   UNL     1       0.258   3.917   0.918  0.00  0.00    +0.094 C 
ATOM      7  C   UNL     1      -2.245   3.660   1.066  0.00  0.00    +0.067 C 
ATOM      8  C   UNL     1      -3.447   3.102   0.291  0.00  0.00    +0.188 C 
ATOM      9  C   UNL     1      -3.309   1.631   0.039  0.00  0.00    +0.054 C 
ATOM     10  C   UNL     1      -2.122   0.973   0.074  0.00  0.00    +0.074 C 
ENDROOT
BRANCH   7  11
ATOM     11  C   UNL     1      -2.320   5.165   1.094  0.00  0.00    -0.041 A 
ATOM     12  C   UNL     1      -2.697   5.817   2.254  0.00  0.00    +0.007 A 
ATOM     13  C   UNL     1      -2.761   7.197   2.282  0.00  0.00    +0.038 A 
ATOM     14  C   UNL     1      -2.458   7.927   1.145  0.00  0.00    +0.123 A 
ATOM     15  C   UNL     1      -2.087   7.273  -0.018  0.00  0.00    +0.038 A 
ATOM     16  C   UNL     1      -2.018   5.893  -0.042  0.00  0.00    +0.007 A 
ATOM     17  F   UNL     1      -2.527   9.276   1.170  0.00  0.00    -0.205 F 
ENDBRANCH   7  11
BRANCH   1  19
ATOM     18  C   UNL     1       2.787   2.904   3.514  0.00  0.00    +0.024 C 
ATOM     19  C   UNL     1       2.116   3.788   2.460  0.00  0.00    +0.051 C 
ATOM     20  C   UNL     1       3.129   4.135   1.366  0.00  0.00    +0.024 C 
ENDBRANCH   1  19
BRANCH   9  21
ATOM     21  N   UNL     1      -4.438   0.914  -0.241  0.00  0.00    -0.358 N 
ATOM     22  H   UNL     1      -4.369  -0.168  -0.431  0.00  0.00    +0.142 HD
ATOM     23  H   UNL     1      -5.415   1.418  -0.277  0.00  0.00    +0.142 HD
ENDBRANCH   9  21
BRANCH  10  24
ATOM     24  C   UNL     1      -2.063  -0.431  -0.202  0.00  0.00    +0.101 C 
ATOM     25  N   UNL     1      -2.017  -1.544  -0.421  0.00  0.00    -0.191 NA
ENDBRANCH  10  24
BRANCH   8  26
ATOM     26  C   UNL     1      -3.562   3.802  -0.998  0.00  0.00    +0.091 C 
ATOM     27  N   UNL     1      -3.651   4.342  -1.994  0.00  0.00    -0.194 NA
ENDBRANCH   8  26
BRANCH   8  28
ATOM     28  C   UNL     1      -4.668   3.341   1.078  0.00  0.00    +0.091 C 
ATOM     29  N   UNL     1      -5.610   3.526   1.685  0.00  0.00    -0.194 NA
ENDBRANCH   8  28
TORSDOF 6
