REMARK  Name = ZINC36636472
REMARK  7 active torsions:
REMARK  status: ('A' for Active; 'I' for Inactive)
REMARK    1  A    between atoms: C_1  and  C_2
REMARK    2  A    between atoms: C_5  and  N_8
REMARK    3  A    between atoms: C_9  and  C_11
REMARK    4  A    between atoms: C_11  and  C_13
REMARK    5  A    between atoms: C_11  and  S_19
REMARK    6  A    between atoms: S_19  and  C_20
REMARK    7  A    between atoms: C_33  and  C_37
REMARK                            x       y       z     vdW  Elec       q    Type
REMARK                         _______ _______ _______ _____ _____    ______ ____
ROOT
ATOM      1  S   UNL     1       0.891  -6.938   2.745  0.00  0.00    -0.072 S 
ENDROOT
BRANCH   1   2
ATOM      2  C   UNL     1       1.192  -8.655   2.486  0.00  0.00    +0.170 C 
ATOM      3  N   UNL     1       0.841  -9.182   1.333  0.00  0.00    -0.225 NA
ATOM      4  C   UNL     1       1.041 -10.485   1.068  0.00  0.00    +0.079 A 
ATOM      5  C   UNL     1       0.671 -11.056  -0.155  0.00  0.00    +0.028 A 
ATOM      6  C   UNL     1       0.897 -12.385  -0.375  0.00  0.00    +0.002 A 
ATOM      7  C   UNL     1       1.489 -13.181   0.598  0.00  0.00    +0.001 A 
ATOM      8  C   UNL     1       1.862 -12.653   1.803  0.00  0.00    +0.015 A 
ATOM      9  C   UNL     1       1.644 -11.299   2.055  0.00  0.00    +0.063 A 
ATOM     10  C   UNL     1       2.022 -10.672   3.329  0.00  0.00    +0.260 C 
ATOM     11  O   UNL     1       2.546 -11.318   4.222  0.00  0.00    -0.269 OA
ATOM     12  N   UNL     1       1.773  -9.354   3.471  0.00  0.00    -0.200 N 
ATOM     13  C   UNL     1       2.110  -8.728   4.630  0.00  0.00    +0.112 A 
ATOM     14  C   UNL     1       3.228  -9.149   5.351  0.00  0.00    +0.046 A 
ATOM     15  C   UNL     1       3.554  -8.501   6.526  0.00  0.00    -0.046 A 
ATOM     16  C   UNL     1       2.756  -7.440   6.962  0.00  0.00    +0.021 A 
ATOM     17  C   UNL     1       1.676  -7.059   6.232  0.00  0.00    +0.084 A 
ATOM     18  N   UNL     1       1.362  -7.688   5.083  0.00  0.00    -0.349 N 
ATOM     19  C   UNL     1       4.754  -8.933   7.328  0.00  0.00    +0.044 C 
ATOM     20  H   UNL     1       0.589  -7.397   4.575  0.00  0.00    +0.167 HD
ENDBRANCH   1   2
BRANCH   1  21
ATOM     21  C   UNL     1       0.112  -6.391   1.201  0.00  0.00    +0.170 C 
BRANCH  21  22
ATOM     22  C   UNL     1      -1.222  -7.075   1.042  0.00  0.00    -0.025 A 
ATOM     23  C   UNL     1      -2.210  -6.893   1.991  0.00  0.00    +0.005 A 
ATOM     24  C   UNL     1      -3.433  -7.520   1.845  0.00  0.00    +0.000 A 
ATOM     25  C   UNL     1      -3.669  -8.328   0.749  0.00  0.00    +0.000 A 
ATOM     26  C   UNL     1      -2.681  -8.509  -0.201  0.00  0.00    +0.000 A 
ATOM     27  C   UNL     1      -1.459  -7.879  -0.057  0.00  0.00    +0.005 A 
ENDBRANCH  21  22
BRANCH  21  29
ATOM     28  N   UNL     1      -0.268  -4.211   0.096  0.00  0.00    -0.284 N 
ATOM     29  C   UNL     1      -0.091  -4.898   1.242  0.00  0.00    +0.235 C 
ATOM     30  O   UNL     1      -0.094  -4.316   2.305  0.00  0.00    -0.274 OA
ATOM     31  H   UNL     1      -0.328  -4.683  -0.749  0.00  0.00    +0.155 HD
BRANCH  28  36
ATOM     32  C   UNL     1      -0.666   1.447   0.215  0.00  0.00    +0.044 C 
ATOM     33  C   UNL     1      -0.560  -0.056   0.184  0.00  0.00    -0.050 A 
ATOM     34  C   UNL     1       0.181  -0.716   1.147  0.00  0.00    +0.005 A 
ATOM     35  C   UNL     1       0.280  -2.093   1.120  0.00  0.00    +0.023 A 
ATOM     36  C   UNL     1      -0.367  -2.815   0.126  0.00  0.00    +0.033 A 
ATOM     37  C   UNL     1      -1.111  -2.150  -0.839  0.00  0.00    +0.023 A 
ATOM     38  C   UNL     1      -1.210  -0.772  -0.805  0.00  0.00    +0.005 A 
ENDBRANCH  28  36
ENDBRANCH  21  29
ENDBRANCH   1  21
TORSDOF 5
