REMARK  Name = ZINC12063443
REMARK  13 active torsions:
REMARK  status: ('A' for Active; 'I' for Inactive)
REMARK    1  A    between atoms: C_1  and  C_2
REMARK    2  A    between atoms: C_2  and  N_3
REMARK    3  A    between atoms: C_5  and  O_35
REMARK    4  A    between atoms: C_8  and  O_33
REMARK    5  A    between atoms: N_12  and  C_13
REMARK    6  A    between atoms: C_13  and  C_15
REMARK    7  A    between atoms: C_18  and  S_21
REMARK    8  A    between atoms: S_21  and  N_24
REMARK    9  A    between atoms: N_24  and  C_25
REMARK   10  A    between atoms: N_24  and  C_26
REMARK   11  A    between atoms: C_26  and  C_27
REMARK   12  A    between atoms: O_33  and  C_34
REMARK   13  A    between atoms: O_35  and  C_36
REMARK                            x       y       z     vdW  Elec       q    Type
REMARK                         _______ _______ _______ _____ _____    ______ ____
ROOT
ATOM      1  C   UNL     1      -2.578   0.870   0.183  0.00  0.00    +0.269 C 
ATOM      2  O   UNL     1      -2.610  -0.347   0.236  0.00  0.00    -0.268 OA
ENDROOT
BRANCH   1  12
ATOM      3  N   UNL     1      -6.135   1.468   0.113  0.00  0.00    -0.318 N 
ATOM      4  C   UNL     1      -7.244   0.640   0.136  0.00  0.00    +0.103 A 
ATOM      5  C   UNL     1      -8.605   1.002   0.103  0.00  0.00    +0.145 A 
ATOM      6  C   UNL     1      -9.591   0.040   0.132  0.00  0.00    +0.051 A 
ATOM      7  C   UNL     1      -9.276  -1.308   0.196  0.00  0.00    +0.050 A 
ATOM      8  C   UNL     1      -7.944  -1.692   0.229  0.00  0.00    +0.136 A 
ATOM      9  C   UNL     1      -6.957  -0.729   0.199  0.00  0.00    +0.084 A 
ATOM     10  S   UNL     1      -5.182  -0.773   0.215  0.00  0.00    -0.048 S 
ATOM     11  C   UNL     1      -4.885   0.934   0.152  0.00  0.00    +0.167 A 
ATOM     12  N   UNL     1      -3.717   1.568   0.138  0.00  0.00    -0.152 NA
BRANCH   3  14
ATOM     13  C   UNL     1      -5.216   3.604   0.873  0.00  0.00    +0.027 C 
ATOM     14  C   UNL     1      -6.308   2.922   0.047  0.00  0.00    +0.121 C 
ENDBRANCH   3  14
BRANCH   8  15
ATOM     15  O   UNL     1      -7.612  -3.010   0.292  0.00  0.00    -0.494 OA
ATOM     16  C   UNL     1      -8.689  -3.949   0.321  0.00  0.00    +0.277 C 
ENDBRANCH   8  15
BRANCH   5  17
ATOM     17  O   UNL     1      -8.950   2.316   0.040  0.00  0.00    -0.493 OA
ATOM     18  C   UNL     1     -10.346   2.620   0.009  0.00  0.00    +0.277 C 
ENDBRANCH   5  17
ENDBRANCH   1  12
BRANCH   1  19
ATOM     19  C   UNL     1      -1.276   1.576   0.168  0.00  0.00    +0.039 A 
ATOM     20  C   UNL     1      -0.085   0.851   0.214  0.00  0.00    +0.015 A 
ATOM     21  C   UNL     1       1.125   1.514   0.194  0.00  0.00    +0.029 A 
ATOM     22  C   UNL     1       1.158   2.896   0.133  0.00  0.00    +0.106 A 
ATOM     23  C   UNL     1      -0.019   3.621   0.092  0.00  0.00    +0.029 A 
ATOM     24  C   UNL     1      -1.235   2.970   0.112  0.00  0.00    +0.015 A 
BRANCH  22  25
ATOM     25  S   UNL     1       2.707   3.736   0.107  0.00  0.00    +0.061 S 
ATOM     26  O   UNL     1       2.467   5.047   0.599  0.00  0.00    -0.153 OA
ATOM     27  O   UNL     1       3.654   2.860   0.704  0.00  0.00    -0.153 OA
BRANCH  25  28
ATOM     28  N   UNL     1       3.149   3.899  -1.480  0.00  0.00    -0.177 NA
ATOM     29  C   UNL     1       2.740   5.086  -2.236  0.00  0.00    +0.131 C 
BRANCH  28  30
ATOM     30  C   UNL     1       3.949   2.858  -2.129  0.00  0.00    +0.140 C 
BRANCH  30  31
ATOM     31  C   UNL     1       3.023   1.888  -2.866  0.00  0.00    +0.134 C 
ATOM     32  C   UNL     1       3.856   0.788  -3.552  0.00  0.00    +0.035 C 
ATOM     33  C   UNL     1       3.320  -0.530  -2.942  0.00  0.00    +0.031 C 
ATOM     34  C   UNL     1       1.926  -0.101  -2.416  0.00  0.00    +0.160 C 
ATOM     35  O   UNL     1       2.148   1.240  -1.928  0.00  0.00    -0.375 OA
ENDBRANCH  30  31
ENDBRANCH  28  30
ENDBRANCH  25  28
ENDBRANCH  22  25
ENDBRANCH   1  19
TORSDOF 9
