REMARK  Name = ZINC36309008
REMARK  13 active torsions:
REMARK  status: ('A' for Active; 'I' for Inactive)
REMARK    1  A    between atoms: C_1  and  C_2
REMARK    2  A    between atoms: C_6  and  O_8
REMARK    3  A    between atoms: O_8  and  C_9
REMARK    4  A    between atoms: C_9  and  C_10
REMARK    5  A    between atoms: C_20  and  C_22
REMARK    6  A    between atoms: C_22  and  N_23
REMARK    7  A    between atoms: N_23  and  C_24
REMARK    8  A    between atoms: N_23  and  C_27
REMARK    9  A    between atoms: C_24  and  C_25
REMARK   10  A    between atoms: C_27  and  C_28
REMARK   11  A    between atoms: C_28  and  C_30
REMARK   12  A    between atoms: C_28  and  O_37
REMARK   13  A    between atoms: C_30  and  C_31
REMARK                            x       y       z     vdW  Elec       q    Type
REMARK                         _______ _______ _______ _____ _____    ______ ____
ROOT
ATOM      1  C   UNL     1      -0.701  -4.165   3.086  0.00  0.00    +0.144 C 
ATOM      2  C   UNL     1       0.462  -3.388   3.700  0.00  0.00    -0.014 A 
ATOM      3  C   UNL     1       1.779  -3.509   3.259  0.00  0.00    +0.013 A 
ATOM      4  C   UNL     1       2.759  -2.786   3.848  0.00  0.00    +0.046 A 
ATOM      5  S   UNL     1       1.849  -1.876   5.088  0.00  0.00    -0.101 S 
ATOM      6  C   UNL     1       0.239  -2.528   4.730  0.00  0.00    -0.004 A 
ATOM      7  C   UNL     1      -1.059  -2.214   5.401  0.00  0.00    +0.061 C 
ATOM      8  C   UNL     1      -2.207  -2.701   4.503  0.00  0.00    +0.113 C 
ATOM      9  N   UNL     1      -1.856  -4.033   3.984  0.00  0.00    -0.292 N 
ATOM     10  C   UNL     1      -2.581  -5.115   4.329  0.00  0.00    +0.200 C 
ATOM     11  O   UNL     1      -2.283  -6.208   3.896  0.00  0.00    -0.278 OA
ENDROOT
BRANCH   1  12
ATOM     12  C   UNL     1      -1.044  -3.584   1.712  0.00  0.00    +0.256 C 
BRANCH  12  13
ATOM     13  O   UNL     1      -1.284  -2.181   1.835  0.00  0.00    -0.490 OA
BRANCH  13  19
ATOM     14  C   UNL     1      -2.442   2.020  -0.362  0.00  0.00    +0.044 C 
ATOM     15  C   UNL     1      -2.175   0.538  -0.412  0.00  0.00    -0.047 A 
ATOM     16  C   UNL     1      -2.255  -0.138  -1.615  0.00  0.00    +0.003 A 
ATOM     17  C   UNL     1      -2.009  -1.498  -1.664  0.00  0.00    +0.004 A 
ATOM     18  C   UNL     1      -1.684  -2.184  -0.510  0.00  0.00    +0.045 A 
ATOM     19  C   UNL     1      -1.604  -1.508   0.699  0.00  0.00    +0.121 A 
ATOM     20  C   UNL     1      -1.844  -0.142   0.744  0.00  0.00    +0.049 A 
ENDBRANCH  13  19
ENDBRANCH  12  13
ENDBRANCH   1  12
BRANCH  10  21
ATOM     21  C   UNL     1      -3.764  -4.967   5.251  0.00  0.00    +0.019 C 
BRANCH  21  22
ATOM     22  N   UNL     1      -4.382  -6.282   5.470  0.00  0.00    +0.389 N 
ATOM     23  H   UNL     1      -4.615  -6.696   4.580  0.00  0.00    -0.081 HD
BRANCH  22  24
ATOM     24  C   UNL     1      -3.439  -7.153   6.184  0.00  0.00    -0.051 C 
BRANCH  24  25
ATOM     25  C   UNL     1      -3.038  -6.503   7.482  0.00  0.00    -0.053 C 
ATOM     26  C   UNL     1      -3.220  -7.135   8.615  0.00  0.00    +0.002 C 
ENDBRANCH  24  25
ENDBRANCH  22  24
BRANCH  22  27
ATOM     27  C   UNL     1      -5.603  -6.122   6.271  0.00  0.00    -0.046 C 
BRANCH  27  28
ATOM     28  C   UNL     1      -6.332  -7.463   6.362  0.00  0.00    +0.102 C 
BRANCH  28  29
ATOM     29  O   UNL     1      -6.763  -7.861   5.059  0.00  0.00    -0.393 OA
ATOM     30  H   UNL     1      -7.367  -7.236   4.636  0.00  0.00    +0.210 HD
ENDBRANCH  28  29
BRANCH  28  31
ATOM     31  C   UNL     1      -7.548  -7.321   7.279  0.00  0.00    +0.064 C 
BRANCH  31  32
ATOM     32  C   UNL     1      -8.196  -8.669   7.467  0.00  0.00    -0.045 A 
ATOM     33  C   UNL     1      -9.185  -9.088   6.597  0.00  0.00    +0.004 A 
ATOM     34  C   UNL     1      -9.779 -10.324   6.769  0.00  0.00    +0.000 A 
ATOM     35  C   UNL     1      -9.384 -11.141   7.812  0.00  0.00    +0.000 A 
ATOM     36  C   UNL     1      -8.395 -10.723   8.682  0.00  0.00    +0.000 A 
ATOM     37  C   UNL     1      -7.798  -9.488   8.507  0.00  0.00    +0.004 A 
ENDBRANCH  31  32
ENDBRANCH  28  31
ENDBRANCH  27  28
ENDBRANCH  22  27
ENDBRANCH  21  22
ENDBRANCH  10  21
TORSDOF 12
