REMARK  Name = ZINC22682283
REMARK  9 active torsions:
REMARK  status: ('A' for Active; 'I' for Inactive)
REMARK    1  A    between atoms: C_1  and  C_2
REMARK    2  A    between atoms: N_11  and  C_15
REMARK    3  A    between atoms: C_15  and  C_16
REMARK    4  A    between atoms: N_18  and  C_19
REMARK    5  A    between atoms: C_19  and  C_20
REMARK    6  A    between atoms: C_20  and  C_22
REMARK    7  A    between atoms: C_20  and  N_29
REMARK    8  A    between atoms: N_29  and  C_30
REMARK    9  A    between atoms: N_29  and  C_31
REMARK                            x       y       z     vdW  Elec       q    Type
REMARK                         _______ _______ _______ _____ _____    ______ ____
ROOT
ATOM      1  C   UNL     1      -4.490  -1.505   2.369  0.00  0.00    +0.231 C 
ATOM      2  O   UNL     1      -3.457  -1.606   1.742  0.00  0.00    -0.274 OA
ATOM      3  N   UNL     1      -5.223  -2.603   2.642  0.00  0.00    -0.315 N 
ATOM      4  H   UNL     1      -6.160  -2.511   3.211  0.00  0.00    +0.149 HD
ENDROOT
BRANCH   1   5
ATOM      5  C   UNL     1      -4.955  -0.152   2.842  0.00  0.00    +0.213 C 
BRANCH   5  15
ATOM      6  C   UNL     1      -4.301   4.208   2.342  0.00  0.00    +0.010 C 
ATOM      7  C   UNL     1      -3.342   3.925   1.183  0.00  0.00    +0.018 C 
ATOM      8  C   UNL     1      -4.064   4.165  -0.145  0.00  0.00    +0.006 C 
ATOM      9  C   UNL     1      -3.111   3.862  -1.304  0.00  0.00    +0.000 C 
ATOM     10  C   UNL     1      -2.666   2.400  -1.232  0.00  0.00    +0.003 C 
ATOM     11  C   UNL     1      -1.940   2.153   0.093  0.00  0.00    +0.035 C 
ATOM     12  C   UNL     1      -2.874   2.475   1.254  0.00  0.00    +0.115 C 
ATOM     13  C   UNL     1      -4.060   1.538   1.251  0.00  0.00    +0.247 C 
ATOM     14  O   UNL     1      -4.895   1.413   0.381  0.00  0.00    -0.273 OA
ATOM     15  N   UNL     1      -3.993   0.870   2.421  0.00  0.00    -0.215 N 
ATOM     16  C   UNL     1      -2.939   1.256   3.150  0.00  0.00    +0.310 C 
ATOM     17  O   UNL     1      -2.668   0.797   4.243  0.00  0.00    -0.252 OA
ATOM     18  N   UNL     1      -2.212   2.210   2.537  0.00  0.00    -0.285 N 
ATOM     19  H   UNL     1      -1.301   2.762   2.811  0.00  0.00    +0.151 HD
ENDBRANCH   5  15
ENDBRANCH   1   5
BRANCH   3  20
ATOM     20  C   UNL     1      -4.771  -3.918   2.182  0.00  0.00    +0.093 C 
BRANCH  20  21
ATOM     21  C   UNL     1      -5.704  -4.999   2.731  0.00  0.00    -0.021 C 
BRANCH  21  22
ATOM     22  C   UNL     1      -5.623  -5.016   4.236  0.00  0.00    -0.057 A 
ATOM     23  C   UNL     1      -4.573  -5.660   4.864  0.00  0.00    +0.002 A 
ATOM     24  C   UNL     1      -4.495  -5.672   6.244  0.00  0.00    +0.003 A 
ATOM     25  C   UNL     1      -5.472  -5.049   6.998  0.00  0.00    +0.038 A 
ATOM     26  C   UNL     1      -6.527  -4.409   6.370  0.00  0.00    +0.124 A 
ATOM     27  C   UNL     1      -6.601  -4.393   4.987  0.00  0.00    +0.040 A 
ATOM     28  F   UNL     1      -7.482  -3.800   7.106  0.00  0.00    -0.205 F 
ENDBRANCH  21  22
BRANCH  21  29
ATOM     29  N   UNL     1      -5.300  -6.309   2.204  0.00  0.00    +0.382 N 
ATOM     30  C   UNL     1      -6.207  -7.367   2.670  0.00  0.00    -0.096 C 
ATOM     31  C   UNL     1      -5.226  -6.287   0.737  0.00  0.00    -0.096 C 
ATOM     32  H   UNL     1      -4.294  -6.532   2.590  0.00  0.00    -0.082 HD
ENDBRANCH  21  29
ENDBRANCH  20  21
ENDBRANCH   3  20
TORSDOF 6
