REMARK  Name = ZINC17086042
REMARK  12 active torsions:
REMARK  status: ('A' for Active; 'I' for Inactive)
REMARK    1  A    between atoms: C_1  and  C_2
REMARK    2  A    between atoms: C_2  and  C_3
REMARK    3  A    between atoms: C_2  and  C_4
REMARK    4  A    between atoms: C_2  and  C_5
REMARK    5  A    between atoms: C_17  and  C_20
REMARK    6  A    between atoms: C_23  and  O_28
REMARK    7  A    between atoms: C_24  and  O_26
REMARK    8  A    between atoms: O_26  and  C_27
REMARK    9  A    between atoms: O_28  and  C_29
REMARK   10  A    between atoms: C_29  and  C_31
REMARK   11  A    between atoms: C_34  and  O_37
REMARK   12  A    between atoms: O_37  and  C_38
REMARK                            x       y       z     vdW  Elec       q    Type
REMARK                         _______ _______ _______ _____ _____    ______ ____
ROOT
ATOM      1  C   UNL     1       0.611  -0.478  -1.306  0.00  0.00    -0.000 C 
ATOM      2  C   UNL     1       2.042   0.067  -1.296  0.00  0.00    +0.009 C 
ATOM      3  C   UNL     1       2.866  -0.616  -2.388  0.00  0.00    +0.037 C 
ATOM      4  C   UNL     1       2.123  -0.494  -3.714  0.00  0.00    -0.023 A 
ATOM      5  C   UNL     1       0.802  -0.208  -3.744  0.00  0.00    -0.004 A 
ATOM      6  S   UNL     1       0.381  -0.169  -5.466  0.00  0.00    -0.078 S 
ATOM      7  C   UNL     1       1.920  -0.525  -6.126  0.00  0.00    +0.080 A 
ATOM      8  C   UNL     1       2.758  -0.670  -5.010  0.00  0.00    +0.068 A 
ATOM      9  C   UNL     1       4.181  -0.994  -5.260  0.00  0.00    +0.248 C 
ATOM     10  O   UNL     1       4.941  -1.257  -4.346  0.00  0.00    -0.270 OA
ATOM     11  N   UNL     1       4.600  -0.986  -6.543  0.00  0.00    -0.289 N 
ATOM     12  C   UNL     1       3.805  -0.458  -7.646  0.00  0.00    +0.190 C 
ATOM     13  N   UNL     1       2.364  -0.668  -7.415  0.00  0.00    -0.316 N 
ATOM     14  C   UNL     1      -0.102   0.020  -2.571  0.00  0.00    +0.046 C 
ATOM     15  H   UNL     1       5.599  -1.406  -6.736  0.00  0.00    +0.151 HD
ATOM     16  H   UNL     1       1.704  -0.927  -8.257  0.00  0.00    +0.149 HD
ENDROOT
BRANCH  12  17
ATOM     17  C   UNL     1       4.072   1.019  -7.784  0.00  0.00    -0.006 A 
ATOM     18  C   UNL     1       3.096   1.851  -8.299  0.00  0.00    +0.011 A 
ATOM     19  C   UNL     1       3.336   3.207  -8.426  0.00  0.00    +0.050 A 
ATOM     20  C   UNL     1       4.558   3.734  -8.038  0.00  0.00    +0.173 A 
ATOM     21  C   UNL     1       5.540   2.895  -7.519  0.00  0.00    +0.163 A 
ATOM     22  C   UNL     1       5.291   1.538  -7.389  0.00  0.00    +0.056 A 
BRANCH  21  23
ATOM     23  O   UNL     1       6.740   3.408  -7.137  0.00  0.00    -0.491 OA
ATOM     24  C   UNL     1       7.701   2.488  -6.614  0.00  0.00    +0.277 C 
ENDBRANCH  21  23
BRANCH  20  25
ATOM     25  O   UNL     1       4.796   5.067  -8.163  0.00  0.00    -0.419 OA
BRANCH  25  26
ATOM     26  C   UNL     1       5.497   5.464  -9.243  0.00  0.00    +0.345 C 
ATOM     27  O   UNL     1       5.801   4.658 -10.100  0.00  0.00    -0.245 OA
BRANCH  26  28
ATOM     28  C   UNL     1       5.896   6.877  -9.384  0.00  0.00    +0.060 A 
ATOM     29  C   UNL     1       5.542   7.806  -8.402  0.00  0.00    +0.018 A 
ATOM     30  C   UNL     1       5.921   9.123  -8.535  0.00  0.00    +0.046 A 
ATOM     31  C   UNL     1       6.644   9.531  -9.650  0.00  0.00    +0.120 A 
ATOM     32  C   UNL     1       6.994   8.611 -10.632  0.00  0.00    +0.046 A 
ATOM     33  C   UNL     1       6.623   7.291 -10.504  0.00  0.00    +0.018 A 
BRANCH  31  34
ATOM     34  O   UNL     1       7.011  10.831  -9.780  0.00  0.00    -0.495 OA
ATOM     35  C   UNL     1       6.619  11.723  -8.735  0.00  0.00    +0.277 C 
ENDBRANCH  31  34
ENDBRANCH  26  28
ENDBRANCH  25  26
ENDBRANCH  20  25
ENDBRANCH  12  17
BRANCH   1  37
ATOM     36  C   UNL     1      -0.169   1.548  -0.070  0.00  0.00    +0.011 C 
ATOM     37  C   UNL     1      -0.136   0.018  -0.067  0.00  0.00    -0.035 C 
ATOM     38  C   UNL     1       0.581  -0.474   1.192  0.00  0.00    +0.011 C 
ATOM     39  C   UNL     1      -1.567  -0.522  -0.083  0.00  0.00    +0.011 C 
ENDBRANCH   1  37
TORSDOF 7
