REMARK  Name = ZINC37285922
REMARK  3 active torsions:
REMARK  status: ('A' for Active; 'I' for Inactive)
REMARK    1  A    between atoms: C_4  and  C_10
REMARK    2  A    between atoms: C_6  and  N_7
REMARK    3  A    between atoms: C_16  and  C_19
REMARK                            x       y       z     vdW  Elec       q    Type
REMARK                         _______ _______ _______ _____ _____    ______ ____
ROOT
ATOM      1  C   UNL     1       3.695  -0.686  -0.038  0.00  0.00    +0.248 C 
ATOM      2  O   UNL     1       2.636  -0.100   0.079  0.00  0.00    -0.270 OA
ATOM      3  N   UNL     1       3.713  -2.029  -0.147  0.00  0.00    -0.297 N 
ATOM      4  C   UNL     1       2.460  -2.788  -0.256  0.00  0.00    +0.108 C 
ATOM      5  C   UNL     1       2.444  -3.872   0.827  0.00  0.00    +0.020 C 
ATOM      6  C   UNL     1       3.708  -4.726   0.706  0.00  0.00    +0.016 C 
ATOM      7  C   UNL     1       4.942  -3.846   0.921  0.00  0.00    +0.092 C 
ATOM      8  C   UNL     1       4.986  -2.762  -0.166  0.00  0.00    +0.120 C 
ENDROOT
BRANCH   1  12
ATOM      9  C   UNL     1       7.338   1.498  -0.104  0.00  0.00    +0.034 A 
ATOM     10  C   UNL     1       6.455   1.665   0.947  0.00  0.00    +0.017 A 
ATOM     11  C   UNL     1       5.269   0.958   0.975  0.00  0.00    +0.026 A 
ATOM     12  C   UNL     1       4.962   0.074  -0.062  0.00  0.00    +0.052 A 
ATOM     13  C   UNL     1       5.858  -0.088  -1.120  0.00  0.00    +0.046 A 
ATOM     14  C   UNL     1       7.040   0.624  -1.135  0.00  0.00    +0.127 A 
ATOM     15  I   UNL     1       3.934   1.211   2.570  0.00  0.00    -0.043 I 
BRANCH  14  16
ATOM     16  N   UNL     1       7.990   0.453  -2.256  0.00  0.00    +0.056 N 
ATOM     17  O   UNL     1       9.026   1.077  -2.271  0.00  0.00    -0.126 OA
ATOM     18  O   UNL     1       7.731  -0.310  -3.157  0.00  0.00    -0.126 OA
ENDBRANCH  14  16
ENDBRANCH   1  12
BRANCH   7  19
ATOM     19  C   UNL     1       6.185  -4.694   0.835  0.00  0.00    +0.215 C 
ATOM     20  O   UNL     1       6.094  -5.884   0.624  0.00  0.00    -0.276 OA
ATOM     21  N   UNL     1       7.398  -4.129   0.994  0.00  0.00    -0.329 N 
ATOM     22  H   UNL     1       7.471  -3.176   1.164  0.00  0.00    +0.145 HD
ATOM     23  H   UNL     1       8.198  -4.674   0.939  0.00  0.00    +0.145 HD
ENDBRANCH   7  19
TORSDOF 3
