REMARK  Name = ZINC33869131
REMARK  11 active torsions:
REMARK  status: ('A' for Active; 'I' for Inactive)
REMARK    1  A    between atoms: C_1  and  C_2
REMARK    2  A    between atoms: C_2  and  C_3
REMARK    3  A    between atoms: C_3  and  O_4
REMARK    4  A    between atoms: O_4  and  C_5
REMARK    5  A    between atoms: C_8  and  C_11
REMARK    6  A    between atoms: N_19  and  C_22
REMARK    7  A    between atoms: C_27  and  C_28
REMARK    8  A    between atoms: C_29  and  C_31
REMARK    9  A    between atoms: C_29  and  C_39
REMARK   10  A    between atoms: C_31  and  C_32
REMARK   11  A    between atoms: C_35  and  O_38
REMARK                            x       y       z     vdW  Elec       q    Type
REMARK                         _______ _______ _______ _____ _____    ______ ____
ROOT
ATOM      1  C   UNL     1      -6.397  -4.588   0.038  0.00  0.00    -0.027 C 
ATOM      2  C   UNL     1      -6.742  -5.108  -1.354  0.00  0.00    +0.077 C 
ATOM      3  C   UNL     1      -7.845  -6.141  -0.909  0.00  0.00    +0.086 C 
ATOM      4  C   UNL     1      -8.535  -6.395  -2.151  0.00  0.00    +0.229 C 
ATOM      5  O   UNL     1      -9.048  -7.433  -2.512  0.00  0.00    -0.275 OA
ATOM      6  N   UNL     1      -8.485  -5.205  -2.834  0.00  0.00    -0.210 N 
ATOM      7  C   UNL     1      -7.591  -4.307  -2.289  0.00  0.00    +0.229 C 
ATOM      8  O   UNL     1      -7.509  -3.118  -2.511  0.00  0.00    -0.275 OA
ATOM      9  C   UNL     1      -7.206  -6.871   0.193  0.00  0.00    +0.052 C 
ATOM     10  N   UNL     1      -6.332  -5.837   0.865  0.00  0.00    +0.396 N 
ATOM     11  H   UNL     1      -5.382  -6.175   0.901  0.00  0.00    -0.083 HD
ATOM     12  H   UNL     1      -6.666  -5.647   1.798  0.00  0.00    -0.083 HD
ENDROOT
BRANCH   6  13
ATOM     13  C   UNL     1      -9.252  -4.933  -3.975  0.00  0.00    +0.047 A 
ATOM     14  C   UNL     1     -10.509  -4.357  -3.848  0.00  0.00    +0.024 A 
ATOM     15  C   UNL     1     -11.262  -4.090  -4.974  0.00  0.00    +0.002 A 
ATOM     16  C   UNL     1     -10.766  -4.395  -6.228  0.00  0.00    +0.000 A 
ATOM     17  C   UNL     1      -9.515  -4.969  -6.358  0.00  0.00    +0.005 A 
ATOM     18  C   UNL     1      -8.754  -5.233  -5.236  0.00  0.00    -0.029 A 
ATOM     19  C   UNL     1      -7.388  -5.853  -5.379  0.00  0.00    +0.045 C 
ENDBRANCH   6  13
BRANCH   1  23
ATOM     20  C   UNL     1      -2.616  -2.596   0.013  0.00  0.00    +0.121 A 
ATOM     21  C   UNL     1      -3.791  -1.857   0.022  0.00  0.00    +0.046 A 
ATOM     22  C   UNL     1      -5.012  -2.504   0.030  0.00  0.00    +0.005 A 
ATOM     23  C   UNL     1      -5.064  -3.885   0.029  0.00  0.00    -0.060 A 
ATOM     24  C   UNL     1      -3.895  -4.624   0.020  0.00  0.00    +0.005 A 
ATOM     25  C   UNL     1      -2.671  -3.982   0.006  0.00  0.00    +0.046 A 
BRANCH  20  26
ATOM     26  O   UNL     1      -1.414  -1.962   0.005  0.00  0.00    -0.492 OA
BRANCH  26  27
ATOM     27  C   UNL     1      -1.433  -0.534   0.013  0.00  0.00    +0.229 C 
BRANCH  27  29
ATOM     28  C   UNL     1      -0.019   1.526   0.010  0.00  0.00    +0.007 C 
ATOM     29  C   UNL     1       0.002  -0.004   0.002  0.00  0.00    +0.038 C 
ENDBRANCH  27  29
ENDBRANCH  26  27
ENDBRANCH  20  26
ENDBRANCH   1  23
BRANCH   9  30
ATOM     30  C   UNL     1      -6.388  -8.019  -0.341  0.00  0.00    +0.347 C 
ATOM     31  O   UNL     1      -5.189  -8.066  -0.124  0.00  0.00    -0.248 OA
ATOM     32  O   UNL     1      -6.926  -8.901  -0.988  0.00  0.00    -0.248 OA
ENDBRANCH   9  30
BRANCH   9  33
ATOM     33  C   UNL     1      -8.260  -7.378   1.179  0.00  0.00    +0.035 C 
BRANCH  33  34
ATOM     34  C   UNL     1      -7.576  -8.015   2.362  0.00  0.00    -0.048 A 
ATOM     35  C   UNL     1      -7.274  -9.364   2.340  0.00  0.00    +0.007 A 
ATOM     36  C   UNL     1      -6.647  -9.950   3.423  0.00  0.00    +0.045 A 
ATOM     37  C   UNL     1      -6.322  -9.184   4.533  0.00  0.00    +0.117 A 
ATOM     38  C   UNL     1      -6.626  -7.831   4.552  0.00  0.00    +0.045 A 
ATOM     39  C   UNL     1      -7.248  -7.248   3.464  0.00  0.00    +0.007 A 
BRANCH  37  40
ATOM     40  O   UNL     1      -5.706  -9.758   5.599  0.00  0.00    -0.507 OA
ATOM     41  H   UNL     1      -4.741  -9.743   5.552  0.00  0.00    +0.292 HD
ENDBRANCH  37  40
ENDBRANCH  33  34
ENDBRANCH   9  33
TORSDOF 9
